MODEL 1
REMARK VINA RESULT:      -8.4      0.000      0.000
REMARK  6 active torsions:
REMARK  status: ('A' for Active; 'I' for Inactive)
REMARK    1  A    between atoms: N1_1  and  C1_2 
REMARK    2  A    between atoms: C2_4  and  N3_5 
REMARK    3  A    between atoms: N3_5  and  C3_6 
REMARK    4  A    between atoms: C7_11  and  C8_12 
REMARK    5  A    between atoms: C12_21  and  C13_22 
REMARK    6  A    between atoms: C13_22  and  C14_23 
ROOT
HETATM    1  C1  UNL     1      28.476   1.652  54.168  1.00  0.00     0.724 A 
HETATM    2  N2  UNL     1      27.448   2.512  54.016  1.00  0.00    -0.045 NA
HETATM    3  C2  UNL     1      26.187   2.056  53.893  1.00  0.00     0.159 A 
HETATM    4  C10 UNL     1      25.914   0.698  53.919  1.00  0.00     0.058 A 
HETATM    5  C11 UNL     1      27.006  -0.174  54.077  1.00  0.00     0.155 A 
HETATM    6  N4  UNL     1      28.252   0.330  54.196  1.00  0.00    -0.045 NA
HETATM    7  N5  UNL     1      26.058  -1.230  54.010  1.00  0.00    -0.364 N 
HETATM    8  C12 UNL     1      24.918  -0.359  53.868  1.00  0.00     0.128 A 
HETATM    9  H7  UNL     1      26.143  -2.266  54.049  1.00  0.00     0.162 HD
ENDROOT
BRANCH   3  10
HETATM   10  N3  UNL     1      25.264   3.125  53.749  1.00  0.00    -0.340 N 
HETATM   11  H3  UNL     1      25.033   3.889  54.415  1.00  0.00     0.167 HD
BRANCH  10  12
HETATM   12  C3  UNL     1      24.570   3.109  52.483  1.00  0.00     0.034 A 
HETATM   13  C4  UNL     1      25.250   2.882  51.302  1.00  0.00     0.032 A 
HETATM   14  C5  UNL     1      24.634   2.869  50.045  1.00  0.00     0.045 A 
HETATM   15  C6  UNL     1      23.265   3.100  50.008  1.00  0.00     0.131 A 
HETATM   16  F1  UNL     1      22.677   3.086  48.769  1.00  0.00    -0.205 F 
HETATM   17  C7  UNL     1      22.579   3.326  51.177  1.00  0.00     0.088 A 
HETATM   18  C9  UNL     1      23.194   3.339  52.420  1.00  0.00     0.048 A 
BRANCH  17  19
HETATM   19  C8  UNL     1      21.130   3.558  50.986  1.00  0.00     0.420 C 
HETATM   20  F2  UNL     1      20.570   2.567  50.179  1.00  0.00    -0.166 F 
HETATM   21  F3  UNL     1      20.939   4.787  50.408  1.00  0.00    -0.166 F 
HETATM   22  F4  UNL     1      20.524   3.478  52.244  1.00  0.00    -0.166 F 
ENDBRANCH  17  19
ENDBRANCH  10  12
ENDBRANCH   3  10
BRANCH   1  23
HETATM   23  N1  UNL     1      29.830   2.134  54.301  1.00  0.00    -0.231 N 
HETATM   24  H1  UNL     1      30.715   1.590  54.249  1.00  0.00     0.174 HD
HETATM   25  H2  UNL     1      29.833   3.182  54.472  1.00  0.00     0.174 HD
ENDBRANCH   1  23
BRANCH   8  26
HETATM   26  C13 UNL     1      24.083  -0.527  52.641  1.00  0.00     0.068 C 
BRANCH  26  27
HETATM   27  C14 UNL     1      22.636  -0.254  52.970  1.00  0.00    -0.056 A 
HETATM   28  C15 UNL     1      21.650  -0.118  51.984  1.00  0.00     0.007 A 
HETATM   29  C16 UNL     1      20.321   0.139  52.264  1.00  0.00     0.001 A 
HETATM   30  C17 UNL     1      19.988   0.260  53.610  1.00  0.00     0.000 A 
HETATM   31  C18 UNL     1      20.920   0.134  54.611  1.00  0.00     0.001 A 
HETATM   32  C19 UNL     1      22.237  -0.120  54.300  1.00  0.00     0.007 A 
ENDBRANCH  26  27
ENDBRANCH   8  26
TORSDOF 6
ENDMDL
MODEL 2
REMARK VINA RESULT:      -8.1      4.078      5.861
REMARK  6 active torsions:
REMARK  status: ('A' for Active; 'I' for Inactive)
REMARK    1  A    between atoms: N1_1  and  C1_2 
REMARK    2  A    between atoms: C2_4  and  N3_5 
REMARK    3  A    between atoms: N3_5  and  C3_6 
REMARK    4  A    between atoms: C7_11  and  C8_12 
REMARK    5  A    between atoms: C12_21  and  C13_22 
REMARK    6  A    between atoms: C13_22  and  C14_23 
ROOT
HETATM    1  C1  UNL     1      25.096   4.477  49.511  1.00  0.00     0.724 A 
HETATM    2  N2  UNL     1      25.341   4.091  50.781  1.00  0.00    -0.045 NA
HETATM    3  C2  UNL     1      24.559   3.172  51.380  1.00  0.00     0.159 A 
HETATM    4  C10 UNL     1      23.489   2.601  50.709  1.00  0.00     0.058 A 
HETATM    5  C11 UNL     1      23.259   3.023  49.389  1.00  0.00     0.155 A 
HETATM    6  N4  UNL     1      24.069   3.948  48.831  1.00  0.00    -0.045 NA
HETATM    7  N5  UNL     1      22.159   2.124  49.388  1.00  0.00    -0.364 N 
HETATM    8  C12 UNL     1      22.384   1.658  50.734  1.00  0.00     0.128 A 
HETATM    9  H7  UNL     1      21.439   1.880  48.676  1.00  0.00     0.162 HD
ENDROOT
BRANCH   3  10
HETATM   10  N3  UNL     1      24.993   2.912  52.706  1.00  0.00    -0.340 N 
HETATM   11  H3  UNL     1      24.751   3.408  53.587  1.00  0.00     0.167 HD
BRANCH  10  12
HETATM   12  C3  UNL     1      25.899   1.791  52.796  1.00  0.00     0.034 A 
HETATM   13  C4  UNL     1      25.599   0.584  52.195  1.00  0.00     0.032 A 
HETATM   14  C5  UNL     1      26.430  -0.539  52.260  1.00  0.00     0.045 A 
HETATM   15  C6  UNL     1      27.615  -0.411  52.974  1.00  0.00     0.131 A 
HETATM   16  F1  UNL     1      28.417  -1.522  53.030  1.00  0.00    -0.205 F 
HETATM   17  C7  UNL     1      27.923   0.785  53.575  1.00  0.00     0.088 A 
HETATM   18  C9  UNL     1      27.096   1.896  53.508  1.00  0.00     0.048 A 
BRANCH  17  19
HETATM   19  C8  UNL     1      29.213   0.776  54.302  1.00  0.00     0.420 C 
HETATM   20  F2  UNL     1      30.248   0.344  53.471  1.00  0.00    -0.166 F 
HETATM   21  F3  UNL     1      29.116  -0.053  55.389  1.00  0.00    -0.166 F 
HETATM   22  F4  UNL     1      29.489   2.094  54.678  1.00  0.00    -0.166 F 
ENDBRANCH  17  19
ENDBRANCH  10  12
ENDBRANCH   3  10
BRANCH   1  23
HETATM   23  N1  UNL     1      25.930   5.460  48.863  1.00  0.00    -0.231 N 
HETATM   24  H1  UNL     1      26.954   5.608  48.972  1.00  0.00     0.174 HD
HETATM   25  H2  UNL     1      25.349   6.068  48.215  1.00  0.00     0.174 HD
ENDBRANCH   1  23
BRANCH   8  26
HETATM   26  C13 UNL     1      21.273   1.848  51.713  1.00  0.00     0.068 C 
BRANCH  26  27
HETATM   27  C14 UNL     1      21.256   0.699  52.691  1.00  0.00    -0.056 A 
HETATM   28  C15 UNL     1      22.367   0.357  53.473  1.00  0.00     0.007 A 
HETATM   29  C16 UNL     1      22.375  -0.696  54.369  1.00  0.00     0.001 A 
HETATM   30  C17 UNL     1      21.195  -1.427  54.469  1.00  0.00     0.000 A 
HETATM   31  C18 UNL     1      20.082  -1.129  53.723  1.00  0.00     0.001 A 
HETATM   32  C19 UNL     1      20.104  -0.075  52.838  1.00  0.00     0.007 A 
ENDBRANCH  26  27
ENDBRANCH   8  26
TORSDOF 6
ENDMDL
MODEL 3
REMARK VINA RESULT:      -8.0      3.284      5.825
REMARK  6 active torsions:
REMARK  status: ('A' for Active; 'I' for Inactive)
REMARK    1  A    between atoms: N1_1  and  C1_2 
REMARK    2  A    between atoms: C2_4  and  N3_5 
REMARK    3  A    between atoms: N3_5  and  C3_6 
REMARK    4  A    between atoms: C7_11  and  C8_12 
REMARK    5  A    between atoms: C12_21  and  C13_22 
REMARK    6  A    between atoms: C13_22  and  C14_23 
ROOT
HETATM    1  C1  UNL     1      24.131   6.525  49.230  1.00  0.00     0.724 A 
HETATM    2  N2  UNL     1      23.724   6.020  50.414  1.00  0.00    -0.045 NA
HETATM    3  C2  UNL     1      24.385   4.995  50.984  1.00  0.00     0.159 A 
HETATM    4  C10 UNL     1      25.497   4.436  50.374  1.00  0.00     0.058 A 
HETATM    5  C11 UNL     1      25.897   4.982  49.142  1.00  0.00     0.155 A 
HETATM    6  N4  UNL     1      25.202   6.009  48.609  1.00  0.00    -0.045 NA
HETATM    7  N5  UNL     1      26.940   4.018  49.155  1.00  0.00    -0.364 N 
HETATM    8  C12 UNL     1      26.564   3.452  50.426  1.00  0.00     0.128 A 
HETATM    9  H7  UNL     1      27.707   3.791  48.490  1.00  0.00     0.162 HD
ENDROOT
BRANCH   3  10
HETATM   10  N3  UNL     1      23.793   4.624  52.220  1.00  0.00    -0.340 N 
HETATM   11  H3  UNL     1      23.734   5.162  53.109  1.00  0.00     0.167 HD
BRANCH  10  12
HETATM   12  C3  UNL     1      23.203   3.307  52.194  1.00  0.00     0.034 A 
HETATM   13  C4  UNL     1      22.110   3.034  51.395  1.00  0.00     0.032 A 
HETATM   14  C5  UNL     1      21.487   1.781  51.339  1.00  0.00     0.045 A 
HETATM   15  C6  UNL     1      22.013   0.776  52.139  1.00  0.00     0.131 A 
HETATM   16  F1  UNL     1      21.390  -0.445  52.075  1.00  0.00    -0.205 F 
HETATM   17  C7  UNL     1      23.100   1.037  52.938  1.00  0.00     0.088 A 
HETATM   18  C9  UNL     1      23.714   2.280  52.990  1.00  0.00     0.048 A 
BRANCH  17  19
HETATM   19  C8  UNL     1      23.551  -0.125  53.737  1.00  0.00     0.420 C 
HETATM   20  F2  UNL     1      23.880  -1.199  52.909  1.00  0.00    -0.166 F 
HETATM   21  F3  UNL     1      22.553  -0.496  54.601  1.00  0.00    -0.166 F 
HETATM   22  F4  UNL     1      24.709   0.260  54.418  1.00  0.00    -0.166 F 
ENDBRANCH  17  19
ENDBRANCH  10  12
ENDBRANCH   3  10
BRANCH   1  23
HETATM   23  N1  UNL     1      23.427   7.624  48.613  1.00  0.00    -0.231 N 
HETATM   24  H1  UNL     1      23.807   8.545  48.317  1.00  0.00     0.174 HD
HETATM   25  H2  UNL     1      22.402   7.379  48.484  1.00  0.00     0.174 HD
ENDBRANCH   1  23
BRANCH   8  26
HETATM   26  C13 UNL     1      26.227   1.997  50.449  1.00  0.00     0.068 C 
BRANCH  26  27
HETATM   27  C14 UNL     1      26.852   1.350  51.660  1.00  0.00    -0.056 A 
HETATM   28  C15 UNL     1      26.841  -0.036  51.866  1.00  0.00     0.007 A 
HETATM   29  C16 UNL     1      27.403  -0.648  52.972  1.00  0.00     0.001 A 
HETATM   30  C17 UNL     1      28.000   0.195  53.904  1.00  0.00     0.000 A 
HETATM   31  C18 UNL     1      28.035   1.559  53.744  1.00  0.00     0.001 A 
HETATM   32  C19 UNL     1      27.467   2.139  52.633  1.00  0.00     0.007 A 
ENDBRANCH  26  27
ENDBRANCH   8  26
TORSDOF 6
ENDMDL
MODEL 4
REMARK VINA RESULT:      -7.9      3.318      6.012
REMARK  6 active torsions:
REMARK  status: ('A' for Active; 'I' for Inactive)
REMARK    1  A    between atoms: N1_1  and  C1_2 
REMARK    2  A    between atoms: C2_4  and  N3_5 
REMARK    3  A    between atoms: N3_5  and  C3_6 
REMARK    4  A    between atoms: C7_11  and  C8_12 
REMARK    5  A    between atoms: C12_21  and  C13_22 
REMARK    6  A    between atoms: C13_22  and  C14_23 
ROOT
HETATM    1  C1  UNL     1      22.995   5.213  48.246  1.00  0.00     0.724 A 
HETATM    2  N2  UNL     1      22.505   3.974  48.461  1.00  0.00    -0.045 NA
HETATM    3  C2  UNL     1      23.101   3.146  49.340  1.00  0.00     0.159 A 
HETATM    4  C10 UNL     1      24.226   3.544  50.044  1.00  0.00     0.058 A 
HETATM    5  C11 UNL     1      24.713   4.839  49.799  1.00  0.00     0.155 A 
HETATM    6  N4  UNL     1      24.083   5.633  48.908  1.00  0.00    -0.045 NA
HETATM    7  N5  UNL     1      25.727   4.541  50.748  1.00  0.00    -0.364 N 
HETATM    8  C12 UNL     1      25.237   3.216  51.035  1.00  0.00     0.128 A 
HETATM    9  H7  UNL     1      26.539   5.079  51.115  1.00  0.00     0.162 HD
ENDROOT
BRANCH   3  10
HETATM   10  N3  UNL     1      22.424   1.900  49.414  1.00  0.00    -0.340 N 
HETATM   11  H3  UNL     1      22.234   1.209  48.661  1.00  0.00     0.167 HD
BRANCH  10  12
HETATM   12  C3  UNL     1      21.949   1.591  50.741  1.00  0.00     0.034 A 
HETATM   13  C4  UNL     1      20.940   2.332  51.326  1.00  0.00     0.032 A 
HETATM   14  C5  UNL     1      20.449   2.088  52.614  1.00  0.00     0.045 A 
HETATM   15  C6  UNL     1      21.022   1.040  53.323  1.00  0.00     0.131 A 
HETATM   16  F1  UNL     1      20.531   0.816  54.584  1.00  0.00    -0.205 F 
HETATM   17  C7  UNL     1      22.025   0.297  52.750  1.00  0.00     0.088 A 
HETATM   18  C9  UNL     1      22.509   0.542  51.474  1.00  0.00     0.048 A 
BRANCH  17  19
HETATM   19  C8  UNL     1      22.542  -0.784  53.621  1.00  0.00     0.420 C 
HETATM   20  F2  UNL     1      21.567  -1.758  53.836  1.00  0.00    -0.166 F 
HETATM   21  F3  UNL     1      22.936  -0.251  54.821  1.00  0.00    -0.166 F 
HETATM   22  F4  UNL     1      23.609  -1.388  52.948  1.00  0.00    -0.166 F 
ENDBRANCH  17  19
ENDBRANCH  10  12
ENDBRANCH   3  10
BRANCH   1  23
HETATM   23  N1  UNL     1      22.361   6.106  47.305  1.00  0.00    -0.231 N 
HETATM   24  H1  UNL     1      21.774   6.940  47.506  1.00  0.00     0.174 HD
HETATM   25  H2  UNL     1      22.570   5.801  46.310  1.00  0.00     0.174 HD
ENDBRANCH   1  23
BRANCH   8  26
HETATM   26  C13 UNL     1      26.172   2.077  50.787  1.00  0.00     0.068 C 
BRANCH  26  27
HETATM   27  C14 UNL     1      26.272   1.224  52.027  1.00  0.00    -0.056 A 
HETATM   28  C15 UNL     1      25.941   1.702  53.302  1.00  0.00     0.007 A 
HETATM   29  C16 UNL     1      26.032   0.939  54.451  1.00  0.00     0.001 A 
HETATM   30  C17 UNL     1      26.480  -0.368  54.287  1.00  0.00     0.000 A 
HETATM   31  C18 UNL     1      26.816  -0.880  53.058  1.00  0.00     0.001 A 
HETATM   32  C19 UNL     1      26.716  -0.096  51.931  1.00  0.00     0.007 A 
ENDBRANCH  26  27
ENDBRANCH   8  26
TORSDOF 6
ENDMDL
MODEL 5
REMARK VINA RESULT:      -7.6      1.531      2.235
REMARK  6 active torsions:
REMARK  status: ('A' for Active; 'I' for Inactive)
REMARK    1  A    between atoms: N1_1  and  C1_2 
REMARK    2  A    between atoms: C2_4  and  N3_5 
REMARK    3  A    between atoms: N3_5  and  C3_6 
REMARK    4  A    between atoms: C7_11  and  C8_12 
REMARK    5  A    between atoms: C12_21  and  C13_22 
REMARK    6  A    between atoms: C13_22  and  C14_23 
ROOT
HETATM    1  C1  UNL     1      26.852   0.220  54.498  1.00  0.00     0.724 A 
HETATM    2  N2  UNL     1      26.551   1.492  54.158  1.00  0.00    -0.045 NA
HETATM    3  C2  UNL     1      25.365   1.785  53.592  1.00  0.00     0.159 A 
HETATM    4  C10 UNL     1      24.427   0.795  53.347  1.00  0.00     0.058 A 
HETATM    5  C11 UNL     1      24.769  -0.518  53.712  1.00  0.00     0.155 A 
HETATM    6  N4  UNL     1      25.970  -0.765  54.275  1.00  0.00    -0.045 NA
HETATM    7  N5  UNL     1      23.493  -0.894  53.213  1.00  0.00    -0.364 N 
HETATM    8  C12 UNL     1      23.107   0.447  52.848  1.00  0.00     0.128 A 
HETATM    9  H7  UNL     1      23.000  -1.807  53.134  1.00  0.00     0.162 HD
ENDROOT
BRANCH   3  10
HETATM   10  N3  UNL     1      25.255   3.174  53.319  1.00  0.00    -0.340 N 
HETATM   11  H3  UNL     1      25.494   3.985  53.926  1.00  0.00     0.167 HD
BRANCH  10  12
HETATM   12  C3  UNL     1      24.731   3.454  52.004  1.00  0.00     0.034 A 
HETATM   13  C4  UNL     1      25.435   3.103  50.868  1.00  0.00     0.032 A 
HETATM   14  C5  UNL     1      24.985   3.361  49.569  1.00  0.00     0.045 A 
HETATM   15  C6  UNL     1      23.762   4.007  49.438  1.00  0.00     0.131 A 
HETATM   16  F1  UNL     1      23.336   4.255  48.158  1.00  0.00    -0.205 F 
HETATM   17  C7  UNL     1      23.053   4.360  50.561  1.00  0.00     0.088 A 
HETATM   18  C9  UNL     1      23.504   4.103  51.847  1.00  0.00     0.048 A 
BRANCH  17  19
HETATM   19  C8  UNL     1      21.772   5.042  50.271  1.00  0.00     0.420 C 
HETATM   20  F2  UNL     1      21.091   5.343  51.451  1.00  0.00    -0.166 F 
HETATM   21  F3  UNL     1      20.995   4.234  49.482  1.00  0.00    -0.166 F 
HETATM   22  F4  UNL     1      22.076   6.249  49.634  1.00  0.00    -0.166 F 
ENDBRANCH  17  19
ENDBRANCH  10  12
ENDBRANCH   3  10
BRANCH   1  23
HETATM   23  N1  UNL     1      28.121  -0.102  55.106  1.00  0.00    -0.231 N 
HETATM   24  H1  UNL     1      28.996  -0.413  54.640  1.00  0.00     0.174 HD
HETATM   25  H2  UNL     1      28.067   0.019  56.159  1.00  0.00     0.174 HD
ENDBRANCH   1  23
BRANCH   8  26
HETATM   26  C13 UNL     1      22.773   0.691  51.413  1.00  0.00     0.068 C 
BRANCH  26  27
HETATM   27  C14 UNL     1      21.358   1.203  51.302  1.00  0.00    -0.056 A 
HETATM   28  C15 UNL     1      20.556   0.969  50.177  1.00  0.00     0.007 A 
HETATM   29  C16 UNL     1      19.260   1.435  50.054  1.00  0.00     0.001 A 
HETATM   30  C17 UNL     1      18.765   2.169  51.127  1.00  0.00     0.000 A 
HETATM   31  C18 UNL     1      19.514   2.424  52.249  1.00  0.00     0.001 A 
HETATM   32  C19 UNL     1      20.802   1.947  52.344  1.00  0.00     0.007 A 
ENDBRANCH  26  27
ENDBRANCH   8  26
TORSDOF 6
ENDMDL
MODEL 6
REMARK VINA RESULT:      -7.6      3.384      5.924
REMARK  6 active torsions:
REMARK  status: ('A' for Active; 'I' for Inactive)
REMARK    1  A    between atoms: N1_1  and  C1_2 
REMARK    2  A    between atoms: C2_4  and  N3_5 
REMARK    3  A    between atoms: N3_5  and  C3_6 
REMARK    4  A    between atoms: C7_11  and  C8_12 
REMARK    5  A    between atoms: C12_21  and  C13_22 
REMARK    6  A    between atoms: C13_22  and  C14_23 
ROOT
HETATM    1  C1  UNL     1      18.192  -0.362  52.342  1.00  0.00     0.724 A 
HETATM    2  N2  UNL     1      18.855   0.238  51.331  1.00  0.00    -0.045 NA
HETATM    3  C2  UNL     1      20.198   0.343  51.361  1.00  0.00     0.159 A 
HETATM    4  C10 UNL     1      20.928  -0.162  52.425  1.00  0.00     0.058 A 
HETATM    5  C11 UNL     1      20.210  -0.781  53.462  1.00  0.00     0.155 A 
HETATM    6  N4  UNL     1      18.865  -0.861  53.389  1.00  0.00    -0.045 NA
HETATM    7  N5  UNL     1      21.469  -0.997  54.085  1.00  0.00    -0.364 N 
HETATM    8  C12 UNL     1      22.233  -0.386  53.025  1.00  0.00     0.128 A 
HETATM    9  H7  UNL     1      21.752  -1.438  54.984  1.00  0.00     0.162 HD
ENDROOT
BRANCH   3  10
HETATM   10  N3  UNL     1      20.689   1.002  50.204  1.00  0.00    -0.340 N 
HETATM   11  H3  UNL     1      20.615   0.720  49.205  1.00  0.00     0.167 HD
BRANCH  10  12
HETATM   12  C3  UNL     1      21.382   2.232  50.503  1.00  0.00     0.034 A 
HETATM   13  C4  UNL     1      20.828   3.173  51.348  1.00  0.00     0.032 A 
HETATM   14  C5  UNL     1      21.446   4.389  51.663  1.00  0.00     0.045 A 
HETATM   15  C6  UNL     1      22.683   4.640  51.082  1.00  0.00     0.131 A 
HETATM   16  F1  UNL     1      23.274   5.837  51.399  1.00  0.00    -0.205 F 
HETATM   17  C7  UNL     1      23.243   3.710  50.240  1.00  0.00     0.088 A 
HETATM   18  C9  UNL     1      22.626   2.507  49.931  1.00  0.00     0.048 A 
BRANCH  17  19
HETATM   19  C8  UNL     1      24.559   4.112  49.694  1.00  0.00     0.420 C 
HETATM   20  F2  UNL     1      25.435   4.467  50.720  1.00  0.00    -0.166 F 
HETATM   21  F3  UNL     1      24.392   5.173  48.841  1.00  0.00    -0.166 F 
HETATM   22  F4  UNL     1      25.096   3.000  49.038  1.00  0.00    -0.166 F 
ENDBRANCH  17  19
ENDBRANCH  10  12
ENDBRANCH   3  10
BRANCH   1  23
HETATM   23  N1  UNL     1      16.753  -0.478  52.316  1.00  0.00    -0.231 N 
HETATM   24  H1  UNL     1      16.078   0.027  51.708  1.00  0.00     0.174 HD
HETATM   25  H2  UNL     1      16.428  -1.186  53.037  1.00  0.00     0.174 HD
ENDBRANCH   1  23
BRANCH   8  26
HETATM   26  C13 UNL     1      23.088   0.783  53.391  1.00  0.00     0.068 C 
BRANCH  26  27
HETATM   27  C14 UNL     1      24.512   0.521  52.967  1.00  0.00    -0.056 A 
HETATM   28  C15 UNL     1      25.247   1.428  52.191  1.00  0.00     0.007 A 
HETATM   29  C16 UNL     1      26.551   1.205  51.788  1.00  0.00     0.001 A 
HETATM   30  C17 UNL     1      27.124   0.004  52.196  1.00  0.00     0.000 A 
HETATM   31  C18 UNL     1      26.443  -0.914  52.956  1.00  0.00     0.001 A 
HETATM   32  C19 UNL     1      25.145  -0.664  53.343  1.00  0.00     0.007 A 
ENDBRANCH  26  27
ENDBRANCH   8  26
TORSDOF 6
ENDMDL
MODEL 7
REMARK VINA RESULT:      -7.5      3.940      5.887
REMARK  6 active torsions:
REMARK  status: ('A' for Active; 'I' for Inactive)
REMARK    1  A    between atoms: N1_1  and  C1_2 
REMARK    2  A    between atoms: C2_4  and  N3_5 
REMARK    3  A    between atoms: N3_5  and  C3_6 
REMARK    4  A    between atoms: C7_11  and  C8_12 
REMARK    5  A    between atoms: C12_21  and  C13_22 
REMARK    6  A    between atoms: C13_22  and  C14_23 
ROOT
HETATM    1  C1  UNL     1      23.611   5.280  52.013  1.00  0.00     0.724 A 
HETATM    2  N2  UNL     1      24.270   4.170  51.617  1.00  0.00    -0.045 NA
HETATM    3  C2  UNL     1      23.620   2.997  51.495  1.00  0.00     0.159 A 
HETATM    4  C10 UNL     1      22.266   2.900  51.770  1.00  0.00     0.058 A 
HETATM    5  C11 UNL     1      21.607   4.072  52.181  1.00  0.00     0.155 A 
HETATM    6  N4  UNL     1      22.300   5.225  52.290  1.00  0.00    -0.045 NA
HETATM    7  N5  UNL     1      20.433   3.277  52.263  1.00  0.00    -0.364 N 
HETATM    8  C12 UNL     1      21.078   2.064  51.824  1.00  0.00     0.128 A 
HETATM    9  H7  UNL     1      19.451   3.484  52.540  1.00  0.00     0.162 HD
ENDROOT
BRANCH   3  10
HETATM   10  N3  UNL     1      24.496   1.966  51.065  1.00  0.00    -0.340 N 
HETATM   11  H3  UNL     1      24.633   1.574  50.112  1.00  0.00     0.167 HD
BRANCH  10  12
HETATM   12  C3  UNL     1      25.289   1.412  52.137  1.00  0.00     0.034 A 
HETATM   13  C4  UNL     1      24.760   0.471  52.999  1.00  0.00     0.032 A 
HETATM   14  C5  UNL     1      25.475  -0.091  54.063  1.00  0.00     0.045 A 
HETATM   15  C6  UNL     1      26.785   0.336  54.242  1.00  0.00     0.131 A 
HETATM   16  F1  UNL     1      27.471  -0.222  55.291  1.00  0.00    -0.205 F 
HETATM   17  C7  UNL     1      27.320   1.271  53.390  1.00  0.00     0.088 A 
HETATM   18  C9  UNL     1      26.608   1.825  52.337  1.00  0.00     0.048 A 
BRANCH  17  19
HETATM   19  C8  UNL     1      28.722   1.633  53.702  1.00  0.00     0.420 C 
HETATM   20  F2  UNL     1      28.970   1.524  55.071  1.00  0.00    -0.166 F 
HETATM   21  F3  UNL     1      28.962   2.918  53.289  1.00  0.00    -0.166 F 
HETATM   22  F4  UNL     1      29.546   0.715  53.043  1.00  0.00    -0.166 F 
ENDBRANCH  17  19
ENDBRANCH  10  12
ENDBRANCH   3  10
BRANCH   1  23
HETATM   23  N1  UNL     1      24.301   6.541  52.146  1.00  0.00    -0.231 N 
HETATM   24  H1  UNL     1      24.808   6.913  52.974  1.00  0.00     0.174 HD
HETATM   25  H2  UNL     1      24.232   7.096  51.243  1.00  0.00     0.174 HD
ENDBRANCH   1  23
BRANCH   8  26
HETATM   26  C13 UNL     1      21.038   0.898  52.756  1.00  0.00     0.068 C 
BRANCH  26  27
HETATM   27  C14 UNL     1      19.743   0.145  52.572  1.00  0.00    -0.056 A 
HETATM   28  C15 UNL     1      19.275  -0.791  53.503  1.00  0.00     0.007 A 
HETATM   29  C16 UNL     1      18.095  -1.495  53.350  1.00  0.00     0.001 A 
HETATM   30  C17 UNL     1      17.364  -1.228  52.196  1.00  0.00     0.000 A 
HETATM   31  C18 UNL     1      17.783  -0.319  51.256  1.00  0.00     0.001 A 
HETATM   32  C19 UNL     1      18.964   0.367  51.436  1.00  0.00     0.007 A 
ENDBRANCH  26  27
ENDBRANCH   8  26
TORSDOF 6
ENDMDL
MODEL 8
REMARK VINA RESULT:      -7.3      2.817      5.711
REMARK  6 active torsions:
REMARK  status: ('A' for Active; 'I' for Inactive)
REMARK    1  A    between atoms: N1_1  and  C1_2 
REMARK    2  A    between atoms: C2_4  and  N3_5 
REMARK    3  A    between atoms: N3_5  and  C3_6 
REMARK    4  A    between atoms: C7_11  and  C8_12 
REMARK    5  A    between atoms: C12_21  and  C13_22 
REMARK    6  A    between atoms: C13_22  and  C14_23 
ROOT
HETATM    1  C1  UNL     1      23.274   5.047  49.464  1.00  0.00     0.724 A 
HETATM    2  N2  UNL     1      23.063   4.658  50.739  1.00  0.00    -0.045 NA
HETATM    3  C2  UNL     1      23.995   3.946  51.401  1.00  0.00     0.159 A 
HETATM    4  C10 UNL     1      25.191   3.599  50.793  1.00  0.00     0.058 A 
HETATM    5  C11 UNL     1      25.382   4.018  49.465  1.00  0.00     0.155 A 
HETATM    6  N4  UNL     1      24.419   4.728  48.842  1.00  0.00    -0.045 NA
HETATM    7  N5  UNL     1      26.645   3.370  49.536  1.00  0.00    -0.364 N 
HETATM    8  C12 UNL     1      26.484   2.945  50.905  1.00  0.00     0.128 A 
HETATM    9  H7  UNL     1      27.419   3.241  48.853  1.00  0.00     0.162 HD
ENDROOT
BRANCH   3  10
HETATM   10  N3  UNL     1      23.572   3.646  52.722  1.00  0.00    -0.340 N 
HETATM   11  H3  UNL     1      23.606   4.241  53.575  1.00  0.00     0.167 HD
BRANCH  10  12
HETATM   12  C3  UNL     1      23.027   2.316  52.855  1.00  0.00     0.034 A 
HETATM   13  C4  UNL     1      23.836   1.244  53.177  1.00  0.00     0.032 A 
HETATM   14  C5  UNL     1      23.367  -0.068  53.306  1.00  0.00     0.045 A 
HETATM   15  C6  UNL     1      22.010  -0.279  53.093  1.00  0.00     0.131 A 
HETATM   16  F1  UNL     1      21.567  -1.571  53.220  1.00  0.00    -0.205 F 
HETATM   17  C7  UNL     1      21.196   0.780  52.773  1.00  0.00     0.088 A 
HETATM   18  C9  UNL     1      21.666   2.079  52.646  1.00  0.00     0.048 A 
BRANCH  17  19
HETATM   19  C8  UNL     1      19.778   0.407  52.572  1.00  0.00     0.420 C 
HETATM   20  F2  UNL     1      19.645  -0.483  51.505  1.00  0.00    -0.166 F 
HETATM   21  F3  UNL     1      19.041   1.537  52.328  1.00  0.00    -0.166 F 
HETATM   22  F4  UNL     1      19.351  -0.249  53.731  1.00  0.00    -0.166 F 
ENDBRANCH  17  19
ENDBRANCH  10  12
ENDBRANCH   3  10
BRANCH   1  23
HETATM   23  N1  UNL     1      22.279   5.810  48.750  1.00  0.00    -0.231 N 
HETATM   24  H1  UNL     1      21.618   6.518  49.127  1.00  0.00     0.174 HD
HETATM   25  H2  UNL     1      22.289   5.555  47.719  1.00  0.00     0.174 HD
ENDBRANCH   1  23
BRANCH   8  26
HETATM   26  C13 UNL     1      26.548   1.477  51.172  1.00  0.00     0.068 C 
BRANCH  26  27
HETATM   27  C14 UNL     1      27.425   1.218  52.372  1.00  0.00    -0.056 A 
HETATM   28  C15 UNL     1      28.086   2.244  53.060  1.00  0.00     0.007 A 
HETATM   29  C16 UNL     1      28.899   2.027  54.158  1.00  0.00     0.001 A 
HETATM   30  C17 UNL     1      29.040   0.705  54.567  1.00  0.00     0.000 A 
HETATM   31  C18 UNL     1      28.412  -0.334  53.924  1.00  0.00     0.001 A 
HETATM   32  C19 UNL     1      27.609  -0.087  52.834  1.00  0.00     0.007 A 
ENDBRANCH  26  27
ENDBRANCH   8  26
TORSDOF 6
ENDMDL
MODEL 9
REMARK VINA RESULT:      -7.2      3.493      5.409
REMARK  6 active torsions:
REMARK  status: ('A' for Active; 'I' for Inactive)
REMARK    1  A    between atoms: N1_1  and  C1_2 
REMARK    2  A    between atoms: C2_4  and  N3_5 
REMARK    3  A    between atoms: N3_5  and  C3_6 
REMARK    4  A    between atoms: C7_11  and  C8_12 
REMARK    5  A    between atoms: C12_21  and  C13_22 
REMARK    6  A    between atoms: C13_22  and  C14_23 
ROOT
HETATM    1  C1  UNL     1      25.564   6.910  50.311  1.00  0.00     0.724 A 
HETATM    2  N2  UNL     1      25.607   5.601  49.984  1.00  0.00    -0.045 NA
HETATM    3  C2  UNL     1      24.550   4.801  50.221  1.00  0.00     0.159 A 
HETATM    4  C10 UNL     1      23.395   5.300  50.803  1.00  0.00     0.058 A 
HETATM    5  C11 UNL     1      23.380   6.666  51.133  1.00  0.00     0.155 A 
HETATM    6  N4  UNL     1      24.464   7.428  50.877  1.00  0.00    -0.045 NA
HETATM    7  N5  UNL     1      22.062   6.443  51.615  1.00  0.00    -0.364 N 
HETATM    8  C12 UNL     1      22.043   5.044  51.269  1.00  0.00     0.128 A 
HETATM    9  H7  UNL     1      21.354   7.061  52.062  1.00  0.00     0.162 HD
ENDROOT
BRANCH   3  10
HETATM   10  N3  UNL     1      24.806   3.470  49.799  1.00  0.00    -0.340 N 
HETATM   11  H3  UNL     1      24.677   3.042  48.861  1.00  0.00     0.167 HD
BRANCH  10  12
HETATM   12  C3  UNL     1      25.315   2.628  50.856  1.00  0.00     0.034 A 
HETATM   13  C4  UNL     1      26.618   2.751  51.297  1.00  0.00     0.032 A 
HETATM   14  C5  UNL     1      27.171   1.954  52.306  1.00  0.00     0.045 A 
HETATM   15  C6  UNL     1      26.345   0.995  52.880  1.00  0.00     0.131 A 
HETATM   16  F1  UNL     1      26.903   0.221  53.866  1.00  0.00    -0.205 F 
HETATM   17  C7  UNL     1      25.047   0.865  52.448  1.00  0.00     0.088 A 
HETATM   18  C9  UNL     1      24.505   1.657  51.448  1.00  0.00     0.048 A 
BRANCH  17  19
HETATM   19  C8  UNL     1      24.288  -0.196  53.146  1.00  0.00     0.420 C 
HETATM   20  F2  UNL     1      23.011  -0.334  52.600  1.00  0.00    -0.166 F 
HETATM   21  F3  UNL     1      24.190   0.115  54.478  1.00  0.00    -0.166 F 
HETATM   22  F4  UNL     1      24.971  -1.400  52.944  1.00  0.00    -0.166 F 
ENDBRANCH  17  19
ENDBRANCH  10  12
ENDBRANCH   3  10
BRANCH   1  23
HETATM   23  N1  UNL     1      26.693   7.773  50.059  1.00  0.00    -0.231 N 
HETATM   24  H1  UNL     1      26.757   8.802  50.190  1.00  0.00     0.174 HD
HETATM   25  H2  UNL     1      27.515   7.208  49.697  1.00  0.00     0.174 HD
ENDBRANCH   1  23
BRANCH   8  26
HETATM   26  C13 UNL     1      21.816   4.072  52.380  1.00  0.00     0.068 C 
BRANCH  26  27
HETATM   27  C14 UNL     1      21.132   2.838  51.843  1.00  0.00    -0.056 A 
HETATM   28  C15 UNL     1      20.983   2.594  50.471  1.00  0.00     0.007 A 
HETATM   29  C16 UNL     1      20.355   1.474  49.959  1.00  0.00     0.001 A 
HETATM   30  C17 UNL     1      19.860   0.567  50.891  1.00  0.00     0.000 A 
HETATM   31  C18 UNL     1      19.983   0.764  52.244  1.00  0.00     0.001 A 
HETATM   32  C19 UNL     1      20.613   1.889  52.724  1.00  0.00     0.007 A 
ENDBRANCH  26  27
ENDBRANCH   8  26
TORSDOF 6
ENDMDL
