MODEL 1
REMARK VINA RESULT:      -8.9      0.000      0.000
REMARK  3 active torsions:
REMARK  status: ('A' for Active; 'I' for Inactive)
REMARK    1  A    between atoms: N1_1  and  C1_2 
REMARK    2  A    between atoms: C9_11  and  N3_12 
REMARK    3  A    between atoms: N3_12  and  C10_13 
ROOT
HETATM    1  C1  UNL     1      20.636  -0.497  53.630  1.00  0.00     0.026 A 
HETATM    2  C2  UNL     1      21.539  -1.143  54.480  1.00  0.00     0.032 A 
HETATM    3  C3  UNL     1      22.895  -0.985  54.272  1.00  0.00     0.040 A 
HETATM    4  C4  UNL     1      23.359  -0.201  53.240  1.00  0.00     0.086 A 
HETATM    5  C5  UNL     1      22.489   0.463  52.367  1.00  0.00    -0.004 A 
HETATM    6  C6  UNL     1      21.136   0.279  52.609  1.00  0.00     0.040 A 
HETATM    7  C7  UNL     1      22.560   1.356  51.193  1.00  0.00     0.161 C 
HETATM    8  N2  UNL     1      23.878   1.627  50.711  1.00  0.00    -0.379 N 
HETATM    9  C8  UNL     1      25.113   1.703  51.418  1.00  0.00     0.129 A 
HETATM   10  C9  UNL     1      25.979   2.659  50.939  1.00  0.00     0.160 A 
HETATM   11  N4  UNL     1      27.158   2.741  51.571  1.00  0.00    -0.222 NA
HETATM   12  C16 UNL     1      27.547   1.986  52.606  1.00  0.00     0.238 A 
HETATM   13  N5  UNL     1      26.708   1.037  53.095  1.00  0.00    -0.215 NA
HETATM   14  C17 UNL     1      25.503   0.903  52.503  1.00  0.00     0.202 A 
HETATM   15  O1  UNL     1      24.761  -0.115  53.128  1.00  0.00    -0.289 OA
HETATM   16  H8  UNL     1      24.036   1.805  49.693  1.00  0.00     0.160 HD
ENDROOT
BRANCH  10  17
HETATM   17  N3  UNL     1      25.594   3.506  49.868  1.00  0.00    -0.339 N 
HETATM   18  H9  UNL     1      24.766   3.380  49.275  1.00  0.00     0.167 HD
BRANCH  17  19
HETATM   19  C10 UNL     1      26.264   4.687  49.435  1.00  0.00     0.035 A 
HETATM   20  C11 UNL     1      27.465   4.705  48.722  1.00  0.00     0.029 A 
HETATM   21  C12 UNL     1      28.104   5.843  48.318  1.00  0.00     0.004 A 
HETATM   22  C13 UNL     1      27.571   7.073  48.610  1.00  0.00     0.019 A 
HETATM   23  C14 UNL     1      26.387   7.136  49.313  1.00  0.00     0.013 A 
HETATM   24 BR1  UNL     1      25.674   8.866  49.701  1.00  0.00    -0.051 Br
HETATM   25  C15 UNL     1      25.786   5.954  49.694  1.00  0.00     0.048 A 
ENDBRANCH  17  19
ENDBRANCH  10  17
BRANCH   1  26
HETATM   26  N1  UNL     1      19.254  -0.689  53.884  1.00  0.00    -0.399 N 
HETATM   27  H1  UNL     1      18.540   0.040  54.092  1.00  0.00     0.156 HD
HETATM   28  H2  UNL     1      18.872  -1.672  53.870  1.00  0.00     0.156 HD
ENDBRANCH   1  26
TORSDOF 3
ENDMDL
MODEL 2
REMARK VINA RESULT:      -8.4      4.130      5.475
REMARK  3 active torsions:
REMARK  status: ('A' for Active; 'I' for Inactive)
REMARK    1  A    between atoms: N1_1  and  C1_2 
REMARK    2  A    between atoms: C9_11  and  N3_12 
REMARK    3  A    between atoms: N3_12  and  C10_13 
ROOT
HETATM    1  C1  UNL     1      17.805  -2.139  53.377  1.00  0.00     0.026 A 
HETATM    2  C2  UNL     1      17.315  -1.264  52.401  1.00  0.00     0.032 A 
HETATM    3  C3  UNL     1      18.119  -0.236  51.950  1.00  0.00     0.040 A 
HETATM    4  C4  UNL     1      19.390  -0.068  52.451  1.00  0.00     0.086 A 
HETATM    5  C5  UNL     1      19.918  -0.921  53.429  1.00  0.00    -0.004 A 
HETATM    6  C6  UNL     1      19.080  -1.940  53.855  1.00  0.00     0.040 A 
HETATM    7  C7  UNL     1      21.166  -1.090  54.199  1.00  0.00     0.161 C 
HETATM    8  N2  UNL     1      22.162  -0.090  53.974  1.00  0.00    -0.379 N 
HETATM    9  C8  UNL     1      22.448   0.670  52.803  1.00  0.00     0.129 A 
HETATM   10  C9  UNL     1      23.786   0.925  52.609  1.00  0.00     0.160 A 
HETATM   11  N4  UNL     1      24.085   1.655  51.526  1.00  0.00    -0.222 NA
HETATM   12  C16 UNL     1      23.206   2.142  50.642  1.00  0.00     0.238 A 
HETATM   13  N5  UNL     1      21.881   1.902  50.814  1.00  0.00    -0.215 NA
HETATM   14  C17 UNL     1      21.512   1.171  51.887  1.00  0.00     0.202 A 
HETATM   15  O1  UNL     1      20.115   1.014  51.915  1.00  0.00    -0.289 OA
HETATM   16  H8  UNL     1      22.817   0.177  54.745  1.00  0.00     0.160 HD
ENDROOT
BRANCH  10  17
HETATM   17  N3  UNL     1      24.756   0.397  53.501  1.00  0.00    -0.339 N 
HETATM   18  H9  UNL     1      24.579  -0.306  54.226  1.00  0.00     0.167 HD
BRANCH  17  19
HETATM   19  C10 UNL     1      26.141   0.727  53.542  1.00  0.00     0.035 A 
HETATM   20  C11 UNL     1      26.650   2.026  53.587  1.00  0.00     0.029 A 
HETATM   21  C12 UNL     1      27.981   2.332  53.618  1.00  0.00     0.004 A 
HETATM   22  C13 UNL     1      28.919   1.331  53.604  1.00  0.00     0.019 A 
HETATM   23  C14 UNL     1      28.493   0.021  53.559  1.00  0.00     0.013 A 
HETATM   24 BR1  UNL     1      29.827  -1.348  53.541  1.00  0.00    -0.051 Br
HETATM   25  C15 UNL     1      27.137  -0.228  53.530  1.00  0.00     0.048 A 
ENDBRANCH  17  19
ENDBRANCH  10  17
BRANCH   1  26
HETATM   26  N1  UNL     1      16.943  -3.179  53.807  1.00  0.00    -0.399 N 
HETATM   27  H1  UNL     1      15.930  -3.107  54.042  1.00  0.00     0.156 HD
HETATM   28  H2  UNL     1      17.340  -4.150  53.912  1.00  0.00     0.156 HD
ENDBRANCH   1  26
TORSDOF 3
ENDMDL
MODEL 3
REMARK VINA RESULT:      -8.3      4.849      8.715
REMARK  3 active torsions:
REMARK  status: ('A' for Active; 'I' for Inactive)
REMARK    1  A    between atoms: N1_1  and  C1_2 
REMARK    2  A    between atoms: C9_11  and  N3_12 
REMARK    3  A    between atoms: N3_12  and  C10_13 
ROOT
HETATM    1  C1  UNL     1      27.122   0.280  54.275  1.00  0.00     0.026 A 
HETATM    2  C2  UNL     1      27.241   1.444  53.508  1.00  0.00     0.032 A 
HETATM    3  C3  UNL     1      26.132   1.933  52.845  1.00  0.00     0.040 A 
HETATM    4  C4  UNL     1      24.920   1.285  52.934  1.00  0.00     0.086 A 
HETATM    5  C5  UNL     1      24.759   0.118  53.690  1.00  0.00    -0.004 A 
HETATM    6  C6  UNL     1      25.895  -0.340  54.340  1.00  0.00     0.040 A 
HETATM    7  C7  UNL     1      23.693  -0.842  54.038  1.00  0.00     0.161 C 
HETATM    8  N2  UNL     1      22.431  -0.607  53.409  1.00  0.00    -0.379 N 
HETATM    9  C8  UNL     1      21.827   0.617  52.999  1.00  0.00     0.129 A 
HETATM   10  C9  UNL     1      20.461   0.654  53.159  1.00  0.00     0.160 A 
HETATM   11  N4  UNL     1      19.862   1.785  52.763  1.00  0.00    -0.222 NA
HETATM   12  C16 UNL     1      20.473   2.854  52.238  1.00  0.00     0.238 A 
HETATM   13  N5  UNL     1      21.820   2.840  52.072  1.00  0.00    -0.215 NA
HETATM   14  C17 UNL     1      22.486   1.728  52.451  1.00  0.00     0.202 A 
HETATM   15  O1  UNL     1      23.863   1.878  52.215  1.00  0.00    -0.289 OA
HETATM   16  H8  UNL     1      21.801  -1.411  53.184  1.00  0.00     0.160 HD
ENDROOT
BRANCH  10  17
HETATM   17  N3  UNL     1      19.776  -0.442  53.746  1.00  0.00    -0.339 N 
HETATM   18  H9  UNL     1      20.063  -0.939  54.596  1.00  0.00     0.167 HD
BRANCH  17  19
HETATM   19  C10 UNL     1      18.568  -1.037  53.280  1.00  0.00     0.035 A 
HETATM   20  C11 UNL     1      17.664  -0.425  52.410  1.00  0.00     0.029 A 
HETATM   21  C12 UNL     1      16.503  -1.002  51.975  1.00  0.00     0.004 A 
HETATM   22  C13 UNL     1      16.161  -2.262  52.393  1.00  0.00     0.019 A 
HETATM   23  C14 UNL     1      17.004  -2.930  53.254  1.00  0.00     0.013 A 
HETATM   24 BR1  UNL     1      16.496  -4.684  53.816  1.00  0.00    -0.051 Br
HETATM   25  C15 UNL     1      18.162  -2.299  53.659  1.00  0.00     0.048 A 
ENDBRANCH  17  19
ENDBRANCH  10  17
BRANCH   1  26
HETATM   26  N1  UNL     1      28.287  -0.183  54.938  1.00  0.00    -0.399 N 
HETATM   27  H1  UNL     1      28.701  -1.138  54.901  1.00  0.00     0.156 HD
HETATM   28  H2  UNL     1      28.821   0.493  55.546  1.00  0.00     0.156 HD
ENDBRANCH   1  26
TORSDOF 3
ENDMDL
MODEL 4
REMARK VINA RESULT:      -8.3      2.601      4.053
REMARK  3 active torsions:
REMARK  status: ('A' for Active; 'I' for Inactive)
REMARK    1  A    between atoms: N1_1  and  C1_2 
REMARK    2  A    between atoms: C9_11  and  N3_12 
REMARK    3  A    between atoms: N3_12  and  C10_13 
ROOT
HETATM    1  C1  UNL     1      26.367  -0.787  52.913  1.00  0.00     0.026 A 
HETATM    2  C2  UNL     1      25.148  -0.717  53.597  1.00  0.00     0.032 A 
HETATM    3  C3  UNL     1      24.368   0.415  53.473  1.00  0.00     0.040 A 
HETATM    4  C4  UNL     1      24.780   1.468  52.687  1.00  0.00     0.086 A 
HETATM    5  C5  UNL     1      25.992   1.439  51.988  1.00  0.00    -0.004 A 
HETATM    6  C6  UNL     1      26.746   0.284  52.137  1.00  0.00     0.040 A 
HETATM    7  C7  UNL     1      26.773   2.303  51.080  1.00  0.00     0.161 C 
HETATM    8  N2  UNL     1      26.214   3.597  50.840  1.00  0.00    -0.379 N 
HETATM    9  C8  UNL     1      24.852   4.014  50.808  1.00  0.00     0.129 A 
HETATM   10  C9  UNL     1      24.581   4.984  49.870  1.00  0.00     0.160 A 
HETATM   11  N4  UNL     1      23.312   5.411  49.830  1.00  0.00    -0.222 NA
HETATM   12  C16 UNL     1      22.313   4.979  50.610  1.00  0.00     0.238 A 
HETATM   13  N5  UNL     1      22.558   4.022  51.542  1.00  0.00    -0.215 NA
HETATM   14  C17 UNL     1      23.819   3.547  51.634  1.00  0.00     0.202 A 
HETATM   15  O1  UNL     1      23.900   2.568  52.639  1.00  0.00    -0.289 OA
HETATM   16  H8  UNL     1      26.844   4.411  50.652  1.00  0.00     0.160 HD
ENDROOT
BRANCH  10  17
HETATM   17  N3  UNL     1      25.600   5.445  48.997  1.00  0.00    -0.339 N 
HETATM   18  H9  UNL     1      25.892   4.988  48.126  1.00  0.00     0.167 HD
BRANCH  17  19
HETATM   19  C10 UNL     1      26.385   6.623  49.155  1.00  0.00     0.035 A 
HETATM   20  C11 UNL     1      26.098   7.658  50.048  1.00  0.00     0.029 A 
HETATM   21  C12 UNL     1      26.854   8.788  50.186  1.00  0.00     0.004 A 
HETATM   22  C13 UNL     1      27.976   8.965  49.418  1.00  0.00     0.019 A 
HETATM   23  C14 UNL     1      28.324   7.987  48.512  1.00  0.00     0.013 A 
HETATM   24 BR1  UNL     1      29.895   8.266  47.460  1.00  0.00    -0.051 Br
HETATM   25  C15 UNL     1      27.525   6.866  48.417  1.00  0.00     0.048 A 
ENDBRANCH  17  19
ENDBRANCH  10  17
BRANCH   1  26
HETATM   26  N1  UNL     1      27.132  -1.971  53.070  1.00  0.00    -0.399 N 
HETATM   27  H1  UNL     1      26.881  -2.933  52.762  1.00  0.00     0.156 HD
HETATM   28  H2  UNL     1      28.068  -1.904  53.551  1.00  0.00     0.156 HD
ENDBRANCH   1  26
TORSDOF 3
ENDMDL
MODEL 5
REMARK VINA RESULT:      -8.1      4.629      8.936
REMARK  3 active torsions:
REMARK  status: ('A' for Active; 'I' for Inactive)
REMARK    1  A    between atoms: N1_1  and  C1_2 
REMARK    2  A    between atoms: C9_11  and  N3_12 
REMARK    3  A    between atoms: N3_12  and  C10_13 
ROOT
HETATM    1  C1  UNL     1      26.537   0.126  53.987  1.00  0.00     0.026 A 
HETATM    2  C2  UNL     1      26.625   1.060  52.949  1.00  0.00     0.032 A 
HETATM    3  C3  UNL     1      25.501   1.343  52.198  1.00  0.00     0.040 A 
HETATM    4  C4  UNL     1      24.304   0.716  52.463  1.00  0.00     0.086 A 
HETATM    5  C5  UNL     1      24.174  -0.224  53.493  1.00  0.00    -0.004 A 
HETATM    6  C6  UNL     1      25.325  -0.480  54.223  1.00  0.00     0.040 A 
HETATM    7  C7  UNL     1      23.132  -1.085  54.087  1.00  0.00     0.161 C 
HETATM    8  N2  UNL     1      21.861  -1.041  53.435  1.00  0.00    -0.379 N 
HETATM    9  C8  UNL     1      21.227   0.027  52.735  1.00  0.00     0.129 A 
HETATM   10  C9  UNL     1      19.862   0.077  52.899  1.00  0.00     0.160 A 
HETATM   11  N4  UNL     1      19.235   1.059  52.237  1.00  0.00    -0.222 NA
HETATM   12  C16 UNL     1      19.818   1.971  51.450  1.00  0.00     0.238 A 
HETATM   13  N5  UNL     1      21.164   1.941  51.276  1.00  0.00    -0.215 NA
HETATM   14  C17 UNL     1      21.857   0.975  51.916  1.00  0.00     0.202 A 
HETATM   15  O1  UNL     1      23.229   1.086  51.631  1.00  0.00    -0.289 OA
HETATM   16  H8  UNL     1      21.247  -1.888  53.430  1.00  0.00     0.160 HD
ENDROOT
BRANCH  10  17
HETATM   17  N3  UNL     1      19.205  -0.848  53.753  1.00  0.00    -0.339 N 
HETATM   18  H9  UNL     1      19.450  -1.034  54.732  1.00  0.00     0.167 HD
BRANCH  17  19
HETATM   19  C10 UNL     1      18.086  -1.664  53.421  1.00  0.00     0.035 A 
HETATM   20  C11 UNL     1      17.932  -2.998  53.804  1.00  0.00     0.029 A 
HETATM   21  C12 UNL     1      16.858  -3.776  53.473  1.00  0.00     0.004 A 
HETATM   22  C13 UNL     1      15.839  -3.256  52.716  1.00  0.00     0.019 A 
HETATM   23  C14 UNL     1      15.920  -1.946  52.300  1.00  0.00     0.013 A 
HETATM   24 BR1  UNL     1      14.481  -1.255  51.248  1.00  0.00    -0.051 Br
HETATM   25  C15 UNL     1      17.027  -1.208  52.664  1.00  0.00     0.048 A 
ENDBRANCH  17  19
ENDBRANCH  10  17
BRANCH   1  26
HETATM   26  N1  UNL     1      27.718  -0.130  54.730  1.00  0.00    -0.399 N 
HETATM   27  H1  UNL     1      28.307   0.560  55.242  1.00  0.00     0.156 HD
HETATM   28  H2  UNL     1      28.067  -1.122  54.792  1.00  0.00     0.156 HD
ENDBRANCH   1  26
TORSDOF 3
ENDMDL
MODEL 6
REMARK VINA RESULT:      -8.1      2.478      4.680
REMARK  3 active torsions:
REMARK  status: ('A' for Active; 'I' for Inactive)
REMARK    1  A    between atoms: N1_1  and  C1_2 
REMARK    2  A    between atoms: C9_11  and  N3_12 
REMARK    3  A    between atoms: N3_12  and  C10_13 
ROOT
HETATM    1  C1  UNL     1      28.611  -0.583  53.394  1.00  0.00     0.026 A 
HETATM    2  C2  UNL     1      27.733  -1.627  53.081  1.00  0.00     0.032 A 
HETATM    3  C3  UNL     1      26.400  -1.345  52.856  1.00  0.00     0.040 A 
HETATM    4  C4  UNL     1      25.934  -0.052  52.937  1.00  0.00     0.086 A 
HETATM    5  C5  UNL     1      26.778   1.021  53.248  1.00  0.00    -0.004 A 
HETATM    6  C6  UNL     1      28.109   0.696  53.467  1.00  0.00     0.040 A 
HETATM    7  C7  UNL     1      26.696   2.484  53.428  1.00  0.00     0.161 C 
HETATM    8  N2  UNL     1      25.383   3.038  53.322  1.00  0.00    -0.379 N 
HETATM    9  C8  UNL     1      24.269   2.611  52.543  1.00  0.00     0.129 A 
HETATM   10  C9  UNL     1      23.501   3.638  52.046  1.00  0.00     0.160 A 
HETATM   11  N4  UNL     1      22.434   3.267  51.325  1.00  0.00    -0.222 NA
HETATM   12  C16 UNL     1      22.068   2.008  51.058  1.00  0.00     0.238 A 
HETATM   13  N5  UNL     1      22.812   0.978  51.538  1.00  0.00    -0.215 NA
HETATM   14  C17 UNL     1      23.902   1.284  52.273  1.00  0.00     0.202 A 
HETATM   15  O1  UNL     1      24.557   0.112  52.688  1.00  0.00    -0.289 OA
HETATM   16  H8  UNL     1      25.129   3.889  53.874  1.00  0.00     0.160 HD
ENDROOT
BRANCH  10  17
HETATM   17  N3  UNL     1      23.872   4.989  52.273  1.00  0.00    -0.339 N 
HETATM   18  H9  UNL     1      23.991   5.429  53.192  1.00  0.00     0.167 HD
BRANCH  17  19
HETATM   19  C10 UNL     1      24.165   5.968  51.280  1.00  0.00     0.035 A 
HETATM   20  C11 UNL     1      23.383   7.095  51.018  1.00  0.00     0.029 A 
HETATM   21  C12 UNL     1      23.670   8.024  50.057  1.00  0.00     0.004 A 
HETATM   22  C13 UNL     1      24.786   7.884  49.273  1.00  0.00     0.019 A 
HETATM   23  C14 UNL     1      25.607   6.796  49.473  1.00  0.00     0.013 A 
HETATM   24 BR1  UNL     1      27.155   6.633  48.363  1.00  0.00    -0.051 Br
HETATM   25  C15 UNL     1      25.270   5.890  50.458  1.00  0.00     0.048 A 
ENDBRANCH  17  19
ENDBRANCH  10  17
BRANCH   1  26
HETATM   26  N1  UNL     1      29.970  -0.922  53.615  1.00  0.00    -0.399 N 
HETATM   27  H1  UNL     1      30.372  -1.873  53.753  1.00  0.00     0.156 HD
HETATM   28  H2  UNL     1      30.682  -0.146  53.650  1.00  0.00     0.156 HD
ENDBRANCH   1  26
TORSDOF 3
ENDMDL
MODEL 7
REMARK VINA RESULT:      -8.0      2.754      4.259
REMARK  3 active torsions:
REMARK  status: ('A' for Active; 'I' for Inactive)
REMARK    1  A    between atoms: N1_1  and  C1_2 
REMARK    2  A    between atoms: C9_11  and  N3_12 
REMARK    3  A    between atoms: N3_12  and  C10_13 
ROOT
HETATM    1  C1  UNL     1      25.059  -0.337  53.575  1.00  0.00     0.026 A 
HETATM    2  C2  UNL     1      23.784  -0.883  53.393  1.00  0.00     0.032 A 
HETATM    3  C3  UNL     1      22.725  -0.045  53.102  1.00  0.00     0.040 A 
HETATM    4  C4  UNL     1      22.916   1.314  52.992  1.00  0.00     0.086 A 
HETATM    5  C5  UNL     1      24.176   1.900  53.167  1.00  0.00    -0.004 A 
HETATM    6  C6  UNL     1      25.212   1.025  53.457  1.00  0.00     0.040 A 
HETATM    7  C7  UNL     1      24.791   3.242  53.138  1.00  0.00     0.161 C 
HETATM    8  N2  UNL     1      23.882   4.325  52.927  1.00  0.00    -0.379 N 
HETATM    9  C8  UNL     1      22.661   4.366  52.193  1.00  0.00     0.129 A 
HETATM   10  C9  UNL     1      22.436   5.556  51.540  1.00  0.00     0.160 A 
HETATM   11  N4  UNL     1      21.286   5.632  50.856  1.00  0.00    -0.222 NA
HETATM   12  C16 UNL     1      20.365   4.665  50.761  1.00  0.00     0.238 A 
HETATM   13  N5  UNL     1      20.568   3.483  51.396  1.00  0.00    -0.215 NA
HETATM   14  C17 UNL     1      21.708   3.340  52.104  1.00  0.00     0.202 A 
HETATM   15  O1  UNL     1      21.763   2.065  52.693  1.00  0.00    -0.289 OA
HETATM   16  H8  UNL     1      24.078   5.261  53.350  1.00  0.00     0.160 HD
ENDROOT
BRANCH  10  17
HETATM   17  N3  UNL     1      23.402   6.595  51.583  1.00  0.00    -0.339 N 
HETATM   18  H9  UNL     1      23.562   7.229  52.374  1.00  0.00     0.167 HD
BRANCH  17  19
HETATM   19  C10 UNL     1      24.331   6.933  50.558  1.00  0.00     0.035 A 
HETATM   20  C11 UNL     1      24.337   8.140  49.855  1.00  0.00     0.029 A 
HETATM   21  C12 UNL     1      25.229   8.452  48.868  1.00  0.00     0.004 A 
HETATM   22  C13 UNL     1      26.200   7.553  48.507  1.00  0.00     0.019 A 
HETATM   23  C14 UNL     1      26.258   6.339  49.156  1.00  0.00     0.013 A 
HETATM   24 BR1  UNL     1      27.624   5.111  48.628  1.00  0.00    -0.051 Br
HETATM   25  C15 UNL     1      25.332   6.079  50.146  1.00  0.00     0.048 A 
ENDBRANCH  17  19
ENDBRANCH  10  17
BRANCH   1  26
HETATM   26  N1  UNL     1      26.114  -1.238  53.870  1.00  0.00    -0.399 N 
HETATM   27  H1  UNL     1      26.740  -1.724  53.194  1.00  0.00     0.156 HD
HETATM   28  H2  UNL     1      26.315  -1.463  54.880  1.00  0.00     0.156 HD
ENDBRANCH   1  26
TORSDOF 3
ENDMDL
MODEL 8
REMARK VINA RESULT:      -7.9      3.781      8.076
REMARK  3 active torsions:
REMARK  status: ('A' for Active; 'I' for Inactive)
REMARK    1  A    between atoms: N1_1  and  C1_2 
REMARK    2  A    between atoms: C9_11  and  N3_12 
REMARK    3  A    between atoms: N3_12  and  C10_13 
ROOT
HETATM    1  C1  UNL     1      24.760   6.872  50.731  1.00  0.00     0.026 A 
HETATM    2  C2  UNL     1      23.648   7.715  50.633  1.00  0.00     0.032 A 
HETATM    3  C3  UNL     1      22.386   7.162  50.533  1.00  0.00     0.040 A 
HETATM    4  C4  UNL     1      22.219   5.795  50.527  1.00  0.00     0.086 A 
HETATM    5  C5  UNL     1      23.305   4.916  50.622  1.00  0.00    -0.004 A 
HETATM    6  C6  UNL     1      24.554   5.511  50.722  1.00  0.00     0.040 A 
HETATM    7  C7  UNL     1      23.558   3.462  50.652  1.00  0.00     0.161 C 
HETATM    8  N2  UNL     1      22.403   2.638  50.485  1.00  0.00    -0.379 N 
HETATM    9  C8  UNL     1      21.048   2.873  50.862  1.00  0.00     0.129 A 
HETATM   10  C9  UNL     1      20.378   1.749  51.286  1.00  0.00     0.160 A 
HETATM   11  N4  UNL     1      19.096   1.935  51.628  1.00  0.00    -0.222 NA
HETATM   12  C16 UNL     1      18.435   3.099  51.591  1.00  0.00     0.238 A 
HETATM   13  N5  UNL     1      19.078   4.221  51.177  1.00  0.00    -0.215 NA
HETATM   14  C17 UNL     1      20.373   4.102  50.818  1.00  0.00     0.202 A 
HETATM   15  O1  UNL     1      20.887   5.349  50.420  1.00  0.00    -0.289 OA
HETATM   16  H8  UNL     1      22.490   1.705  50.022  1.00  0.00     0.160 HD
ENDROOT
BRANCH  10  17
HETATM   17  N3  UNL     1      21.049   0.502  51.376  1.00  0.00    -0.339 N 
HETATM   18  H9  UNL     1      21.229  -0.137  50.593  1.00  0.00     0.167 HD
BRANCH  17  19
HETATM   19  C10 UNL     1      21.608  -0.079  52.550  1.00  0.00     0.035 A 
HETATM   20  C11 UNL     1      20.874  -0.735  53.541  1.00  0.00     0.029 A 
HETATM   21  C12 UNL     1      21.420  -1.283  54.668  1.00  0.00     0.004 A 
HETATM   22  C13 UNL     1      22.772  -1.207  54.886  1.00  0.00     0.019 A 
HETATM   23  C14 UNL     1      23.562  -0.573  53.953  1.00  0.00     0.013 A 
HETATM   24 BR1  UNL     1      25.442  -0.487  54.289  1.00  0.00    -0.051 Br
HETATM   25  C15 UNL     1      22.957  -0.040  52.833  1.00  0.00     0.048 A 
ENDBRANCH  17  19
ENDBRANCH  10  17
BRANCH   1  26
HETATM   26  N1  UNL     1      26.033   7.487  50.833  1.00  0.00    -0.399 N 
HETATM   27  H1  UNL     1      26.625   7.853  50.058  1.00  0.00     0.156 HD
HETATM   28  H2  UNL     1      26.461   7.602  51.790  1.00  0.00     0.156 HD
ENDBRANCH   1  26
TORSDOF 3
ENDMDL
MODEL 9
REMARK VINA RESULT:      -7.6      2.537      4.206
REMARK  3 active torsions:
REMARK  status: ('A' for Active; 'I' for Inactive)
REMARK    1  A    between atoms: N1_1  and  C1_2 
REMARK    2  A    between atoms: C9_11  and  N3_12 
REMARK    3  A    between atoms: N3_12  and  C10_13 
ROOT
HETATM    1  C1  UNL     1      24.019  -1.088  55.089  1.00  0.00     0.026 A 
HETATM    2  C2  UNL     1      22.673  -1.343  55.372  1.00  0.00     0.032 A 
HETATM    3  C3  UNL     1      21.696  -0.777  54.577  1.00  0.00     0.040 A 
HETATM    4  C4  UNL     1      22.038   0.031  53.516  1.00  0.00     0.086 A 
HETATM    5  C5  UNL     1      23.373   0.311  53.199  1.00  0.00    -0.004 A 
HETATM    6  C6  UNL     1      24.323  -0.277  54.021  1.00  0.00     0.040 A 
HETATM    7  C7  UNL     1      24.139   1.084  52.201  1.00  0.00     0.161 C 
HETATM    8  N2  UNL     1      23.352   1.844  51.282  1.00  0.00    -0.379 N 
HETATM    9  C8  UNL     1      22.052   1.586  50.758  1.00  0.00     0.129 A 
HETATM   10  C9  UNL     1      21.884   1.975  49.449  1.00  0.00     0.160 A 
HETATM   11  N4  UNL     1      20.665   1.762  48.935  1.00  0.00    -0.222 NA
HETATM   12  C16 UNL     1      19.627   1.215  49.578  1.00  0.00     0.238 A 
HETATM   13  N5  UNL     1      19.771   0.824  50.870  1.00  0.00    -0.215 NA
HETATM   14  C17 UNL     1      20.976   1.009  51.449  1.00  0.00     0.202 A 
HETATM   15  O1  UNL     1      20.956   0.551  52.778  1.00  0.00    -0.289 OA
HETATM   16  H8  UNL     1      23.724   2.741  50.894  1.00  0.00     0.160 HD
ENDROOT
BRANCH  10  17
HETATM   17  N3  UNL     1      22.969   2.525  48.717  1.00  0.00    -0.339 N 
HETATM   18  H9  UNL     1      23.729   1.989  48.284  1.00  0.00     0.167 HD
BRANCH  17  19
HETATM   19  C10 UNL     1      23.190   3.903  48.435  1.00  0.00     0.035 A 
HETATM   20  C11 UNL     1      22.441   4.662  47.534  1.00  0.00     0.029 A 
HETATM   21  C12 UNL     1      22.667   5.983  47.264  1.00  0.00     0.004 A 
HETATM   22  C13 UNL     1      23.686   6.650  47.894  1.00  0.00     0.019 A 
HETATM   23  C14 UNL     1      24.471   5.967  48.798  1.00  0.00     0.013 A 
HETATM   24 BR1  UNL     1      25.881   6.928  49.657  1.00  0.00    -0.051 Br
HETATM   25  C15 UNL     1      24.196   4.635  49.031  1.00  0.00     0.048 A 
ENDBRANCH  17  19
ENDBRANCH  10  17
BRANCH   1  26
HETATM   26  N1  UNL     1      24.985  -1.693  55.933  1.00  0.00    -0.399 N 
HETATM   27  H1  UNL     1      25.405  -1.298  56.801  1.00  0.00     0.156 HD
HETATM   28  H2  UNL     1      25.342  -2.653  55.682  1.00  0.00     0.156 HD
ENDBRANCH   1  26
TORSDOF 3
ENDMDL
