MODEL 1
REMARK VINA RESULT:      -8.3      0.000      0.000
REMARK  5 active torsions:
REMARK  status: ('A' for Active; 'I' for Inactive)
REMARK    1  A    between atoms: C2_2  and  O1_4 
REMARK    2  A    between atoms: O1_4  and  C4_5 
REMARK    3  A    between atoms: C8_11  and  N3_12 
REMARK    4  A    between atoms: N3_12  and  C9_13 
REMARK    5  A    between atoms: C12_16  and  C13_17 
ROOT
HETATM    1  C13 UNL     1      29.384  -0.388  53.423  1.00  0.00     0.162 C 
HETATM    2  C14 UNL     1      29.188  -1.855  53.434  1.00  0.00     0.063 C 
HETATM    3  N4  UNL     1      29.043  -3.007  53.456  1.00  0.00    -0.197 NA
ENDROOT
BRANCH   1   4
HETATM    4  C12 UNL     1      28.016   0.210  53.296  1.00  0.00    -0.045 A 
HETATM    5  C11 UNL     1      27.856   1.483  53.836  1.00  0.00     0.010 A 
HETATM    6  C10 UNL     1      26.601   2.019  53.722  1.00  0.00     0.030 A 
HETATM    7  C9  UNL     1      25.522   1.432  53.143  1.00  0.00     0.033 A 
HETATM    8  C16 UNL     1      25.759   0.174  52.631  1.00  0.00     0.030 A 
HETATM    9  C15 UNL     1      26.977  -0.459  52.690  1.00  0.00     0.010 A 
BRANCH   7  10
HETATM   10  N3  UNL     1      24.246   2.060  53.083  1.00  0.00    -0.340 N 
HETATM   11  H10 UNL     1      23.845   2.404  54.003  1.00  0.00     0.167 HD
BRANCH  10  12
HETATM   12  C8  UNL     1      23.483   2.253  51.901  1.00  0.00     0.144 A 
HETATM   13  N2  UNL     1      24.021   3.081  50.992  1.00  0.00    -0.223 NA
HETATM   14  C7  UNL     1      23.359   3.312  49.819  1.00  0.00     0.236 A 
HETATM   15  N1  UNL     1      22.163   2.715  49.560  1.00  0.00    -0.241 NA
HETATM   16  C6  UNL     1      21.601   1.893  50.434  1.00  0.00     0.077 A 
HETATM   17  C5  UNL     1      20.379   1.239  50.234  1.00  0.00     0.072 A 
HETATM   18  C17 UNL     1      22.281   1.671  51.611  1.00  0.00     0.075 A 
HETATM   19  C4  UNL     1      19.838   0.373  51.194  1.00  0.00     0.107 A 
HETATM   20  C19 UNL     1      20.573   0.203  52.341  1.00  0.00     0.136 A 
HETATM   21  C18 UNL     1      21.776   0.826  52.574  1.00  0.00     0.121 A 
HETATM   22  O2  UNL     1      20.019  -0.654  53.273  1.00  0.00    -0.344 OA
HETATM   23  O3  UNL     1      22.397   0.550  53.783  1.00  0.00    -0.345 OA
HETATM   24  C21 UNL     1      22.140  -0.631  54.496  1.00  0.00     0.202 C 
HETATM   25  C20 UNL     1      20.792  -1.223  54.311  1.00  0.00     0.202 C 
BRANCH  19  26
HETATM   26  O1  UNL     1      18.656  -0.143  50.784  1.00  0.00    -0.344 OA
BRANCH  26  27
HETATM   27  C2  UNL     1      17.528   0.449  50.253  1.00  0.00     0.121 C 
HETATM   28  C1  UNL     1      16.822   1.152  51.431  1.00  0.00     0.040 C 
HETATM   29  C3  UNL     1      16.492  -0.497  49.695  1.00  0.00     0.040 C 
ENDBRANCH  26  27
ENDBRANCH  19  26
ENDBRANCH  10  12
ENDBRANCH   7  10
ENDBRANCH   1   4
TORSDOF 5
ENDMDL
MODEL 2
REMARK VINA RESULT:      -8.1      1.909      3.421
REMARK  5 active torsions:
REMARK  status: ('A' for Active; 'I' for Inactive)
REMARK    1  A    between atoms: C2_2  and  O1_4 
REMARK    2  A    between atoms: O1_4  and  C4_5 
REMARK    3  A    between atoms: C8_11  and  N3_12 
REMARK    4  A    between atoms: N3_12  and  C9_13 
REMARK    5  A    between atoms: C12_16  and  C13_17 
ROOT
HETATM    1  C13 UNL     1      28.881   1.631  53.864  1.00  0.00     0.162 C 
HETATM    2  C14 UNL     1      29.608   0.344  53.799  1.00  0.00     0.063 C 
HETATM    3  N4  UNL     1      30.184  -0.664  53.762  1.00  0.00    -0.197 NA
ENDROOT
BRANCH   1   4
HETATM    4  C12 UNL     1      27.484   1.339  53.405  1.00  0.00    -0.045 A 
HETATM    5  C11 UNL     1      26.518   2.273  53.767  1.00  0.00     0.010 A 
HETATM    6  C10 UNL     1      25.243   1.995  53.349  1.00  0.00     0.030 A 
HETATM    7  C9  UNL     1      24.847   0.914  52.630  1.00  0.00     0.033 A 
HETATM    8  C16 UNL     1      25.860   0.034  52.311  1.00  0.00     0.030 A 
HETATM    9  C15 UNL     1      27.172   0.214  52.677  1.00  0.00     0.010 A 
BRANCH   7  10
HETATM   10  N3  UNL     1      23.492   0.697  52.253  1.00  0.00    -0.340 N 
HETATM   11  H10 UNL     1      23.186   1.117  51.328  1.00  0.00     0.167 HD
BRANCH  10  12
HETATM   12  C8  UNL     1      22.536  -0.026  53.014  1.00  0.00     0.144 A 
HETATM   13  N2  UNL     1      23.005  -0.621  54.122  1.00  0.00    -0.223 NA
HETATM   14  C7  UNL     1      22.149  -1.326  54.920  1.00  0.00     0.236 A 
HETATM   15  N1  UNL     1      20.828  -1.433  54.608  1.00  0.00    -0.241 NA
HETATM   16  C6  UNL     1      20.329  -0.860  53.523  1.00  0.00     0.077 A 
HETATM   17  C5  UNL     1      18.982  -0.922  53.143  1.00  0.00     0.072 A 
HETATM   18  C17 UNL     1      21.205  -0.153  52.729  1.00  0.00     0.075 A 
HETATM   19  C4  UNL     1      18.511  -0.287  51.986  1.00  0.00     0.107 A 
HETATM   20  C19 UNL     1      19.443   0.397  51.246  1.00  0.00     0.136 A 
HETATM   21  C18 UNL     1      20.773   0.481  51.585  1.00  0.00     0.121 A 
HETATM   22  O2  UNL     1      18.955   1.012  50.109  1.00  0.00    -0.344 OA
HETATM   23  O3  UNL     1      21.589   1.210  50.734  1.00  0.00    -0.345 OA
HETATM   24  C21 UNL     1      21.078   2.215  49.898  1.00  0.00     0.202 C 
HETATM   25  C20 UNL     1      19.672   2.042  49.455  1.00  0.00     0.202 C 
BRANCH  19  26
HETATM   26  O1  UNL     1      17.182  -0.482  51.823  1.00  0.00    -0.344 OA
BRANCH  26  27
HETATM   27  C2  UNL     1      16.184  -0.814  52.716  1.00  0.00     0.121 C 
HETATM   28  C1  UNL     1      15.564  -2.126  52.193  1.00  0.00     0.040 C 
HETATM   29  C3  UNL     1      15.025   0.153  52.793  1.00  0.00     0.040 C 
ENDBRANCH  26  27
ENDBRANCH  19  26
ENDBRANCH  10  12
ENDBRANCH   7  10
ENDBRANCH   1   4
TORSDOF 5
ENDMDL
MODEL 3
REMARK VINA RESULT:      -8.1      3.549      5.767
REMARK  5 active torsions:
REMARK  status: ('A' for Active; 'I' for Inactive)
REMARK    1  A    between atoms: C2_2  and  O1_4 
REMARK    2  A    between atoms: O1_4  and  C4_5 
REMARK    3  A    between atoms: C8_11  and  N3_12 
REMARK    4  A    between atoms: N3_12  and  C9_13 
REMARK    5  A    between atoms: C12_16  and  C13_17 
ROOT
HETATM    1  C13 UNL     1      28.619   7.188  47.313  1.00  0.00     0.162 C 
HETATM    2  C14 UNL     1      29.423   8.066  48.191  1.00  0.00     0.063 C 
HETATM    3  N4  UNL     1      30.050   8.768  48.872  1.00  0.00    -0.197 NA
ENDROOT
BRANCH   1   4
HETATM    4  C12 UNL     1      27.706   6.420  48.220  1.00  0.00    -0.045 A 
HETATM    5  C11 UNL     1      26.713   7.161  48.854  1.00  0.00     0.010 A 
HETATM    6  C10 UNL     1      25.888   6.452  49.686  1.00  0.00     0.030 A 
HETATM    7  C9  UNL     1      25.952   5.120  49.943  1.00  0.00     0.033 A 
HETATM    8  C16 UNL     1      26.961   4.455  49.279  1.00  0.00     0.030 A 
HETATM    9  C15 UNL     1      27.844   5.065  48.422  1.00  0.00     0.010 A 
BRANCH   7  10
HETATM   10  N3  UNL     1      25.059   4.468  50.839  1.00  0.00    -0.340 N 
HETATM   11  H10 UNL     1      25.298   4.525  51.870  1.00  0.00     0.167 HD
BRANCH  10  12
HETATM   12  C8  UNL     1      23.892   3.754  50.456  1.00  0.00     0.144 A 
HETATM   13  N2  UNL     1      23.202   4.277  49.430  1.00  0.00    -0.223 NA
HETATM   14  C7  UNL     1      22.074   3.646  48.988  1.00  0.00     0.236 A 
HETATM   15  N1  UNL     1      21.639   2.496  49.574  1.00  0.00    -0.241 NA
HETATM   16  C6  UNL     1      22.293   1.951  50.590  1.00  0.00     0.077 A 
HETATM   17  C5  UNL     1      21.910   0.769  51.236  1.00  0.00     0.072 A 
HETATM   18  C17 UNL     1      23.428   2.600  51.022  1.00  0.00     0.075 A 
HETATM   19  C4  UNL     1      22.648   0.237  52.302  1.00  0.00     0.107 A 
HETATM   20  C19 UNL     1      23.765   0.940  52.677  1.00  0.00     0.136 A 
HETATM   21  C18 UNL     1      24.175   2.102  52.068  1.00  0.00     0.121 A 
HETATM   22  O2  UNL     1      24.475   0.397  53.731  1.00  0.00    -0.344 OA
HETATM   23  O3  UNL     1      25.327   2.694  52.563  1.00  0.00    -0.345 OA
HETATM   24  C21 UNL     1      26.302   1.956  53.251  1.00  0.00     0.202 C 
HETATM   25  C20 UNL     1      25.815   0.766  53.993  1.00  0.00     0.202 C 
BRANCH  19  26
HETATM   26  O1  UNL     1      22.091  -0.905  52.765  1.00  0.00    -0.344 OA
BRANCH  26  27
HETATM   27  C2  UNL     1      21.426  -1.195  53.939  1.00  0.00     0.121 C 
HETATM   28  C1  UNL     1      20.768   0.125  54.393  1.00  0.00     0.040 C 
HETATM   29  C3  UNL     1      22.298  -1.607  55.102  1.00  0.00     0.040 C 
ENDBRANCH  26  27
ENDBRANCH  19  26
ENDBRANCH  10  12
ENDBRANCH   7  10
ENDBRANCH   1   4
TORSDOF 5
ENDMDL
MODEL 4
REMARK VINA RESULT:      -8.0      3.864      6.299
REMARK  5 active torsions:
REMARK  status: ('A' for Active; 'I' for Inactive)
REMARK    1  A    between atoms: C2_2  and  O1_4 
REMARK    2  A    between atoms: O1_4  and  C4_5 
REMARK    3  A    between atoms: C8_11  and  N3_12 
REMARK    4  A    between atoms: N3_12  and  C9_13 
REMARK    5  A    between atoms: C12_16  and  C13_17 
ROOT
HETATM    1  C13 UNL     1      27.723   8.904  48.678  1.00  0.00     0.162 C 
HETATM    2  C14 UNL     1      29.175   8.876  48.959  1.00  0.00     0.063 C 
HETATM    3  N4  UNL     1      30.314   8.865  49.190  1.00  0.00    -0.197 NA
ENDROOT
BRANCH   1   4
HETATM    4  C12 UNL     1      27.228   7.510  48.920  1.00  0.00    -0.045 A 
HETATM    5  C11 UNL     1      27.973   6.490  48.335  1.00  0.00     0.010 A 
HETATM    6  C10 UNL     1      27.509   5.220  48.556  1.00  0.00     0.030 A 
HETATM    7  C9  UNL     1      26.412   4.876  49.277  1.00  0.00     0.033 A 
HETATM    8  C16 UNL     1      25.727   5.940  49.825  1.00  0.00     0.030 A 
HETATM    9  C15 UNL     1      26.102   7.252  49.668  1.00  0.00     0.010 A 
BRANCH   7  10
HETATM   10  N3  UNL     1      25.993   3.525  49.441  1.00  0.00    -0.340 N 
HETATM   11  H10 UNL     1      25.687   3.015  48.563  1.00  0.00     0.167 HD
BRANCH  10  12
HETATM   12  C8  UNL     1      25.955   2.824  50.675  1.00  0.00     0.144 A 
HETATM   13  N2  UNL     1      27.135   2.683  51.300  1.00  0.00    -0.223 NA
HETATM   14  C7  UNL     1      27.186   2.033  52.500  1.00  0.00     0.236 A 
HETATM   15  N1  UNL     1      26.058   1.527  53.072  1.00  0.00    -0.241 NA
HETATM   16  C6  UNL     1      24.876   1.645  52.485  1.00  0.00     0.077 A 
HETATM   17  C5  UNL     1      23.676   1.157  53.015  1.00  0.00     0.072 A 
HETATM   18  C17 UNL     1      24.842   2.303  51.275  1.00  0.00     0.075 A 
HETATM   19  C4  UNL     1      22.453   1.321  52.349  1.00  0.00     0.107 A 
HETATM   20  C19 UNL     1      22.499   1.985  51.149  1.00  0.00     0.136 A 
HETATM   21  C18 UNL     1      23.657   2.480  50.596  1.00  0.00     0.121 A 
HETATM   22  O2  UNL     1      21.283   2.133  50.511  1.00  0.00    -0.344 OA
HETATM   23  O3  UNL     1      23.538   3.128  49.376  1.00  0.00    -0.345 OA
HETATM   24  C21 UNL     1      22.331   3.714  48.963  1.00  0.00     0.202 C 
HETATM   25  C20 UNL     1      21.091   3.090  49.487  1.00  0.00     0.202 C 
BRANCH  19  26
HETATM   26  O1  UNL     1      21.433   0.772  53.048  1.00  0.00    -0.344 OA
BRANCH  26  27
HETATM   27  C2  UNL     1      21.184  -0.526  53.446  1.00  0.00     0.121 C 
HETATM   28  C1  UNL     1      19.650  -0.689  53.428  1.00  0.00     0.040 C 
HETATM   29  C3  UNL     1      21.589  -0.868  54.860  1.00  0.00     0.040 C 
ENDBRANCH  26  27
ENDBRANCH  19  26
ENDBRANCH  10  12
ENDBRANCH   7  10
ENDBRANCH   1   4
TORSDOF 5
ENDMDL
MODEL 5
REMARK VINA RESULT:      -8.0      1.790      3.056
REMARK  5 active torsions:
REMARK  status: ('A' for Active; 'I' for Inactive)
REMARK    1  A    between atoms: C2_2  and  O1_4 
REMARK    2  A    between atoms: O1_4  and  C4_5 
REMARK    3  A    between atoms: C8_11  and  N3_12 
REMARK    4  A    between atoms: N3_12  and  C9_13 
REMARK    5  A    between atoms: C12_16  and  C13_17 
ROOT
HETATM    1  C13 UNL     1      29.290  -0.467  53.474  1.00  0.00     0.162 C 
HETATM    2  C14 UNL     1      29.256  -1.945  53.492  1.00  0.00     0.063 C 
HETATM    3  N4  UNL     1      29.238  -3.107  53.520  1.00  0.00    -0.197 NA
ENDROOT
BRANCH   1   4
HETATM    4  C12 UNL     1      27.861  -0.021  53.388  1.00  0.00    -0.045 A 
HETATM    5  C11 UNL     1      27.351   0.606  54.521  1.00  0.00     0.010 A 
HETATM    6  C10 UNL     1      26.042   1.003  54.436  1.00  0.00     0.030 A 
HETATM    7  C9  UNL     1      25.218   0.843  53.370  1.00  0.00     0.033 A 
HETATM    8  C16 UNL     1      25.795   0.214  52.287  1.00  0.00     0.030 A 
HETATM    9  C15 UNL     1      27.096  -0.225  52.262  1.00  0.00     0.010 A 
BRANCH   7  10
HETATM   10  N3  UNL     1      23.861   1.274  53.377  1.00  0.00    -0.340 N 
HETATM   11  H10 UNL     1      23.696   2.317  53.274  1.00  0.00     0.167 HD
BRANCH  10  12
HETATM   12  C8  UNL     1      22.732   0.424  53.513  1.00  0.00     0.144 A 
HETATM   13  N2  UNL     1      22.906  -0.650  54.301  1.00  0.00    -0.223 NA
HETATM   14  C7  UNL     1      21.866  -1.513  54.498  1.00  0.00     0.236 A 
HETATM   15  N1  UNL     1      20.657  -1.302  53.908  1.00  0.00    -0.241 NA
HETATM   16  C6  UNL     1      20.449  -0.255  53.123  1.00  0.00     0.077 A 
HETATM   17  C5  UNL     1      19.233   0.031  52.489  1.00  0.00     0.072 A 
HETATM   18  C17 UNL     1      21.507   0.606  52.935  1.00  0.00     0.075 A 
HETATM   19  C4  UNL     1      19.071   1.161  51.677  1.00  0.00     0.107 A 
HETATM   20  C19 UNL     1      20.170   1.970  51.536  1.00  0.00     0.136 A 
HETATM   21  C18 UNL     1      21.380   1.725  52.141  1.00  0.00     0.121 A 
HETATM   22  O2  UNL     1      19.987   3.076  50.728  1.00  0.00    -0.344 OA
HETATM   23  O3  UNL     1      22.395   2.639  51.901  1.00  0.00    -0.345 OA
HETATM   24  C21 UNL     1      22.125   3.964  51.526  1.00  0.00     0.202 C 
HETATM   25  C20 UNL     1      20.864   4.185  50.774  1.00  0.00     0.202 C 
BRANCH  19  26
HETATM   26  O1  UNL     1      17.817   1.231  51.174  1.00  0.00    -0.344 OA
BRANCH  26  27
HETATM   27  C2  UNL     1      17.295   0.871  49.948  1.00  0.00     0.121 C 
HETATM   28  C1  UNL     1      16.434   2.064  49.485  1.00  0.00     0.040 C 
HETATM   29  C3  UNL     1      16.346  -0.304  49.959  1.00  0.00     0.040 C 
ENDBRANCH  26  27
ENDBRANCH  19  26
ENDBRANCH  10  12
ENDBRANCH   7  10
ENDBRANCH   1   4
TORSDOF 5
ENDMDL
MODEL 6
REMARK VINA RESULT:      -7.9      3.030      8.006
REMARK  5 active torsions:
REMARK  status: ('A' for Active; 'I' for Inactive)
REMARK    1  A    between atoms: C2_2  and  O1_4 
REMARK    2  A    between atoms: O1_4  and  C4_5 
REMARK    3  A    between atoms: C8_11  and  N3_12 
REMARK    4  A    between atoms: N3_12  and  C9_13 
REMARK    5  A    between atoms: C12_16  and  C13_17 
ROOT
HETATM    1  C13 UNL     1      19.905   3.135  46.929  1.00  0.00     0.162 C 
HETATM    2  C14 UNL     1      21.018   3.586  46.064  1.00  0.00     0.063 C 
HETATM    3  N4  UNL     1      21.883   3.952  45.380  1.00  0.00    -0.197 NA
ENDROOT
BRANCH   1   4
HETATM    4  C12 UNL     1      20.491   2.956  48.297  1.00  0.00    -0.045 A 
HETATM    5  C11 UNL     1      20.429   4.065  49.135  1.00  0.00     0.010 A 
HETATM    6  C10 UNL     1      20.973   3.895  50.380  1.00  0.00     0.030 A 
HETATM    7  C9  UNL     1      21.556   2.766  50.859  1.00  0.00     0.033 A 
HETATM    8  C16 UNL     1      21.579   1.711  49.971  1.00  0.00     0.030 A 
HETATM    9  C15 UNL     1      21.063   1.771  48.700  1.00  0.00     0.010 A 
BRANCH   7  10
HETATM   10  N3  UNL     1      22.112   2.684  52.167  1.00  0.00    -0.340 N 
HETATM   11  H10 UNL     1      22.194   3.595  52.703  1.00  0.00     0.167 HD
BRANCH  10  12
HETATM   12  C8  UNL     1      22.559   1.490  52.793  1.00  0.00     0.144 A 
HETATM   13  N2  UNL     1      21.609   0.760  53.397  1.00  0.00    -0.223 NA
HETATM   14  C7  UNL     1      21.951  -0.411  54.012  1.00  0.00     0.236 A 
HETATM   15  N1  UNL     1      23.241  -0.848  54.021  1.00  0.00    -0.241 NA
HETATM   16  C6  UNL     1      24.206  -0.153  53.436  1.00  0.00     0.077 A 
HETATM   17  C5  UNL     1      25.551  -0.542  53.398  1.00  0.00     0.072 A 
HETATM   18  C17 UNL     1      23.844   1.024  52.820  1.00  0.00     0.075 A 
HETATM   19  C4  UNL     1      26.526   0.232  52.756  1.00  0.00     0.107 A 
HETATM   20  C19 UNL     1      26.090   1.392  52.167  1.00  0.00     0.136 A 
HETATM   21  C18 UNL     1      24.780   1.808  52.181  1.00  0.00     0.121 A 
HETATM   22  O2  UNL     1      27.070   2.139  51.542  1.00  0.00    -0.344 OA
HETATM   23  O3  UNL     1      24.498   3.005  51.540  1.00  0.00    -0.345 OA
HETATM   24  C21 UNL     1      25.317   3.509  50.517  1.00  0.00     0.202 C 
HETATM   25  C20 UNL     1      26.751   3.135  50.589  1.00  0.00     0.202 C 
BRANCH  19  26
HETATM   26  O1  UNL     1      27.749  -0.340  52.847  1.00  0.00    -0.344 OA
BRANCH  26  27
HETATM   27  C2  UNL     1      28.621  -0.484  53.907  1.00  0.00     0.121 C 
HETATM   28  C1  UNL     1      28.932   0.944  54.400  1.00  0.00     0.040 C 
HETATM   29  C3  UNL     1      29.970  -1.075  53.571  1.00  0.00     0.040 C 
ENDBRANCH  26  27
ENDBRANCH  19  26
ENDBRANCH  10  12
ENDBRANCH   7  10
ENDBRANCH   1   4
TORSDOF 5
ENDMDL
MODEL 7
REMARK VINA RESULT:      -7.8      2.543      4.041
REMARK  5 active torsions:
REMARK  status: ('A' for Active; 'I' for Inactive)
REMARK    1  A    between atoms: C2_2  and  O1_4 
REMARK    2  A    between atoms: O1_4  and  C4_5 
REMARK    3  A    between atoms: C8_11  and  N3_12 
REMARK    4  A    between atoms: N3_12  and  C9_13 
REMARK    5  A    between atoms: C12_16  and  C13_17 
ROOT
HETATM    1  C13 UNL     1      29.639  -0.511  53.478  1.00  0.00     0.162 C 
HETATM    2  C14 UNL     1      29.347  -1.961  53.472  1.00  0.00     0.063 C 
HETATM    3  N4  UNL     1      29.127  -3.102  53.480  1.00  0.00    -0.197 NA
ENDROOT
BRANCH   1   4
HETATM    4  C12 UNL     1      28.310   0.179  53.409  1.00  0.00    -0.045 A 
HETATM    5  C11 UNL     1      27.247  -0.595  52.954  1.00  0.00     0.010 A 
HETATM    6  C10 UNL     1      26.037   0.045  52.887  1.00  0.00     0.030 A 
HETATM    7  C9  UNL     1      25.790   1.338  53.219  1.00  0.00     0.033 A 
HETATM    8  C16 UNL     1      26.892   2.039  53.662  1.00  0.00     0.030 A 
HETATM    9  C15 UNL     1      28.150   1.498  53.768  1.00  0.00     0.010 A 
BRANCH   7  10
HETATM   10  N3  UNL     1      24.498   1.927  53.103  1.00  0.00    -0.340 N 
HETATM   11  H10 UNL     1      24.399   2.922  53.455  1.00  0.00     0.167 HD
BRANCH  10  12
HETATM   12  C8  UNL     1      23.353   1.286  52.561  1.00  0.00     0.144 A 
HETATM   13  N2  UNL     1      22.784   0.354  53.343  1.00  0.00    -0.223 NA
HETATM   14  C7  UNL     1      21.669  -0.301  52.904  1.00  0.00     0.236 A 
HETATM   15  N1  UNL     1      21.127  -0.024  51.686  1.00  0.00    -0.241 NA
HETATM   16  C6  UNL     1      21.661   0.887  50.886  1.00  0.00     0.077 A 
HETATM   17  C5  UNL     1      21.155   1.229  49.626  1.00  0.00     0.072 A 
HETATM   18  C17 UNL     1      22.784   1.539  51.344  1.00  0.00     0.075 A 
HETATM   19  C4  UNL     1      21.761   2.210  48.828  1.00  0.00     0.107 A 
HETATM   20  C19 UNL     1      22.876   2.814  49.351  1.00  0.00     0.136 A 
HETATM   21  C18 UNL     1      23.403   2.507  50.583  1.00  0.00     0.121 A 
HETATM   22  O2  UNL     1      23.457   3.775  48.545  1.00  0.00    -0.344 OA
HETATM   23  O3  UNL     1      24.535   3.208  50.970  1.00  0.00    -0.345 OA
HETATM   24  C21 UNL     1      24.842   4.471  50.442  1.00  0.00     0.202 C 
HETATM   25  C20 UNL     1      24.356   4.736  49.064  1.00  0.00     0.202 C 
BRANCH  19  26
HETATM   26  O1  UNL     1      21.100   2.371  47.659  1.00  0.00    -0.344 OA
BRANCH  26  27
HETATM   27  C2  UNL     1      20.117   3.259  47.271  1.00  0.00     0.121 C 
HETATM   28  C1  UNL     1      20.622   3.910  45.967  1.00  0.00     0.040 C 
HETATM   29  C3  UNL     1      19.874   4.417  48.209  1.00  0.00     0.040 C 
ENDBRANCH  26  27
ENDBRANCH  19  26
ENDBRANCH  10  12
ENDBRANCH   7  10
ENDBRANCH   1   4
TORSDOF 5
ENDMDL
MODEL 8
REMARK VINA RESULT:      -7.7      2.704      8.334
REMARK  5 active torsions:
REMARK  status: ('A' for Active; 'I' for Inactive)
REMARK    1  A    between atoms: C2_2  and  O1_4 
REMARK    2  A    between atoms: O1_4  and  C4_5 
REMARK    3  A    between atoms: C8_11  and  N3_12 
REMARK    4  A    between atoms: N3_12  and  C9_13 
REMARK    5  A    between atoms: C12_16  and  C13_17 
ROOT
HETATM    1  C13 UNL     1      17.554   2.790  48.584  1.00  0.00     0.162 C 
HETATM    2  C14 UNL     1      16.615   1.721  48.988  1.00  0.00     0.063 C 
HETATM    3  N4  UNL     1      15.877   0.876  49.291  1.00  0.00    -0.197 NA
ENDROOT
BRANCH   1   4
HETATM    4  C12 UNL     1      18.726   2.684  49.512  1.00  0.00    -0.045 A 
HETATM    5  C11 UNL     1      18.590   3.327  50.739  1.00  0.00     0.010 A 
HETATM    6  C10 UNL     1      19.668   3.231  51.578  1.00  0.00     0.030 A 
HETATM    7  C9  UNL     1      20.832   2.579  51.325  1.00  0.00     0.033 A 
HETATM    8  C16 UNL     1      20.891   1.967  50.090  1.00  0.00     0.030 A 
HETATM    9  C15 UNL     1      19.870   1.999  49.172  1.00  0.00     0.010 A 
BRANCH   7  10
HETATM   10  N3  UNL     1      21.911   2.544  52.253  1.00  0.00    -0.340 N 
HETATM   11  H10 UNL     1      22.374   3.472  52.474  1.00  0.00     0.167 HD
BRANCH  10  12
HETATM   12  C8  UNL     1      22.403   1.376  52.892  1.00  0.00     0.144 A 
HETATM   13  N2  UNL     1      21.499   0.670  53.589  1.00  0.00    -0.223 NA
HETATM   14  C7  UNL     1      21.886  -0.477  54.224  1.00  0.00     0.236 A 
HETATM   15  N1  UNL     1      23.175  -0.913  54.159  1.00  0.00    -0.241 NA
HETATM   16  C6  UNL     1      24.095  -0.242  53.482  1.00  0.00     0.077 A 
HETATM   17  C5  UNL     1      25.435  -0.632  53.367  1.00  0.00     0.072 A 
HETATM   18  C17 UNL     1      23.688   0.911  52.848  1.00  0.00     0.075 A 
HETATM   19  C4  UNL     1      26.361   0.116  52.628  1.00  0.00     0.107 A 
HETATM   20  C19 UNL     1      25.883   1.253  52.026  1.00  0.00     0.136 A 
HETATM   21  C18 UNL     1      24.575   1.669  52.116  1.00  0.00     0.121 A 
HETATM   22  O2  UNL     1      26.815   1.975  51.306  1.00  0.00    -0.344 OA
HETATM   23  O3  UNL     1      24.246   2.840  51.450  1.00  0.00    -0.345 OA
HETATM   24  C21 UNL     1      24.991   3.304  50.354  1.00  0.00     0.202 C 
HETATM   25  C20 UNL     1      26.428   2.933  50.340  1.00  0.00     0.202 C 
BRANCH  19  26
HETATM   26  O1  UNL     1      27.589  -0.452  52.657  1.00  0.00    -0.344 OA
BRANCH  26  27
HETATM   27  C2  UNL     1      28.521  -0.581  53.666  1.00  0.00     0.121 C 
HETATM   28  C1  UNL     1      29.246   0.778  53.752  1.00  0.00     0.040 C 
HETATM   29  C3  UNL     1      29.620  -1.587  53.419  1.00  0.00     0.040 C 
ENDBRANCH  26  27
ENDBRANCH  19  26
ENDBRANCH  10  12
ENDBRANCH   7  10
ENDBRANCH   1   4
TORSDOF 5
ENDMDL
MODEL 9
REMARK VINA RESULT:      -7.3      3.411      8.267
REMARK  5 active torsions:
REMARK  status: ('A' for Active; 'I' for Inactive)
REMARK    1  A    between atoms: C2_2  and  O1_4 
REMARK    2  A    between atoms: O1_4  and  C4_5 
REMARK    3  A    between atoms: C8_11  and  N3_12 
REMARK    4  A    between atoms: N3_12  and  C9_13 
REMARK    5  A    between atoms: C12_16  and  C13_17 
ROOT
HETATM    1  C13 UNL     1      20.130   8.882  49.591  1.00  0.00     0.162 C 
HETATM    2  C14 UNL     1      20.756   9.624  48.474  1.00  0.00     0.063 C 
HETATM    3  N4  UNL     1      21.248  10.219  47.606  1.00  0.00    -0.197 NA
ENDROOT
BRANCH   1   4
HETATM    4  C12 UNL     1      20.890   7.596  49.709  1.00  0.00    -0.045 A 
HETATM    5  C11 UNL     1      20.842   6.757  48.599  1.00  0.00     0.010 A 
HETATM    6  C10 UNL     1      21.533   5.580  48.718  1.00  0.00     0.030 A 
HETATM    7  C9  UNL     1      22.245   5.169  49.799  1.00  0.00     0.033 A 
HETATM    8  C16 UNL     1      22.246   6.053  50.857  1.00  0.00     0.030 A 
HETATM    9  C15 UNL     1      21.588   7.258  50.846  1.00  0.00     0.010 A 
BRANCH   7  10
HETATM   10  N3  UNL     1      22.922   3.917  49.840  1.00  0.00    -0.340 N 
HETATM   11  H10 UNL     1      22.315   3.049  49.778  1.00  0.00     0.167 HD
BRANCH  10  12
HETATM   12  C8  UNL     1      24.327   3.750  49.961  1.00  0.00     0.144 A 
HETATM   13  N2  UNL     1      25.077   4.618  49.264  1.00  0.00    -0.223 NA
HETATM   14  C7  UNL     1      26.439   4.537  49.335  1.00  0.00     0.236 A 
HETATM   15  N1  UNL     1      27.046   3.589  50.102  1.00  0.00    -0.241 NA
HETATM   16  C6  UNL     1      26.339   2.715  50.802  1.00  0.00     0.077 A 
HETATM   17  C5  UNL     1      26.893   1.719  51.616  1.00  0.00     0.072 A 
HETATM   18  C17 UNL     1      24.967   2.811  50.720  1.00  0.00     0.075 A 
HETATM   19  C4  UNL     1      26.091   0.827  52.341  1.00  0.00     0.107 A 
HETATM   20  C19 UNL     1      24.734   0.983  52.208  1.00  0.00     0.136 A 
HETATM   21  C18 UNL     1      24.152   1.948  51.420  1.00  0.00     0.121 A 
HETATM   22  O2  UNL     1      23.965   0.091  52.930  1.00  0.00    -0.344 OA
HETATM   23  O3  UNL     1      22.766   1.977  51.391  1.00  0.00    -0.345 OA
HETATM   24  C21 UNL     1      21.992   1.455  52.438  1.00  0.00     0.202 C 
HETATM   25  C20 UNL     1      22.599   0.337  53.203  1.00  0.00     0.202 C 
BRANCH  19  26
HETATM   26  O1  UNL     1      26.843  -0.043  53.055  1.00  0.00    -0.344 OA
BRANCH  26  27
HETATM   27  C2  UNL     1      28.184  -0.051  53.377  1.00  0.00     0.121 C 
HETATM   28  C1  UNL     1      28.655  -1.511  53.205  1.00  0.00     0.040 C 
HETATM   29  C3  UNL     1      28.516   0.291  54.811  1.00  0.00     0.040 C 
ENDBRANCH  26  27
ENDBRANCH  19  26
ENDBRANCH  10  12
ENDBRANCH   7  10
ENDBRANCH   1   4
TORSDOF 5
ENDMDL
