MODEL 1
REMARK VINA RESULT:      -8.2      0.000      0.000
REMARK  3 active torsions:
REMARK  status: ('A' for Active; 'I' for Inactive)
REMARK    1  A    between atoms: O1_2  and  C2_3 
REMARK    2  A    between atoms: C4_5  and  O2_6 
REMARK    3  A    between atoms: C9_12  and  O3_13 
ROOT
HETATM    1  C2  UNL     1      27.171  -0.916  53.075  1.00  0.00     0.055 C 
HETATM    2  C3  UNL     1      27.960   0.179  53.098  1.00  0.00     0.070 C 
HETATM    3  C4  UNL     1      27.914   1.604  52.822  1.00  0.00     0.085 C 
HETATM    4  C5  UNL     1      27.054   2.497  52.433  1.00  0.00     0.152 C 
HETATM    5  N1  UNL     1      25.663   2.354  52.100  1.00  0.00    -0.274 NA
HETATM    6  C6  UNL     1      24.811   2.091  53.066  1.00  0.00     0.094 C 
HETATM    7  C7  UNL     1      23.350   1.912  52.884  1.00  0.00     0.089 C 
HETATM    8  C8  UNL     1      22.849   0.616  53.418  1.00  0.00    -0.006 A 
HETATM    9  C9  UNL     1      21.451   0.658  53.491  1.00  0.00     0.073 A 
HETATM   10  C10 UNL     1      20.671  -0.383  53.949  1.00  0.00     0.037 A 
HETATM   11  C11 UNL     1      21.246  -1.553  54.373  1.00  0.00     0.004 A 
HETATM   12  C12 UNL     1      22.645  -1.567  54.290  1.00  0.00     0.016 A 
HETATM   13  C13 UNL     1      23.457  -0.551  53.838  1.00  0.00     0.019 A 
HETATM   14  C14 UNL     1      24.897  -0.770  53.828  1.00  0.00     0.166 C 
HETATM   15  O4  UNL     1      25.167  -0.821  55.051  1.00  0.00    -0.292 OA
HETATM   16  C15 UNL     1      25.755  -0.889  52.635  1.00  0.00     0.148 C 
ENDROOT
BRANCH   1  17
HETATM   17  O1  UNL     1      27.758  -2.129  53.482  1.00  0.00    -0.360 OA
HETATM   18  C1  UNL     1      29.125  -2.339  53.197  1.00  0.00     0.209 C 
ENDBRANCH   1  17
BRANCH   3  19
HETATM   19  O2  UNL     1      29.065   2.363  52.983  1.00  0.00    -0.359 OA
HETATM   20  H5  UNL     1      28.998   3.340  53.243  1.00  0.00     0.217 HD
ENDBRANCH   3  19
BRANCH   9  21
HETATM   21  O3  UNL     1      20.657   1.756  53.108  1.00  0.00    -0.360 OA
HETATM   22  H10 UNL     1      19.815   1.540  52.614  1.00  0.00     0.217 HD
ENDBRANCH   9  21
TORSDOF 3
ENDMDL
MODEL 2
REMARK VINA RESULT:      -7.6      1.790      5.543
REMARK  3 active torsions:
REMARK  status: ('A' for Active; 'I' for Inactive)
REMARK    1  A    between atoms: O1_2  and  C2_3 
REMARK    2  A    between atoms: C4_5  and  O2_6 
REMARK    3  A    between atoms: C9_12  and  O3_13 
ROOT
HETATM    1  C2  UNL     1      22.824  -0.209  53.190  1.00  0.00     0.055 C 
HETATM    2  C3  UNL     1      22.234   0.106  52.016  1.00  0.00     0.070 C 
HETATM    3  C4  UNL     1      22.312   1.083  50.946  1.00  0.00     0.085 C 
HETATM    4  C5  UNL     1      23.024   2.119  50.618  1.00  0.00     0.152 C 
HETATM    5  N1  UNL     1      24.131   2.731  51.301  1.00  0.00    -0.274 NA
HETATM    6  C6  UNL     1      25.273   2.081  51.352  1.00  0.00     0.094 C 
HETATM    7  C7  UNL     1      26.502   2.574  52.020  1.00  0.00     0.089 C 
HETATM    8  C8  UNL     1      27.039   1.624  53.032  1.00  0.00    -0.006 A 
HETATM    9  C9  UNL     1      28.338   2.010  53.382  1.00  0.00     0.073 A 
HETATM   10  C10 UNL     1      29.124   1.337  54.295  1.00  0.00     0.037 A 
HETATM   11  C11 UNL     1      28.655   0.215  54.926  1.00  0.00     0.004 A 
HETATM   12  C12 UNL     1      27.353  -0.150  54.557  1.00  0.00     0.016 A 
HETATM   13  C13 UNL     1      26.539   0.496  53.653  1.00  0.00     0.019 A 
HETATM   14  C14 UNL     1      25.208  -0.046  53.414  1.00  0.00     0.166 C 
HETATM   15  O4  UNL     1      25.462  -1.130  52.837  1.00  0.00    -0.292 OA
HETATM   16  C15 UNL     1      23.927   0.584  53.784  1.00  0.00     0.148 C 
ENDROOT
BRANCH   1  17
HETATM   17  O1  UNL     1      22.333  -1.343  53.862  1.00  0.00    -0.360 OA
HETATM   18  C1  UNL     1      20.948  -1.415  54.129  1.00  0.00     0.209 C 
ENDBRANCH   1  17
BRANCH   3  19
HETATM   19  O2  UNL     1      21.416   1.003  49.888  1.00  0.00    -0.359 OA
HETATM   20  H5  UNL     1      20.772   0.224  49.825  1.00  0.00     0.217 HD
ENDBRANCH   3  19
BRANCH   9  21
HETATM   21  O3  UNL     1      29.015   3.128  52.858  1.00  0.00    -0.360 OA
HETATM   22  H10 UNL     1      29.148   3.896  53.484  1.00  0.00     0.217 HD
ENDBRANCH   9  21
TORSDOF 3
ENDMDL
MODEL 3
REMARK VINA RESULT:      -7.5      3.149      5.346
REMARK  3 active torsions:
REMARK  status: ('A' for Active; 'I' for Inactive)
REMARK    1  A    between atoms: O1_2  and  C2_3 
REMARK    2  A    between atoms: C4_5  and  O2_6 
REMARK    3  A    between atoms: C9_12  and  O3_13 
ROOT
HETATM    1  C2  UNL     1      25.916   4.339  49.690  1.00  0.00     0.055 C 
HETATM    2  C3  UNL     1      25.337   5.464  50.162  1.00  0.00     0.070 C 
HETATM    3  C4  UNL     1      24.253   5.892  51.027  1.00  0.00     0.085 C 
HETATM    4  C5  UNL     1      23.333   5.363  51.777  1.00  0.00     0.152 C 
HETATM    5  N1  UNL     1      23.040   3.980  52.039  1.00  0.00    -0.274 NA
HETATM    6  C6  UNL     1      23.893   3.283  52.757  1.00  0.00     0.094 C 
HETATM    7  C7  UNL     1      23.736   1.852  53.110  1.00  0.00     0.089 C 
HETATM    8  C8  UNL     1      24.901   1.018  52.705  1.00  0.00    -0.006 A 
HETATM    9  C9  UNL     1      24.818  -0.228  53.337  1.00  0.00     0.073 A 
HETATM   10  C10 UNL     1      25.746  -1.236  53.180  1.00  0.00     0.037 A 
HETATM   11  C11 UNL     1      26.837  -1.061  52.370  1.00  0.00     0.004 A 
HETATM   12  C12 UNL     1      26.896   0.195  51.750  1.00  0.00     0.016 A 
HETATM   13  C13 UNL     1      25.991   1.224  51.881  1.00  0.00     0.019 A 
HETATM   14  C14 UNL     1      26.235   2.456  51.143  1.00  0.00     0.166 C 
HETATM   15  O4  UNL     1      27.256   2.908  51.711  1.00  0.00    -0.292 OA
HETATM   16  C15 UNL     1      25.434   2.976  50.020  1.00  0.00     0.148 C 
ENDROOT
BRANCH   1  17
HETATM   17  O1  UNL     1      27.020   4.505  48.834  1.00  0.00    -0.360 OA
HETATM   18  C1  UNL     1      27.445   5.819  48.538  1.00  0.00     0.209 C 
ENDBRANCH   1  17
BRANCH   3  19
HETATM   19  O2  UNL     1      24.016   7.249  51.196  1.00  0.00    -0.359 OA
HETATM   20  H5  UNL     1      24.248   7.902  50.458  1.00  0.00     0.217 HD
ENDBRANCH   3  19
BRANCH   9  21
HETATM   21  O3  UNL     1      23.785  -0.621  54.209  1.00  0.00    -0.360 OA
HETATM   22  H10 UNL     1      23.693  -1.604  54.369  1.00  0.00     0.217 HD
ENDBRANCH   9  21
TORSDOF 3
ENDMDL
MODEL 4
REMARK VINA RESULT:      -7.4      2.794      6.571
REMARK  3 active torsions:
REMARK  status: ('A' for Active; 'I' for Inactive)
REMARK    1  A    between atoms: O1_2  and  C2_3 
REMARK    2  A    between atoms: C4_5  and  O2_6 
REMARK    3  A    between atoms: C9_12  and  O3_13 
ROOT
HETATM    1  C2  UNL     1      20.723   0.337  51.574  1.00  0.00     0.055 C 
HETATM    2  C3  UNL     1      20.694  -0.220  52.804  1.00  0.00     0.070 C 
HETATM    3  C4  UNL     1      21.588  -0.677  53.852  1.00  0.00     0.085 C 
HETATM    4  C5  UNL     1      22.863  -0.741  54.091  1.00  0.00     0.152 C 
HETATM    5  N1  UNL     1      23.974  -0.318  53.283  1.00  0.00    -0.274 NA
HETATM    6  C6  UNL     1      24.168   0.971  53.107  1.00  0.00     0.094 C 
HETATM    7  C7  UNL     1      25.262   1.563  52.301  1.00  0.00     0.089 C 
HETATM    8  C8  UNL     1      24.774   2.488  51.242  1.00  0.00    -0.006 A 
HETATM    9  C9  UNL     1      25.852   3.229  50.744  1.00  0.00     0.073 A 
HETATM   10  C10 UNL     1      25.742   4.183  49.754  1.00  0.00     0.037 A 
HETATM   11  C11 UNL     1      24.526   4.463  49.187  1.00  0.00     0.004 A 
HETATM   12  C12 UNL     1      23.464   3.708  49.703  1.00  0.00     0.016 A 
HETATM   13  C13 UNL     1      23.535   2.749  50.689  1.00  0.00     0.019 A 
HETATM   14  C14 UNL     1      22.307   2.071  51.081  1.00  0.00     0.166 C 
HETATM   15  O4  UNL     1      21.659   2.992  51.633  1.00  0.00    -0.292 OA
HETATM   16  C15 UNL     1      21.980   0.651  50.854  1.00  0.00     0.148 C 
ENDROOT
BRANCH   1  17
HETATM   17  O1  UNL     1      19.481   0.604  50.969  1.00  0.00    -0.360 OA
HETATM   18  C1  UNL     1      18.338  -0.059  51.467  1.00  0.00     0.209 C 
ENDBRANCH   1  17
BRANCH   3  19
HETATM   19  O2  UNL     1      21.051  -1.236  55.005  1.00  0.00    -0.359 OA
HETATM   20  H5  UNL     1      20.236  -0.821  55.439  1.00  0.00     0.217 HD
ENDBRANCH   3  19
BRANCH   9  21
HETATM   21  O3  UNL     1      27.185   3.104  51.181  1.00  0.00    -0.360 OA
HETATM   22  H10 UNL     1      27.319   2.656  52.065  1.00  0.00     0.217 HD
ENDBRANCH   9  21
TORSDOF 3
ENDMDL
MODEL 5
REMARK VINA RESULT:      -7.4      2.165      4.604
REMARK  3 active torsions:
REMARK  status: ('A' for Active; 'I' for Inactive)
REMARK    1  A    between atoms: O1_2  and  C2_3 
REMARK    2  A    between atoms: C4_5  and  O2_6 
REMARK    3  A    between atoms: C9_12  and  O3_13 
ROOT
HETATM    1  C2  UNL     1      23.404   3.487  51.000  1.00  0.00     0.055 C 
HETATM    2  C3  UNL     1      24.533   3.586  50.266  1.00  0.00     0.070 C 
HETATM    3  C4  UNL     1      25.941   3.239  50.319  1.00  0.00     0.085 C 
HETATM    4  C5  UNL     1      26.772   2.639  51.118  1.00  0.00     0.152 C 
HETATM    5  N1  UNL     1      26.540   2.030  52.399  1.00  0.00    -0.274 NA
HETATM    6  C6  UNL     1      25.838   0.919  52.448  1.00  0.00     0.094 C 
HETATM    7  C7  UNL     1      25.511   0.174  53.688  1.00  0.00     0.089 C 
HETATM    8  C8  UNL     1      24.050  -0.050  53.867  1.00  0.00    -0.006 A 
HETATM    9  C9  UNL     1      23.851  -1.006  54.870  1.00  0.00     0.073 A 
HETATM   10  C10 UNL     1      22.610  -1.448  55.280  1.00  0.00     0.037 A 
HETATM   11  C11 UNL     1      21.468  -0.955  54.704  1.00  0.00     0.004 A 
HETATM   12  C12 UNL     1      21.696  -0.000  53.703  1.00  0.00     0.016 A 
HETATM   13  C13 UNL     1      22.917   0.465  53.268  1.00  0.00     0.019 A 
HETATM   14  C14 UNL     1      22.937   1.469  52.213  1.00  0.00     0.166 C 
HETATM   15  O4  UNL     1      22.515   0.824  51.224  1.00  0.00    -0.292 OA
HETATM   16  C15 UNL     1      23.362   2.875  52.349  1.00  0.00     0.148 C 
ENDROOT
BRANCH   1  17
HETATM   17  O1  UNL     1      22.229   4.014  50.431  1.00  0.00    -0.360 OA
HETATM   18  C1  UNL     1      21.258   4.567  51.294  1.00  0.00     0.209 C 
ENDBRANCH   1  17
BRANCH   3  19
HETATM   19  O2  UNL     1      26.767   3.594  49.260  1.00  0.00    -0.359 OA
HETATM   20  H5  UNL     1      27.170   4.522  49.219  1.00  0.00     0.217 HD
ENDBRANCH   3  19
BRANCH   9  21
HETATM   21  O3  UNL     1      24.879  -1.642  55.593  1.00  0.00    -0.360 OA
HETATM   22  H10 UNL     1      25.773  -1.680  55.146  1.00  0.00     0.217 HD
ENDBRANCH   9  21
TORSDOF 3
ENDMDL
MODEL 6
REMARK VINA RESULT:      -7.4      2.523      5.816
REMARK  3 active torsions:
REMARK  status: ('A' for Active; 'I' for Inactive)
REMARK    1  A    between atoms: O1_2  and  C2_3 
REMARK    2  A    between atoms: C4_5  and  O2_6 
REMARK    3  A    between atoms: C9_12  and  O3_13 
ROOT
HETATM    1  C2  UNL     1      22.744   0.463  52.809  1.00  0.00     0.055 C 
HETATM    2  C3  UNL     1      23.471  -0.160  53.761  1.00  0.00     0.070 C 
HETATM    3  C4  UNL     1      24.842  -0.520  54.073  1.00  0.00     0.085 C 
HETATM    4  C5  UNL     1      26.029  -0.381  53.564  1.00  0.00     0.152 C 
HETATM    5  N1  UNL     1      26.441   0.271  52.351  1.00  0.00    -0.274 NA
HETATM    6  C6  UNL     1      26.362   1.581  52.285  1.00  0.00     0.094 C 
HETATM    7  C7  UNL     1      26.744   2.397  51.107  1.00  0.00     0.089 C 
HETATM    8  C8  UNL     1      25.648   3.286  50.631  1.00  0.00    -0.006 A 
HETATM    9  C9  UNL     1      26.174   4.227  49.737  1.00  0.00     0.073 A 
HETATM   10  C10 UNL     1      25.424   5.204  49.116  1.00  0.00     0.037 A 
HETATM   11  C11 UNL     1      24.078   5.307  49.352  1.00  0.00     0.004 A 
HETATM   12  C12 UNL     1      23.579   4.354  50.250  1.00  0.00     0.016 A 
HETATM   13  C13 UNL     1      24.293   3.365  50.888  1.00  0.00     0.019 A 
HETATM   14  C14 UNL     1      23.580   2.467  51.786  1.00  0.00     0.166 C 
HETATM   15  O4  UNL     1      23.258   3.231  52.726  1.00  0.00    -0.292 OA
HETATM   16  C15 UNL     1      23.337   1.028  51.574  1.00  0.00     0.148 C 
ENDROOT
BRANCH   1  17
HETATM   17  O1  UNL     1      21.356   0.551  53.027  1.00  0.00    -0.360 OA
HETATM   18  C1  UNL     1      20.861   0.256  54.316  1.00  0.00     0.209 C 
ENDBRANCH   1  17
BRANCH   3  19
HETATM   19  O2  UNL     1      25.110  -1.228  55.237  1.00  0.00    -0.359 OA
HETATM   20  H5  UNL     1      24.857  -2.206  55.308  1.00  0.00     0.217 HD
ENDBRANCH   3  19
BRANCH   9  21
HETATM   21  O3  UNL     1      27.526   4.304  49.352  1.00  0.00    -0.360 OA
HETATM   22  H10 UNL     1      28.177   3.807  49.925  1.00  0.00     0.217 HD
ENDBRANCH   9  21
TORSDOF 3
ENDMDL
MODEL 7
REMARK VINA RESULT:      -7.3      2.681      4.795
REMARK  3 active torsions:
REMARK  status: ('A' for Active; 'I' for Inactive)
REMARK    1  A    between atoms: O1_2  and  C2_3 
REMARK    2  A    between atoms: C4_5  and  O2_6 
REMARK    3  A    between atoms: C9_12  and  O3_13 
ROOT
HETATM    1  C2  UNL     1      23.697   1.432  52.380  1.00  0.00     0.055 C 
HETATM    2  C3  UNL     1      24.665   0.639  52.888  1.00  0.00     0.070 C 
HETATM    3  C4  UNL     1      24.856  -0.414  53.869  1.00  0.00     0.085 C 
HETATM    4  C5  UNL     1      24.149  -1.102  54.715  1.00  0.00     0.152 C 
HETATM    5  N1  UNL     1      22.742  -1.045  55.001  1.00  0.00    -0.274 NA
HETATM    6  C6  UNL     1      21.898  -1.476  54.090  1.00  0.00     0.094 C 
HETATM    7  C7  UNL     1      20.422  -1.480  54.232  1.00  0.00     0.089 C 
HETATM    8  C8  UNL     1      19.726  -0.763  53.129  1.00  0.00    -0.006 A 
HETATM    9  C9  UNL     1      18.361  -1.073  53.166  1.00  0.00     0.073 A 
HETATM   10  C10 UNL     1      17.432  -0.577  52.276  1.00  0.00     0.037 A 
HETATM   11  C11 UNL     1      17.813   0.276  51.272  1.00  0.00     0.004 A 
HETATM   12  C12 UNL     1      19.183   0.569  51.258  1.00  0.00     0.016 A 
HETATM   13  C13 UNL     1      20.139   0.095  52.127  1.00  0.00     0.019 A 
HETATM   14  C14 UNL     1      21.517   0.529  51.942  1.00  0.00     0.166 C 
HETATM   15  O4  UNL     1      21.826  -0.024  50.859  1.00  0.00    -0.292 OA
HETATM   16  C15 UNL     1      22.291   1.399  52.847  1.00  0.00     0.148 C 
ENDROOT
BRANCH   1  17
HETATM   17  O1  UNL     1      24.081   2.331  51.368  1.00  0.00    -0.360 OA
HETATM   18  C1  UNL     1      23.610   3.661  51.441  1.00  0.00     0.209 C 
ENDBRANCH   1  17
BRANCH   3  19
HETATM   19  O2  UNL     1      26.127  -0.936  54.065  1.00  0.00    -0.359 OA
HETATM   20  H5  UNL     1      26.888  -0.330  54.348  1.00  0.00     0.217 HD
ENDBRANCH   3  19
BRANCH   9  21
HETATM   21  O3  UNL     1      17.755  -1.925  54.109  1.00  0.00    -0.360 OA
HETATM   22  H10 UNL     1      18.260  -2.072  54.960  1.00  0.00     0.217 HD
ENDBRANCH   9  21
TORSDOF 3
ENDMDL
MODEL 8
REMARK VINA RESULT:      -7.2      2.364      6.570
REMARK  3 active torsions:
REMARK  status: ('A' for Active; 'I' for Inactive)
REMARK    1  A    between atoms: O1_2  and  C2_3 
REMARK    2  A    between atoms: C4_5  and  O2_6 
REMARK    3  A    between atoms: C9_12  and  O3_13 
ROOT
HETATM    1  C2  UNL     1      20.718   0.760  51.248  1.00  0.00     0.055 C 
HETATM    2  C3  UNL     1      19.848   0.310  52.178  1.00  0.00     0.070 C 
HETATM    3  C4  UNL     1      19.791  -0.565  53.334  1.00  0.00     0.085 C 
HETATM    4  C5  UNL     1      20.588  -1.321  54.028  1.00  0.00     0.152 C 
HETATM    5  N1  UNL     1      21.992  -1.578  53.861  1.00  0.00    -0.274 NA
HETATM    6  C6  UNL     1      22.843  -0.609  54.116  1.00  0.00     0.094 C 
HETATM    7  C7  UNL     1      24.316  -0.716  53.989  1.00  0.00     0.089 C 
HETATM    8  C8  UNL     1      24.904   0.326  53.102  1.00  0.00    -0.006 A 
HETATM    9  C9  UNL     1      26.292   0.352  53.279  1.00  0.00     0.073 A 
HETATM   10  C10 UNL     1      27.140   1.210  52.609  1.00  0.00     0.037 A 
HETATM   11  C11 UNL     1      26.646   2.114  51.705  1.00  0.00     0.004 A 
HETATM   12  C12 UNL     1      25.254   2.067  51.548  1.00  0.00     0.016 A 
HETATM   13  C13 UNL     1      24.377   1.227  52.197  1.00  0.00     0.019 A 
HETATM   14  C14 UNL     1      22.959   1.336  51.885  1.00  0.00     0.166 C 
HETATM   15  O4  UNL     1      22.669   2.461  52.357  1.00  0.00    -0.292 OA
HETATM   16  C15 UNL     1      22.136   0.331  51.187  1.00  0.00     0.148 C 
ENDROOT
BRANCH   1  17
HETATM   17  O1  UNL     1      20.217   1.668  50.297  1.00  0.00    -0.360 OA
HETATM   18  C1  UNL     1      20.558   1.472  48.940  1.00  0.00     0.209 C 
ENDBRANCH   1  17
BRANCH   3  19
HETATM   19  O2  UNL     1      18.583  -0.737  53.996  1.00  0.00    -0.359 OA
HETATM   20  H5  UNL     1      18.408  -0.256  54.870  1.00  0.00     0.217 HD
ENDBRANCH   3  19
BRANCH   9  21
HETATM   21  O3  UNL     1      27.008  -0.487  54.154  1.00  0.00    -0.360 OA
HETATM   22  H10 UNL     1      27.978  -0.617  53.946  1.00  0.00     0.217 HD
ENDBRANCH   9  21
TORSDOF 3
ENDMDL
MODEL 9
REMARK VINA RESULT:      -6.8      2.539      6.396
REMARK  3 active torsions:
REMARK  status: ('A' for Active; 'I' for Inactive)
REMARK    1  A    between atoms: O1_2  and  C2_3 
REMARK    2  A    between atoms: C4_5  and  O2_6 
REMARK    3  A    between atoms: C9_12  and  O3_13 
ROOT
HETATM    1  C2  UNL     1      22.541   3.882  51.249  1.00  0.00     0.055 C 
HETATM    2  C3  UNL     1      21.243   3.711  51.580  1.00  0.00     0.070 C 
HETATM    3  C4  UNL     1      20.330   2.689  52.059  1.00  0.00     0.085 C 
HETATM    4  C5  UNL     1      20.360   1.439  52.413  1.00  0.00     0.152 C 
HETATM    5  N1  UNL     1      21.465   0.520  52.458  1.00  0.00    -0.274 NA
HETATM    6  C6  UNL     1      22.396   0.703  53.368  1.00  0.00     0.094 C 
HETATM    7  C7  UNL     1      23.595  -0.153  53.540  1.00  0.00     0.089 C 
HETATM    8  C8  UNL     1      24.872   0.612  53.490  1.00  0.00    -0.006 A 
HETATM    9  C9  UNL     1      25.912  -0.197  53.962  1.00  0.00     0.073 A 
HETATM   10  C10 UNL     1      27.226   0.211  54.053  1.00  0.00     0.037 A 
HETATM   11  C11 UNL     1      27.593   1.475  53.673  1.00  0.00     0.004 A 
HETATM   12  C12 UNL     1      26.533   2.264  53.205  1.00  0.00     0.016 A 
HETATM   13  C13 UNL     1      25.211   1.893  53.099  1.00  0.00     0.019 A 
HETATM   14  C14 UNL     1      24.260   2.866  52.580  1.00  0.00     0.166 C 
HETATM   15  O4  UNL     1      24.237   3.727  53.491  1.00  0.00    -0.292 OA
HETATM   16  C15 UNL     1      23.542   2.789  51.295  1.00  0.00     0.148 C 
ENDROOT
BRANCH   1  17
HETATM   17  O1  UNL     1      22.924   5.169  50.830  1.00  0.00    -0.360 OA
HETATM   18  C1  UNL     1      22.021   6.236  51.033  1.00  0.00     0.209 C 
ENDBRANCH   1  17
BRANCH   3  19
HETATM   19  O2  UNL     1      18.990   3.006  52.239  1.00  0.00    -0.359 OA
HETATM   20  H5  UNL     1      18.492   3.530  51.530  1.00  0.00     0.217 HD
ENDBRANCH   3  19
BRANCH   9  21
HETATM   21  O3  UNL     1      25.762  -1.526  54.404  1.00  0.00    -0.360 OA
HETATM   22  H10 UNL     1      25.915  -1.687  55.379  1.00  0.00     0.217 HD
ENDBRANCH   9  21
TORSDOF 3
ENDMDL
