MODEL 1
REMARK VINA RESULT:      -8.5      0.000      0.000
REMARK  4 active torsions:
REMARK  status: ('A' for Active; 'I' for Inactive)
REMARK    1  A    between atoms: N1_2  and  C2_3 
REMARK    2  A    between atoms: N1_2  and  C11_17 
REMARK    3  A    between atoms: C4_8  and  N5_9 
REMARK    4  A    between atoms: N5_9  and  C5_10 
ROOT
HETATM    1  C2  UNL     1      25.887   2.391  51.875  1.00  0.00     0.149 C 
HETATM    2  N2  UNL     1      27.155   2.110  51.820  1.00  0.00    -0.249 NA
HETATM    3  C3  UNL     1      27.790   1.453  52.974  1.00  0.00     0.323 C 
HETATM    4  N3  UNL     1      27.240   2.093  54.146  1.00  0.00    -0.174 NA
HETATM    5  N4  UNL     1      26.049   2.345  54.208  1.00  0.00    -0.162 NA
HETATM    6  C4  UNL     1      25.178   2.011  53.123  1.00  0.00     0.299 C 
ENDROOT
BRANCH   1   7
HETATM    7  N1  UNL     1      25.209   3.016  50.816  1.00  0.00    -0.337 N 
HETATM    8  C1  UNL     1      23.866   2.634  50.403  1.00  0.00     0.158 C 
BRANCH   7   9
HETATM    9  C11 UNL     1      25.809   4.076  50.077  1.00  0.00     0.035 A 
HETATM   10  C12 UNL     1      25.293   5.344  50.082  1.00  0.00     0.031 A 
HETATM   11  C13 UNL     1      25.825   6.403  49.392  1.00  0.00     0.026 A 
HETATM   12  C14 UNL     1      26.956   6.175  48.642  1.00  0.00     0.034 A 
HETATM   13 CL1  UNL     1      27.680   7.488  47.740  1.00  0.00    -0.084 Cl
HETATM   14  C15 UNL     1      27.542   4.922  48.582  1.00  0.00     0.026 A 
HETATM   15  C16 UNL     1      26.940   3.914  49.309  1.00  0.00     0.031 A 
ENDBRANCH   7   9
ENDBRANCH   1   7
BRANCH   6  16
HETATM   16  N5  UNL     1      24.891   0.595  53.057  1.00  0.00    -0.360 N 
HETATM   17  H7  UNL     1      25.594  -0.105  52.669  1.00  0.00     0.162 HD
BRANCH  16  18
HETATM   18  C5  UNL     1      23.677   0.009  53.490  1.00  0.00     0.031 A 
HETATM   19  C6  UNL     1      23.559  -0.892  54.554  1.00  0.00     0.029 A 
HETATM   20  C7  UNL     1      22.352  -1.427  54.928  1.00  0.00     0.004 A 
HETATM   21  C8  UNL     1      21.215  -1.072  54.243  1.00  0.00     0.019 A 
HETATM   22  C9  UNL     1      21.301  -0.175  53.181  1.00  0.00     0.013 A 
HETATM   23 BR1  UNL     1      19.638   0.220  52.330  1.00  0.00    -0.051 Br
HETATM   24  C10 UNL     1      22.529   0.357  52.814  1.00  0.00     0.048 A 
ENDBRANCH  16  18
ENDBRANCH   6  16
TORSDOF 4
ENDMDL
MODEL 2
REMARK VINA RESULT:      -8.3      3.751      5.543
REMARK  4 active torsions:
REMARK  status: ('A' for Active; 'I' for Inactive)
REMARK    1  A    between atoms: N1_2  and  C2_3 
REMARK    2  A    between atoms: N1_2  and  C11_17 
REMARK    3  A    between atoms: C4_8  and  N5_9 
REMARK    4  A    between atoms: N5_9  and  C5_10 
ROOT
HETATM    1  C2  UNL     1      23.630   1.033  52.952  1.00  0.00     0.149 C 
HETATM    2  N2  UNL     1      24.018   2.270  53.030  1.00  0.00    -0.249 NA
HETATM    3  C3  UNL     1      23.353   3.281  52.191  1.00  0.00     0.323 C 
HETATM    4  N3  UNL     1      23.164   2.661  50.900  1.00  0.00    -0.174 NA
HETATM    5  N4  UNL     1      22.785   1.504  50.823  1.00  0.00    -0.162 NA
HETATM    6  C4  UNL     1      22.523   0.744  52.006  1.00  0.00     0.299 C 
ENDROOT
BRANCH   1   7
HETATM    7  N1  UNL     1      24.214   0.012  53.719  1.00  0.00    -0.337 N 
HETATM    8  C1  UNL     1      23.435  -0.897  54.550  1.00  0.00     0.158 C 
BRANCH   7   9
HETATM    9  C11 UNL     1      25.623  -0.195  53.726  1.00  0.00     0.035 A 
HETATM   10  C12 UNL     1      26.251  -0.941  52.765  1.00  0.00     0.031 A 
HETATM   11  C13 UNL     1      27.601  -1.174  52.720  1.00  0.00     0.026 A 
HETATM   12  C14 UNL     1      28.380  -0.620  53.709  1.00  0.00     0.034 A 
HETATM   13 CL1  UNL     1      30.109  -0.883  53.703  1.00  0.00    -0.084 Cl
HETATM   14  C15 UNL     1      27.826   0.148  54.718  1.00  0.00     0.026 A 
HETATM   15  C16 UNL     1      26.458   0.333  54.686  1.00  0.00     0.031 A 
ENDBRANCH   7   9
ENDBRANCH   1   7
BRANCH   6  16
HETATM   16  N5  UNL     1      21.283   1.124  52.645  1.00  0.00    -0.360 N 
HETATM   17  H7  UNL     1      21.193   2.019  53.217  1.00  0.00     0.162 HD
BRANCH  16  18
HETATM   18  C5  UNL     1      20.089   0.364  52.579  1.00  0.00     0.031 A 
HETATM   19  C6  UNL     1      19.665  -0.545  53.555  1.00  0.00     0.029 A 
HETATM   20  C7  UNL     1      18.496  -1.253  53.434  1.00  0.00     0.004 A 
HETATM   21  C8  UNL     1      17.708  -1.071  52.323  1.00  0.00     0.019 A 
HETATM   22  C9  UNL     1      18.104  -0.173  51.336  1.00  0.00     0.013 A 
HETATM   23 BR1  UNL     1      16.906  -0.030  49.857  1.00  0.00    -0.051 Br
HETATM   24  C10 UNL     1      19.290   0.536  51.472  1.00  0.00     0.048 A 
ENDBRANCH  16  18
ENDBRANCH   6  16
TORSDOF 4
ENDMDL
MODEL 3
REMARK VINA RESULT:      -8.3      2.276      3.274
REMARK  4 active torsions:
REMARK  status: ('A' for Active; 'I' for Inactive)
REMARK    1  A    between atoms: N1_2  and  C2_3 
REMARK    2  A    between atoms: N1_2  and  C11_17 
REMARK    3  A    between atoms: C4_8  and  N5_9 
REMARK    4  A    between atoms: N5_9  and  C5_10 
ROOT
HETATM    1  C2  UNL     1      26.188   2.366  52.078  1.00  0.00     0.149 C 
HETATM    2  N2  UNL     1      27.433   2.014  51.965  1.00  0.00    -0.249 NA
HETATM    3  C3  UNL     1      28.048   1.215  53.039  1.00  0.00     0.323 C 
HETATM    4  N3  UNL     1      27.563   1.776  54.278  1.00  0.00    -0.174 NA
HETATM    5  N4  UNL     1      26.391   2.094  54.391  1.00  0.00    -0.162 NA
HETATM    6  C4  UNL     1      25.480   1.917  53.303  1.00  0.00     0.299 C 
ENDROOT
BRANCH   1   7
HETATM    7  N1  UNL     1      25.531   3.127  51.097  1.00  0.00    -0.337 N 
HETATM    8  C1  UNL     1      26.226   3.733  49.969  1.00  0.00     0.158 C 
BRANCH   7   9
HETATM    9  C11 UNL     1      24.125   3.350  51.152  1.00  0.00     0.035 A 
HETATM   10  C12 UNL     1      23.255   2.697  50.322  1.00  0.00     0.031 A 
HETATM   11  C13 UNL     1      21.895   2.870  50.329  1.00  0.00     0.026 A 
HETATM   12  C14 UNL     1      21.368   3.763  51.233  1.00  0.00     0.034 A 
HETATM   13 CL1  UNL     1      19.639   4.026  51.289  1.00  0.00    -0.084 Cl
HETATM   14  C15 UNL     1      22.177   4.464  52.110  1.00  0.00     0.026 A 
HETATM   15  C16 UNL     1      23.535   4.228  52.035  1.00  0.00     0.031 A 
ENDBRANCH   7   9
ENDBRANCH   1   7
BRANCH   6  16
HETATM   16  N5  UNL     1      25.103   0.534  53.116  1.00  0.00    -0.360 N 
HETATM   17  H7  UNL     1      25.738  -0.162  52.618  1.00  0.00     0.162 HD
BRANCH  16  18
HETATM   18  C5  UNL     1      23.880  -0.024  53.563  1.00  0.00     0.031 A 
HETATM   19  C6  UNL     1      23.750  -0.896  54.650  1.00  0.00     0.029 A 
HETATM   20  C7  UNL     1      22.535  -1.404  55.036  1.00  0.00     0.004 A 
HETATM   21  C8  UNL     1      21.403  -1.051  54.342  1.00  0.00     0.019 A 
HETATM   22  C9  UNL     1      21.502  -0.184  53.257  1.00  0.00     0.013 A 
HETATM   23 BR1  UNL     1      19.845   0.212  52.395  1.00  0.00    -0.051 Br
HETATM   24  C10 UNL     1      22.738   0.322  52.878  1.00  0.00     0.048 A 
ENDBRANCH  16  18
ENDBRANCH   6  16
TORSDOF 4
ENDMDL
MODEL 4
REMARK VINA RESULT:      -8.2      3.757      6.129
REMARK  4 active torsions:
REMARK  status: ('A' for Active; 'I' for Inactive)
REMARK    1  A    between atoms: N1_2  and  C2_3 
REMARK    2  A    between atoms: N1_2  and  C11_17 
REMARK    3  A    between atoms: C4_8  and  N5_9 
REMARK    4  A    between atoms: N5_9  and  C5_10 
ROOT
HETATM    1  C2  UNL     1      23.289   0.603  53.339  1.00  0.00     0.149 C 
HETATM    2  N2  UNL     1      23.194  -0.595  53.831  1.00  0.00    -0.249 NA
HETATM    3  C3  UNL     1      21.899  -1.293  53.763  1.00  0.00     0.323 C 
HETATM    4  N3  UNL     1      20.897  -0.301  54.073  1.00  0.00    -0.174 NA
HETATM    5  N4  UNL     1      20.976   0.821  53.600  1.00  0.00    -0.162 NA
HETATM    6  C4  UNL     1      22.059   1.171  52.734  1.00  0.00     0.299 C 
ENDROOT
BRANCH   1   7
HETATM    7  N1  UNL     1      24.489   1.334  53.366  1.00  0.00    -0.337 N 
HETATM    8  C1  UNL     1      24.529   2.790  53.324  1.00  0.00     0.158 C 
BRANCH   7   9
HETATM    9  C11 UNL     1      25.752   0.680  53.439  1.00  0.00     0.035 A 
HETATM   10  C12 UNL     1      26.583   0.828  54.517  1.00  0.00     0.031 A 
HETATM   11  C13 UNL     1      27.807   0.225  54.643  1.00  0.00     0.026 A 
HETATM   12  C14 UNL     1      28.232  -0.585  53.615  1.00  0.00     0.034 A 
HETATM   13 CL1  UNL     1      29.786  -1.381  53.721  1.00  0.00    -0.084 Cl
HETATM   14  C15 UNL     1      27.453  -0.789  52.490  1.00  0.00     0.026 A 
HETATM   15  C16 UNL     1      26.233  -0.144  52.446  1.00  0.00     0.031 A 
ENDBRANCH   7   9
ENDBRANCH   1   7
BRANCH   6  16
HETATM   16  N5  UNL     1      21.914   0.607  51.410  1.00  0.00    -0.360 N 
HETATM   17  H7  UNL     1      21.685  -0.422  51.258  1.00  0.00     0.162 HD
BRANCH  16  18
HETATM   18  C5  UNL     1      22.057   1.347  50.211  1.00  0.00     0.031 A 
HETATM   19  C6  UNL     1      21.436   1.031  48.998  1.00  0.00     0.029 A 
HETATM   20  C7  UNL     1      21.614   1.788  47.867  1.00  0.00     0.004 A 
HETATM   21  C8  UNL     1      22.426   2.896  47.917  1.00  0.00     0.019 A 
HETATM   22  C9  UNL     1      23.057   3.236  49.111  1.00  0.00     0.013 A 
HETATM   23 BR1  UNL     1      24.150   4.798  49.023  1.00  0.00    -0.051 Br
HETATM   24  C10 UNL     1      22.867   2.459  50.246  1.00  0.00     0.048 A 
ENDBRANCH  16  18
ENDBRANCH   6  16
TORSDOF 4
ENDMDL
MODEL 5
REMARK VINA RESULT:      -8.0      3.456      5.844
REMARK  4 active torsions:
REMARK  status: ('A' for Active; 'I' for Inactive)
REMARK    1  A    between atoms: N1_2  and  C2_3 
REMARK    2  A    between atoms: N1_2  and  C11_17 
REMARK    3  A    between atoms: C4_8  and  N5_9 
REMARK    4  A    between atoms: N5_9  and  C5_10 
ROOT
HETATM    1  C2  UNL     1      24.745  -0.372  54.111  1.00  0.00     0.149 C 
HETATM    2  N2  UNL     1      25.592  -0.492  55.088  1.00  0.00    -0.249 NA
HETATM    3  C3  UNL     1      27.014  -0.202  54.839  1.00  0.00     0.323 C 
HETATM    4  N3  UNL     1      27.314  -0.772  53.547  1.00  0.00    -0.174 NA
HETATM    5  N4  UNL     1      26.528  -0.648  52.623  1.00  0.00    -0.162 NA
HETATM    6  C4  UNL     1      25.299   0.062  52.803  1.00  0.00     0.299 C 
ENDROOT
BRANCH   1   7
HETATM    7  N1  UNL     1      23.374  -0.630  54.268  1.00  0.00    -0.337 N 
HETATM    8  C1  UNL     1      22.849  -1.511  55.303  1.00  0.00     0.158 C 
BRANCH   7   9
HETATM    9  C11 UNL     1      22.405  -0.033  53.411  1.00  0.00     0.035 A 
HETATM   10  C12 UNL     1      22.225  -0.451  52.120  1.00  0.00     0.031 A 
HETATM   11  C13 UNL     1      21.310   0.084  51.250  1.00  0.00     0.026 A 
HETATM   12  C14 UNL     1      20.519   1.113  51.706  1.00  0.00     0.034 A 
HETATM   13 CL1  UNL     1      19.334   1.835  50.640  1.00  0.00    -0.084 Cl
HETATM   14  C15 UNL     1      20.636   1.596  52.997  1.00  0.00     0.026 A 
HETATM   15  C16 UNL     1      21.582   0.998  53.806  1.00  0.00     0.031 A 
ENDBRANCH   7   9
ENDBRANCH   1   7
BRANCH   6  16
HETATM   16  N5  UNL     1      25.488   1.494  52.854  1.00  0.00    -0.360 N 
HETATM   17  H7  UNL     1      26.341   1.934  53.318  1.00  0.00     0.162 HD
BRANCH  16  18
HETATM   18  C5  UNL     1      24.583   2.436  52.306  1.00  0.00     0.031 A 
HETATM   19  C6  UNL     1      24.042   3.522  53.002  1.00  0.00     0.029 A 
HETATM   20  C7  UNL     1      23.168   4.403  52.415  1.00  0.00     0.004 A 
HETATM   21  C8  UNL     1      22.806   4.221  51.102  1.00  0.00     0.019 A 
HETATM   22  C9  UNL     1      23.329   3.149  50.384  1.00  0.00     0.013 A 
HETATM   23 BR1  UNL     1      22.734   3.030  48.575  1.00  0.00    -0.051 Br
HETATM   24  C10 UNL     1      24.212   2.266  50.992  1.00  0.00     0.048 A 
ENDBRANCH  16  18
ENDBRANCH   6  16
TORSDOF 4
ENDMDL
MODEL 6
REMARK VINA RESULT:      -8.0      3.950      5.917
REMARK  4 active torsions:
REMARK  status: ('A' for Active; 'I' for Inactive)
REMARK    1  A    between atoms: N1_2  and  C2_3 
REMARK    2  A    between atoms: N1_2  and  C11_17 
REMARK    3  A    between atoms: C4_8  and  N5_9 
REMARK    4  A    between atoms: N5_9  and  C5_10 
ROOT
HETATM    1  C2  UNL     1      23.191   0.182  53.647  1.00  0.00     0.149 C 
HETATM    2  N2  UNL     1      23.307  -0.990  54.196  1.00  0.00    -0.249 NA
HETATM    3  C3  UNL     1      22.091  -1.777  54.461  1.00  0.00     0.323 C 
HETATM    4  N3  UNL     1      21.112  -0.839  54.957  1.00  0.00    -0.174 NA
HETATM    5  N4  UNL     1      20.990   0.257  54.435  1.00  0.00    -0.162 NA
HETATM    6  C4  UNL     1      21.812   0.629  53.325  1.00  0.00     0.299 C 
ENDROOT
BRANCH   1   7
HETATM    7  N1  UNL     1      24.302   0.992  53.363  1.00  0.00    -0.337 N 
HETATM    8  C1  UNL     1      24.180   2.384  52.950  1.00  0.00     0.158 C 
BRANCH   7   9
HETATM    9  C11 UNL     1      25.630   0.490  53.467  1.00  0.00     0.035 A 
HETATM   10  C12 UNL     1      26.186  -0.296  52.494  1.00  0.00     0.031 A 
HETATM   11  C13 UNL     1      27.457  -0.808  52.539  1.00  0.00     0.026 A 
HETATM   12  C14 UNL     1      28.228  -0.512  53.640  1.00  0.00     0.034 A 
HETATM   13 CL1  UNL     1      29.858  -1.137  53.752  1.00  0.00    -0.084 Cl
HETATM   14  C15 UNL     1      27.743   0.276  54.669  1.00  0.00     0.026 A 
HETATM   15  C16 UNL     1      26.453   0.750  54.541  1.00  0.00     0.031 A 
ENDBRANCH   7   9
ENDBRANCH   1   7
BRANCH   6  16
HETATM   16  N5  UNL     1      21.411  -0.019  52.096  1.00  0.00    -0.360 N 
HETATM   17  H7  UNL     1      21.386  -1.080  52.000  1.00  0.00     0.162 HD
BRANCH  16  18
HETATM   18  C5  UNL     1      21.021   0.673  50.924  1.00  0.00     0.031 A 
HETATM   19  C6  UNL     1      21.892   1.075  49.906  1.00  0.00     0.029 A 
HETATM   20  C7  UNL     1      21.453   1.744  48.790  1.00  0.00     0.004 A 
HETATM   21  C8  UNL     1      20.116   2.033  48.659  1.00  0.00     0.019 A 
HETATM   22  C9  UNL     1      19.225   1.644  49.656  1.00  0.00     0.013 A 
HETATM   23 BR1  UNL     1      17.404   2.116  49.331  1.00  0.00    -0.051 Br
HETATM   24  C10 UNL     1      19.685   0.969  50.779  1.00  0.00     0.048 A 
ENDBRANCH  16  18
ENDBRANCH   6  16
TORSDOF 4
ENDMDL
MODEL 7
REMARK VINA RESULT:      -7.9      3.209      4.098
REMARK  4 active torsions:
REMARK  status: ('A' for Active; 'I' for Inactive)
REMARK    1  A    between atoms: N1_2  and  C2_3 
REMARK    2  A    between atoms: N1_2  and  C11_17 
REMARK    3  A    between atoms: C4_8  and  N5_9 
REMARK    4  A    between atoms: N5_9  and  C5_10 
ROOT
HETATM    1  C2  UNL     1      24.493   3.967  50.857  1.00  0.00     0.149 C 
HETATM    2  N2  UNL     1      23.896   4.650  51.787  1.00  0.00    -0.249 NA
HETATM    3  C3  UNL     1      23.840   4.099  53.151  1.00  0.00     0.323 C 
HETATM    4  N3  UNL     1      23.566   2.690  52.998  1.00  0.00    -0.174 NA
HETATM    5  N4  UNL     1      24.135   2.042  52.136  1.00  0.00    -0.162 NA
HETATM    6  C4  UNL     1      25.082   2.667  51.264  1.00  0.00     0.299 C 
ENDROOT
BRANCH   1   7
HETATM    7  N1  UNL     1      24.588   4.425  49.532  1.00  0.00    -0.337 N 
HETATM    8  C1  UNL     1      23.513   4.267  48.562  1.00  0.00     0.158 C 
BRANCH   7   9
HETATM    9  C11 UNL     1      25.761   5.080  49.059  1.00  0.00     0.035 A 
HETATM   10  C12 UNL     1      25.747   6.388  48.656  1.00  0.00     0.031 A 
HETATM   11  C13 UNL     1      26.841   7.071  48.192  1.00  0.00     0.026 A 
HETATM   12  C14 UNL     1      28.037   6.394  48.125  1.00  0.00     0.034 A 
HETATM   13 CL1  UNL     1      29.468   7.214  47.541  1.00  0.00    -0.084 Cl
HETATM   14  C15 UNL     1      28.139   5.070  48.513  1.00  0.00     0.026 A 
HETATM   15  C16 UNL     1      26.987   4.460  48.969  1.00  0.00     0.031 A 
ENDBRANCH   7   9
ENDBRANCH   1   7
BRANCH   6  16
HETATM   16  N5  UNL     1      26.344   2.936  51.917  1.00  0.00    -0.360 N 
HETATM   17  H7  UNL     1      26.750   3.919  51.975  1.00  0.00     0.162 HD
BRANCH  16  18
HETATM   18  C5  UNL     1      27.149   1.945  52.530  1.00  0.00     0.031 A 
HETATM   19  C6  UNL     1      28.225   2.206  53.385  1.00  0.00     0.029 A 
HETATM   20  C7  UNL     1      28.968   1.201  53.951  1.00  0.00     0.004 A 
HETATM   21  C8  UNL     1      28.655  -0.108  53.676  1.00  0.00     0.019 A 
HETATM   22  C9  UNL     1      27.589  -0.399  52.829  1.00  0.00     0.013 A 
HETATM   23 BR1  UNL     1      27.276  -2.260  52.544  1.00  0.00    -0.051 Br
HETATM   24  C10 UNL     1      26.845   0.629  52.264  1.00  0.00     0.048 A 
ENDBRANCH  16  18
ENDBRANCH   6  16
TORSDOF 4
ENDMDL
MODEL 8
REMARK VINA RESULT:      -7.7      3.568      5.761
REMARK  4 active torsions:
REMARK  status: ('A' for Active; 'I' for Inactive)
REMARK    1  A    between atoms: N1_2  and  C2_3 
REMARK    2  A    between atoms: N1_2  and  C11_17 
REMARK    3  A    between atoms: C4_8  and  N5_9 
REMARK    4  A    between atoms: N5_9  and  C5_10 
ROOT
HETATM    1  C2  UNL     1      23.411   4.220  50.136  1.00  0.00     0.149 C 
HETATM    2  N2  UNL     1      23.933   5.180  49.434  1.00  0.00    -0.249 NA
HETATM    3  C3  UNL     1      24.825   6.146  50.098  1.00  0.00     0.323 C 
HETATM    4  N3  UNL     1      24.219   6.430  51.377  1.00  0.00    -0.174 NA
HETATM    5  N4  UNL     1      23.742   5.528  52.046  1.00  0.00    -0.162 NA
HETATM    6  C4  UNL     1      23.775   4.178  51.575  1.00  0.00     0.299 C 
ENDROOT
BRANCH   1   7
HETATM    7  N1  UNL     1      22.552   3.261  49.576  1.00  0.00    -0.337 N 
HETATM    8  C1  UNL     1      22.405   3.074  48.139  1.00  0.00     0.158 C 
BRANCH   7   9
HETATM    9  C11 UNL     1      21.765   2.403  50.397  1.00  0.00     0.035 A 
HETATM   10  C12 UNL     1      21.889   1.041  50.351  1.00  0.00     0.031 A 
HETATM   11  C13 UNL     1      21.161   0.167  51.115  1.00  0.00     0.026 A 
HETATM   12  C14 UNL     1      20.239   0.695  51.990  1.00  0.00     0.034 A 
HETATM   13 CL1  UNL     1      19.281  -0.372  52.991  1.00  0.00    -0.084 Cl
HETATM   14  C15 UNL     1      20.051   2.062  52.100  1.00  0.00     0.026 A 
HETATM   15  C16 UNL     1      20.827   2.869  51.293  1.00  0.00     0.031 A 
ENDBRANCH   7   9
ENDBRANCH   1   7
BRANCH   6  16
HETATM   16  N5  UNL     1      25.088   3.584  51.684  1.00  0.00    -0.360 N 
HETATM   17  H7  UNL     1      25.977   4.141  51.493  1.00  0.00     0.162 HD
BRANCH  16  18
HETATM   18  C5  UNL     1      25.323   2.236  52.047  1.00  0.00     0.031 A 
HETATM   19  C6  UNL     1      26.464   1.503  51.703  1.00  0.00     0.029 A 
HETATM   20  C7  UNL     1      26.636   0.196  52.087  1.00  0.00     0.004 A 
HETATM   21  C8  UNL     1      25.662  -0.422  52.833  1.00  0.00     0.019 A 
HETATM   22  C9  UNL     1      24.516   0.283  53.191  1.00  0.00     0.013 A 
HETATM   23 BR1  UNL     1      23.256  -0.709  54.227  1.00  0.00    -0.051 Br
HETATM   24  C10 UNL     1      24.356   1.604  52.796  1.00  0.00     0.048 A 
ENDBRANCH  16  18
ENDBRANCH   6  16
TORSDOF 4
ENDMDL
MODEL 9
REMARK VINA RESULT:      -7.6      3.381      5.386
REMARK  4 active torsions:
REMARK  status: ('A' for Active; 'I' for Inactive)
REMARK    1  A    between atoms: N1_2  and  C2_3 
REMARK    2  A    between atoms: N1_2  and  C11_17 
REMARK    3  A    between atoms: C4_8  and  N5_9 
REMARK    4  A    between atoms: N5_9  and  C5_10 
ROOT
HETATM    1  C2  UNL     1      21.175   0.424  52.672  1.00  0.00     0.149 C 
HETATM    2  N2  UNL     1      20.447   0.577  53.737  1.00  0.00    -0.249 NA
HETATM    3  C3  UNL     1      20.905  -0.012  55.006  1.00  0.00     0.323 C 
HETATM    4  N3  UNL     1      21.433  -1.313  54.671  1.00  0.00    -0.174 NA
HETATM    5  N4  UNL     1      22.130  -1.458  53.680  1.00  0.00    -0.162 NA
HETATM    6  C4  UNL     1      22.435  -0.344  52.837  1.00  0.00     0.299 C 
ENDROOT
BRANCH   1   7
HETATM    7  N1  UNL     1      20.806   0.955  51.426  1.00  0.00    -0.337 N 
HETATM    8  C1  UNL     1      19.621   0.518  50.700  1.00  0.00     0.158 C 
BRANCH   7   9
HETATM    9  C11 UNL     1      21.583   1.968  50.794  1.00  0.00     0.035 A 
HETATM   10  C12 UNL     1      22.200   1.762  49.589  1.00  0.00     0.031 A 
HETATM   11  C13 UNL     1      22.959   2.697  48.934  1.00  0.00     0.026 A 
HETATM   12  C14 UNL     1      23.112   3.928  49.529  1.00  0.00     0.034 A 
HETATM   13 CL1  UNL     1      24.069   5.162  48.740  1.00  0.00    -0.084 Cl
HETATM   14  C15 UNL     1      22.521   4.220  50.746  1.00  0.00     0.026 A 
HETATM   15  C16 UNL     1      21.774   3.220  51.336  1.00  0.00     0.031 A 
ENDBRANCH   7   9
ENDBRANCH   1   7
BRANCH   6  16
HETATM   16  N5  UNL     1      23.420   0.539  53.420  1.00  0.00    -0.360 N 
HETATM   17  H7  UNL     1      23.224   1.096  54.307  1.00  0.00     0.162 HD
BRANCH  16  18
HETATM   18  C5  UNL     1      24.715   0.749  52.885  1.00  0.00     0.031 A 
HETATM   19  C6  UNL     1      25.040   1.727  51.939  1.00  0.00     0.029 A 
HETATM   20  C7  UNL     1      26.315   1.883  51.458  1.00  0.00     0.004 A 
HETATM   21  C8  UNL     1      27.315   1.057  51.914  1.00  0.00     0.019 A 
HETATM   22  C9  UNL     1      27.022   0.075  52.857  1.00  0.00     0.013 A 
HETATM   23 BR1  UNL     1      28.511  -0.991  53.392  1.00  0.00    -0.051 Br
HETATM   24  C10 UNL     1      25.726  -0.070  53.334  1.00  0.00     0.048 A 
ENDBRANCH  16  18
ENDBRANCH   6  16
TORSDOF 4
ENDMDL
