MODEL 1
REMARK VINA RESULT:      -8.7      0.000      0.000
REMARK  3 active torsions:
REMARK  status: ('A' for Active; 'I' for Inactive)
REMARK    1  A    between atoms: C4_5  and  C5_6 
REMARK    2  A    between atoms: C5_6  and  O1_7 
REMARK    3  A    between atoms: O1_7  and  C6_8 
ROOT
HETATM    1  C6  UNL     1      22.789   0.892  52.278  1.00  0.00     0.073 A 
HETATM    2  C7  UNL     1      21.790   0.073  51.988  1.00  0.00     0.015 A 
HETATM    3  C8  UNL     1      21.311   0.276  50.595  1.00  0.00     0.065 A 
HETATM    4  C9  UNL     1      22.227   1.373  50.131  1.00  0.00    -0.066 A 
HETATM    5  C10 UNL     1      23.051   1.710  51.083  1.00  0.00    -0.009 A 
HETATM    6  C11 UNL     1      24.117   2.697  51.151  1.00  0.00     0.094 C 
HETATM    7  C12 UNL     1      25.451   2.118  50.769  1.00  0.00     0.005 C 
HETATM    8  C13 UNL     1      26.424   2.941  50.393  1.00  0.00     0.080 C 
HETATM    9  N1  UNL     1      26.249   4.371  50.338  1.00  0.00    -0.394 N 
HETATM   10  C14 UNL     1      24.972   4.970  50.728  1.00  0.00     0.174 C 
HETATM   11  C15 UNL     1      23.948   3.924  50.372  1.00  0.00     0.036 C 
HETATM   12  N2  UNL     1      23.239   4.510  49.452  1.00  0.00    -0.296 NA
HETATM   13  C16 UNL     1      22.102   4.048  48.696  1.00  0.00     0.149 C 
HETATM   14  C17 UNL     1      22.501   2.737  48.046  1.00  0.00     0.026 C 
HETATM   15  C18 UNL     1      21.814   1.628  48.761  1.00  0.00     0.037 C 
HETATM   16  H11 UNL     1      27.082   4.934  50.007  1.00  0.00     0.159 HD
ENDROOT
BRANCH   1  17
HETATM   17  O1  UNL     1      23.500   0.999  53.487  1.00  0.00    -0.346 OA
BRANCH  17  18
HETATM   18  C5  UNL     1      24.046  -0.212  53.985  1.00  0.00     0.214 C 
BRANCH  18  19
HETATM   19  C4  UNL     1      25.517  -0.262  53.916  1.00  0.00    -0.034 A 
HETATM   20  C3  UNL     1      26.379   0.300  54.818  1.00  0.00     0.012 A 
HETATM   21  C2  UNL     1      27.749   0.227  54.712  1.00  0.00     0.043 A 
HETATM   22  C1  UNL     1      28.332  -0.449  53.641  1.00  0.00     0.116 A 
HETATM   23  F1  UNL     1      29.669  -0.544  53.499  1.00  0.00    -0.206 F 
HETATM   24  C20 UNL     1      27.465  -1.018  52.729  1.00  0.00     0.043 A 
HETATM   25  C19 UNL     1      26.087  -0.941  52.841  1.00  0.00     0.012 A 
ENDBRANCH  18  19
ENDBRANCH  17  18
ENDBRANCH   1  17
TORSDOF 3
ENDMDL
MODEL 2
REMARK VINA RESULT:      -8.4      1.787      2.843
REMARK  3 active torsions:
REMARK  status: ('A' for Active; 'I' for Inactive)
REMARK    1  A    between atoms: C4_5  and  C5_6 
REMARK    2  A    between atoms: C5_6  and  O1_7 
REMARK    3  A    between atoms: O1_7  and  C6_8 
ROOT
HETATM    1  C6  UNL     1      24.008   0.815  53.053  1.00  0.00     0.073 A 
HETATM    2  C7  UNL     1      23.710  -0.431  53.390  1.00  0.00     0.015 A 
HETATM    3  C8  UNL     1      22.345  -0.802  52.933  1.00  0.00     0.065 A 
HETATM    4  C9  UNL     1      21.906   0.470  52.265  1.00  0.00    -0.066 A 
HETATM    5  C10 UNL     1      22.846   1.369  52.339  1.00  0.00    -0.009 A 
HETATM    6  C11 UNL     1      22.930   2.741  51.860  1.00  0.00     0.094 C 
HETATM    7  C12 UNL     1      23.531   2.826  50.485  1.00  0.00     0.005 C 
HETATM    8  C13 UNL     1      23.313   3.914  49.756  1.00  0.00     0.080 C 
HETATM    9  N1  UNL     1      22.521   5.020  50.234  1.00  0.00    -0.394 N 
HETATM   10  C14 UNL     1      21.944   4.981  51.578  1.00  0.00     0.174 C 
HETATM   11  C15 UNL     1      21.691   3.519  51.831  1.00  0.00     0.036 C 
HETATM   12  N2  UNL     1      20.395   3.459  51.940  1.00  0.00    -0.296 NA
HETATM   13  C16 UNL     1      19.516   2.344  52.185  1.00  0.00     0.149 C 
HETATM   14  C17 UNL     1      19.825   1.294  51.135  1.00  0.00     0.026 C 
HETATM   15  C18 UNL     1      20.565   0.179  51.788  1.00  0.00     0.037 C 
HETATM   16  H11 UNL     1      22.394   5.831  49.566  1.00  0.00     0.159 HD
ENDROOT
BRANCH   1  17
HETATM   17  O1  UNL     1      25.197   1.522  53.309  1.00  0.00    -0.346 OA
BRANCH  17  18
HETATM   18  C5  UNL     1      26.217   1.375  52.333  1.00  0.00     0.214 C 
BRANCH  18  19
HETATM   19  C4  UNL     1      27.355   0.562  52.796  1.00  0.00    -0.034 A 
HETATM   20  C3  UNL     1      27.419  -0.806  52.779  1.00  0.00     0.012 A 
HETATM   21  C2  UNL     1      28.507  -1.524  53.222  1.00  0.00     0.043 A 
HETATM   22  C1  UNL     1      29.625  -0.860  53.724  1.00  0.00     0.116 A 
HETATM   23  F1  UNL     1      30.711  -1.525  54.168  1.00  0.00    -0.206 F 
HETATM   24  C20 UNL     1      29.563   0.520  53.742  1.00  0.00     0.043 A 
HETATM   25  C19 UNL     1      28.467   1.237  53.295  1.00  0.00     0.012 A 
ENDBRANCH  18  19
ENDBRANCH  17  18
ENDBRANCH   1  17
TORSDOF 3
ENDMDL
MODEL 3
REMARK VINA RESULT:      -8.3      2.940      5.577
REMARK  3 active torsions:
REMARK  status: ('A' for Active; 'I' for Inactive)
REMARK    1  A    between atoms: C4_5  and  C5_6 
REMARK    2  A    between atoms: C5_6  and  O1_7 
REMARK    3  A    between atoms: O1_7  and  C6_8 
ROOT
HETATM    1  C6  UNL     1      21.714   1.305  50.453  1.00  0.00     0.073 A 
HETATM    2  C7  UNL     1      20.411   1.111  50.317  1.00  0.00     0.015 A 
HETATM    3  C8  UNL     1      19.804   0.619  51.583  1.00  0.00     0.065 A 
HETATM    4  C9  UNL     1      21.008   0.565  52.480  1.00  0.00    -0.066 A 
HETATM    5  C10 UNL     1      22.073   0.951  51.835  1.00  0.00    -0.009 A 
HETATM    6  C11 UNL     1      23.466   1.081  52.235  1.00  0.00     0.094 C 
HETATM    7  C12 UNL     1      23.782   2.460  52.746  1.00  0.00     0.005 C 
HETATM    8  C13 UNL     1      24.857   2.630  53.506  1.00  0.00     0.080 C 
HETATM    9  N1  UNL     1      25.735   1.542  53.861  1.00  0.00    -0.394 N 
HETATM   10  C14 UNL     1      25.471   0.193  53.359  1.00  0.00     0.174 C 
HETATM   11  C15 UNL     1      23.971   0.133  53.228  1.00  0.00     0.036 C 
HETATM   12  N2  UNL     1      23.638  -0.786  54.087  1.00  0.00    -0.296 NA
HETATM   13  C16 UNL     1      22.350  -1.321  54.449  1.00  0.00     0.149 C 
HETATM   14  C17 UNL     1      21.473  -0.146  54.838  1.00  0.00     0.026 C 
HETATM   15  C18 UNL     1      20.486   0.087  53.749  1.00  0.00     0.037 C 
HETATM   16  H11 UNL     1      26.553   1.783  54.488  1.00  0.00     0.159 HD
ENDROOT
BRANCH   1  17
HETATM   17  O1  UNL     1      22.629   1.761  49.485  1.00  0.00    -0.346 OA
BRANCH  17  18
HETATM   18  C5  UNL     1      22.550   3.143  49.173  1.00  0.00     0.214 C 
BRANCH  18  19
HETATM   19  C4  UNL     1      23.861   3.812  49.147  1.00  0.00    -0.034 A 
HETATM   20  C3  UNL     1      25.059   3.237  49.478  1.00  0.00     0.012 A 
HETATM   21  C2  UNL     1      26.262   3.904  49.439  1.00  0.00     0.043 A 
HETATM   22  C1  UNL     1      26.309   5.240  49.046  1.00  0.00     0.116 A 
HETATM   23  F1  UNL     1      27.465   5.930  48.993  1.00  0.00    -0.206 F 
HETATM   24  C20 UNL     1      25.102   5.823  48.711  1.00  0.00     0.043 A 
HETATM   25  C19 UNL     1      23.894   5.148  48.753  1.00  0.00     0.012 A 
ENDBRANCH  18  19
ENDBRANCH  17  18
ENDBRANCH   1  17
TORSDOF 3
ENDMDL
MODEL 4
REMARK VINA RESULT:      -8.3      2.982      5.500
REMARK  3 active torsions:
REMARK  status: ('A' for Active; 'I' for Inactive)
REMARK    1  A    between atoms: C4_5  and  C5_6 
REMARK    2  A    between atoms: C5_6  and  O1_7 
REMARK    3  A    between atoms: O1_7  and  C6_8 
ROOT
HETATM    1  C6  UNL     1      21.980   2.292  50.769  1.00  0.00     0.073 A 
HETATM    2  C7  UNL     1      20.662   2.393  50.699  1.00  0.00     0.015 A 
HETATM    3  C8  UNL     1      20.008   1.764  51.877  1.00  0.00     0.065 A 
HETATM    4  C9  UNL     1      21.203   1.276  52.646  1.00  0.00    -0.066 A 
HETATM    5  C10 UNL     1      22.303   1.578  52.015  1.00  0.00    -0.009 A 
HETATM    6  C11 UNL     1      23.705   1.340  52.323  1.00  0.00     0.094 C 
HETATM    7  C12 UNL     1      24.320   2.482  53.084  1.00  0.00     0.005 C 
HETATM    8  C13 UNL     1      25.432   2.266  53.777  1.00  0.00     0.080 C 
HETATM    9  N1  UNL     1      26.074   0.975  53.827  1.00  0.00    -0.394 N 
HETATM   10  C14 UNL     1      25.517  -0.151  53.076  1.00  0.00     0.174 C 
HETATM   11  C15 UNL     1      24.034   0.116  53.053  1.00  0.00     0.036 C 
HETATM   12  N2  UNL     1      23.546  -0.886  53.724  1.00  0.00    -0.296 NA
HETATM   13  C16 UNL     1      22.187  -1.223  54.066  1.00  0.00     0.149 C 
HETATM   14  C17 UNL     1      21.589  -0.015  54.760  1.00  0.00     0.026 C 
HETATM   15  C18 UNL     1      20.636   0.643  53.824  1.00  0.00     0.037 C 
HETATM   16  H11 UNL     1      26.945   0.906  54.424  1.00  0.00     0.159 HD
ENDROOT
BRANCH   1  17
HETATM   17  O1  UNL     1      22.936   2.762  49.850  1.00  0.00    -0.346 OA
BRANCH  17  18
HETATM   18  C5  UNL     1      23.216   4.151  49.915  1.00  0.00     0.214 C 
BRANCH  18  19
HETATM   19  C4  UNL     1      24.591   4.490  49.508  1.00  0.00    -0.034 A 
HETATM   20  C3  UNL     1      25.004   5.701  49.019  1.00  0.00     0.012 A 
HETATM   21  C2  UNL     1      26.302   5.972  48.652  1.00  0.00     0.043 A 
HETATM   22  C1  UNL     1      27.282   4.987  48.768  1.00  0.00     0.116 A 
HETATM   23  F1  UNL     1      28.565   5.211  48.420  1.00  0.00    -0.206 F 
HETATM   24  C20 UNL     1      26.868   3.765  49.262  1.00  0.00     0.043 A 
HETATM   25  C19 UNL     1      25.560   3.497  49.630  1.00  0.00     0.012 A 
ENDBRANCH  18  19
ENDBRANCH  17  18
ENDBRANCH   1  17
TORSDOF 3
ENDMDL
MODEL 5
REMARK VINA RESULT:      -8.1      3.290      6.135
REMARK  3 active torsions:
REMARK  status: ('A' for Active; 'I' for Inactive)
REMARK    1  A    between atoms: C4_5  and  C5_6 
REMARK    2  A    between atoms: C5_6  and  O1_7 
REMARK    3  A    between atoms: O1_7  and  C6_8 
ROOT
HETATM    1  C6  UNL     1      24.572   2.386  52.070  1.00  0.00     0.073 A 
HETATM    2  C7  UNL     1      25.656   1.931  52.679  1.00  0.00     0.015 A 
HETATM    3  C8  UNL     1      25.358   0.706  53.468  1.00  0.00     0.065 A 
HETATM    4  C9  UNL     1      23.890   0.537  53.198  1.00  0.00    -0.066 A 
HETATM    5  C10 UNL     1      23.460   1.485  52.413  1.00  0.00    -0.009 A 
HETATM    6  C11 UNL     1      22.148   1.777  51.858  1.00  0.00     0.094 C 
HETATM    7  C12 UNL     1      21.948   1.141  50.510  1.00  0.00     0.005 C 
HETATM    8  C13 UNL     1      20.711   0.967  50.059  1.00  0.00     0.080 C 
HETATM    9  N1  UNL     1      19.550   1.367  50.814  1.00  0.00    -0.394 N 
HETATM   10  C14 UNL     1      19.709   2.014  52.118  1.00  0.00     0.174 C 
HETATM   11  C15 UNL     1      20.982   1.428  52.669  1.00  0.00     0.036 C 
HETATM   12  N2  UNL     1      20.575   0.785  53.725  1.00  0.00    -0.296 NA
HETATM   13  C16 UNL     1      21.301   0.008  54.698  1.00  0.00     0.149 C 
HETATM   14  C17 UNL     1      22.086  -1.041  53.934  1.00  0.00     0.026 C 
HETATM   15  C18 UNL     1      23.523  -0.654  53.945  1.00  0.00     0.037 C 
HETATM   16  H11 UNL     1      18.609   1.167  50.372  1.00  0.00     0.159 HD
ENDROOT
BRANCH   1  17
HETATM   17  O1  UNL     1      24.454   3.516  51.239  1.00  0.00    -0.346 OA
BRANCH  17  18
HETATM   18  C5  UNL     1      24.814   3.316  49.881  1.00  0.00     0.214 C 
BRANCH  18  19
HETATM   19  C4  UNL     1      25.667   4.387  49.339  1.00  0.00    -0.034 A 
HETATM   20  C3  UNL     1      25.255   5.652  49.015  1.00  0.00     0.012 A 
HETATM   21  C2  UNL     1      26.091   6.622  48.511  1.00  0.00     0.043 A 
HETATM   22  C1  UNL     1      27.441   6.342  48.304  1.00  0.00     0.116 A 
HETATM   23  F1  UNL     1      28.294   7.262  47.812  1.00  0.00    -0.206 F 
HETATM   24  C20 UNL     1      27.860   5.066  48.630  1.00  0.00     0.043 A 
HETATM   25  C19 UNL     1      27.014   4.095  49.137  1.00  0.00     0.012 A 
ENDBRANCH  18  19
ENDBRANCH  17  18
ENDBRANCH   1  17
TORSDOF 3
ENDMDL
MODEL 6
REMARK VINA RESULT:      -8.1      1.844      3.534
REMARK  3 active torsions:
REMARK  status: ('A' for Active; 'I' for Inactive)
REMARK    1  A    between atoms: C4_5  and  C5_6 
REMARK    2  A    between atoms: C5_6  and  O1_7 
REMARK    3  A    between atoms: O1_7  and  C6_8 
ROOT
HETATM    1  C6  UNL     1      24.975   2.254  51.816  1.00  0.00     0.073 A 
HETATM    2  C7  UNL     1      25.945   2.802  51.100  1.00  0.00     0.015 A 
HETATM    3  C8  UNL     1      25.451   3.237  49.766  1.00  0.00     0.065 A 
HETATM    4  C9  UNL     1      24.006   2.836  49.847  1.00  0.00    -0.066 A 
HETATM    5  C10 UNL     1      23.751   2.286  51.001  1.00  0.00    -0.009 A 
HETATM    6  C11 UNL     1      22.533   1.735  51.575  1.00  0.00     0.094 C 
HETATM    7  C12 UNL     1      21.764   2.760  52.362  1.00  0.00     0.005 C 
HETATM    8  C13 UNL     1      20.475   2.550  52.601  1.00  0.00     0.080 C 
HETATM    9  N1  UNL     1      19.783   1.374  52.135  1.00  0.00    -0.394 N 
HETATM   10  C14 UNL     1      20.507   0.344  51.389  1.00  0.00     0.174 C 
HETATM   11  C15 UNL     1      21.583   1.103  50.658  1.00  0.00     0.036 C 
HETATM   12  N2  UNL     1      21.274   0.920  49.408  1.00  0.00    -0.296 NA
HETATM   13  C16 UNL     1      21.905   1.386  48.199  1.00  0.00     0.149 C 
HETATM   14  C17 UNL     1      22.026   2.893  48.311  1.00  0.00     0.026 C 
HETATM   15  C18 UNL     1      23.452   3.235  48.564  1.00  0.00     0.037 C 
HETATM   16  H11 UNL     1      18.751   1.313  52.364  1.00  0.00     0.159 HD
ENDROOT
BRANCH   1  17
HETATM   17  O1  UNL     1      25.051   1.725  53.118  1.00  0.00    -0.346 OA
BRANCH  17  18
HETATM   18  C5  UNL     1      25.169   0.314  53.199  1.00  0.00     0.214 C 
BRANCH  18  19
HETATM   19  C4  UNL     1      26.556  -0.147  53.381  1.00  0.00    -0.034 A 
HETATM   20  C3  UNL     1      27.103  -1.275  52.828  1.00  0.00     0.012 A 
HETATM   21  C2  UNL     1      28.407  -1.666  53.027  1.00  0.00     0.043 A 
HETATM   22  C1  UNL     1      29.252  -0.901  53.828  1.00  0.00     0.116 A 
HETATM   23  F1  UNL     1      30.536  -1.248  54.049  1.00  0.00    -0.206 F 
HETATM   24  C20 UNL     1      28.704   0.238  54.387  1.00  0.00     0.043 A 
HETATM   25  C19 UNL     1      27.391   0.627  54.184  1.00  0.00     0.012 A 
ENDBRANCH  18  19
ENDBRANCH  17  18
ENDBRANCH   1  17
TORSDOF 3
ENDMDL
MODEL 7
REMARK VINA RESULT:      -7.9      2.250      3.107
REMARK  3 active torsions:
REMARK  status: ('A' for Active; 'I' for Inactive)
REMARK    1  A    between atoms: C4_5  and  C5_6 
REMARK    2  A    between atoms: C5_6  and  O1_7 
REMARK    3  A    between atoms: O1_7  and  C6_8 
ROOT
HETATM    1  C6  UNL     1      24.442   3.233  50.298  1.00  0.00     0.073 A 
HETATM    2  C7  UNL     1      23.375   2.535  49.939  1.00  0.00     0.015 A 
HETATM    3  C8  UNL     1      22.604   3.235  48.877  1.00  0.00     0.065 A 
HETATM    4  C9  UNL     1      23.431   4.475  48.688  1.00  0.00    -0.066 A 
HETATM    5  C10 UNL     1      24.458   4.463  49.490  1.00  0.00    -0.009 A 
HETATM    6  C11 UNL     1      25.546   5.405  49.701  1.00  0.00     0.094 C 
HETATM    7  C12 UNL     1      26.740   5.094  48.841  1.00  0.00     0.005 C 
HETATM    8  C13 UNL     1      27.632   6.051  48.612  1.00  0.00     0.080 C 
HETATM    9  N1  UNL     1      27.499   7.379  49.158  1.00  0.00    -0.394 N 
HETATM   10  C14 UNL     1      26.364   7.707  50.020  1.00  0.00     0.174 C 
HETATM   11  C15 UNL     1      25.250   6.826  49.519  1.00  0.00     0.036 C 
HETATM   12  N2  UNL     1      24.374   7.682  49.080  1.00  0.00    -0.296 NA
HETATM   13  C16 UNL     1      23.081   7.486  48.473  1.00  0.00     0.149 C 
HETATM   14  C17 UNL     1      23.279   6.553  47.294  1.00  0.00     0.026 C 
HETATM   15  C18 UNL     1      22.731   5.217  47.653  1.00  0.00     0.037 C 
HETATM   16  H11 UNL     1      28.256   8.072  48.898  1.00  0.00     0.159 HD
ENDROOT
BRANCH   1  17
HETATM   17  O1  UNL     1      25.408   2.903  51.265  1.00  0.00    -0.346 OA
BRANCH  17  18
HETATM   18  C5  UNL     1      25.283   1.612  51.839  1.00  0.00     0.214 C 
BRANCH  18  19
HETATM   19  C4  UNL     1      26.541   1.102  52.411  1.00  0.00    -0.034 A 
HETATM   20  C3  UNL     1      27.569   1.868  52.892  1.00  0.00     0.012 A 
HETATM   21  C2  UNL     1      28.728   1.345  53.419  1.00  0.00     0.043 A 
HETATM   22  C1  UNL     1      28.905  -0.035  53.486  1.00  0.00     0.116 A 
HETATM   23  F1  UNL     1      30.024  -0.589  53.994  1.00  0.00    -0.206 F 
HETATM   24  C20 UNL     1      27.869  -0.811  53.002  1.00  0.00     0.043 A 
HETATM   25  C19 UNL     1      26.705  -0.280  52.473  1.00  0.00     0.012 A 
ENDBRANCH  18  19
ENDBRANCH  17  18
ENDBRANCH   1  17
TORSDOF 3
ENDMDL
MODEL 8
REMARK VINA RESULT:      -7.7      2.267      3.675
REMARK  3 active torsions:
REMARK  status: ('A' for Active; 'I' for Inactive)
REMARK    1  A    between atoms: C4_5  and  C5_6 
REMARK    2  A    between atoms: C5_6  and  O1_7 
REMARK    3  A    between atoms: O1_7  and  C6_8 
ROOT
HETATM    1  C6  UNL     1      25.724   3.020  50.448  1.00  0.00     0.073 A 
HETATM    2  C7  UNL     1      26.829   3.489  49.890  1.00  0.00     0.015 A 
HETATM    3  C8  UNL     1      26.552   4.710  49.087  1.00  0.00     0.065 A 
HETATM    4  C9  UNL     1      25.071   4.860  49.288  1.00  0.00    -0.066 A 
HETATM    5  C10 UNL     1      24.618   3.906  50.053  1.00  0.00    -0.009 A 
HETATM    6  C11 UNL     1      23.285   3.597  50.546  1.00  0.00     0.094 C 
HETATM    7  C12 UNL     1      23.014   4.231  51.883  1.00  0.00     0.005 C 
HETATM    8  C13 UNL     1      21.755   4.388  52.275  1.00  0.00     0.080 C 
HETATM    9  N1  UNL     1      20.635   3.973  51.467  1.00  0.00    -0.394 N 
HETATM   10  C14 UNL     1      20.864   3.329  50.173  1.00  0.00     0.174 C 
HETATM   11  C15 UNL     1      22.153   3.931  49.681  1.00  0.00     0.036 C 
HETATM   12  N2  UNL     1      21.788   4.569  48.607  1.00  0.00    -0.296 NA
HETATM   13  C16 UNL     1      22.548   5.356  47.669  1.00  0.00     0.149 C 
HETATM   14  C17 UNL     1      23.284   6.414  48.468  1.00  0.00     0.026 C 
HETATM   15  C18 UNL     1      24.724   6.046  48.525  1.00  0.00     0.037 C 
HETATM   16  H11 UNL     1      19.673   4.161  51.865  1.00  0.00     0.159 HD
ENDROOT
BRANCH   1  17
HETATM   17  O1  UNL     1      25.582   1.889  51.273  1.00  0.00    -0.346 OA
BRANCH  17  18
HETATM   18  C5  UNL     1      25.986   2.061  52.622  1.00  0.00     0.214 C 
BRANCH  18  19
HETATM   19  C4  UNL     1      27.141   1.227  52.998  1.00  0.00    -0.034 A 
HETATM   20  C3  UNL     1      28.316   1.684  53.532  1.00  0.00     0.012 A 
HETATM   21  C2  UNL     1      29.370   0.865  53.868  1.00  0.00     0.043 A 
HETATM   22  C1  UNL     1      29.276  -0.511  53.670  1.00  0.00     0.116 A 
HETATM   23  F1  UNL     1      30.284  -1.349  53.986  1.00  0.00    -0.206 F 
HETATM   24  C20 UNL     1      28.091  -0.975  53.132  1.00  0.00     0.043 A 
HETATM   25  C19 UNL     1      27.034  -0.147  52.795  1.00  0.00     0.012 A 
ENDBRANCH  18  19
ENDBRANCH  17  18
ENDBRANCH   1  17
TORSDOF 3
ENDMDL
MODEL 9
REMARK VINA RESULT:      -7.7      2.858      5.123
REMARK  3 active torsions:
REMARK  status: ('A' for Active; 'I' for Inactive)
REMARK    1  A    between atoms: C4_5  and  C5_6 
REMARK    2  A    between atoms: C5_6  and  O1_7 
REMARK    3  A    between atoms: O1_7  and  C6_8 
ROOT
HETATM    1  C6  UNL     1      26.676   4.330  49.104  1.00  0.00     0.073 A 
HETATM    2  C7  UNL     1      27.851   4.794  48.706  1.00  0.00     0.015 A 
HETATM    3  C8  UNL     1      27.745   6.203  48.242  1.00  0.00     0.065 A 
HETATM    4  C9  UNL     1      26.281   6.468  48.448  1.00  0.00    -0.066 A 
HETATM    5  C10 UNL     1      25.692   5.410  48.931  1.00  0.00    -0.009 A 
HETATM    6  C11 UNL     1      24.311   5.143  49.304  1.00  0.00     0.094 C 
HETATM    7  C12 UNL     1      24.048   5.442  50.754  1.00  0.00     0.005 C 
HETATM    8  C13 UNL     1      22.796   5.640  51.150  1.00  0.00     0.080 C 
HETATM    9  N1  UNL     1      21.677   5.577  50.242  1.00  0.00    -0.394 N 
HETATM   10  C14 UNL     1      21.896   5.262  48.830  1.00  0.00     0.174 C 
HETATM   11  C15 UNL     1      23.265   5.816  48.534  1.00  0.00     0.036 C 
HETATM   12  N2  UNL     1      23.022   6.744  47.655  1.00  0.00    -0.296 NA
HETATM   13  C16 UNL     1      23.907   7.650  46.966  1.00  0.00     0.149 C 
HETATM   14  C17 UNL     1      24.713   8.377  48.025  1.00  0.00     0.026 C 
HETATM   15  C18 UNL     1      26.101   7.841  48.011  1.00  0.00     0.037 C 
HETATM   16  H11 UNL     1      20.723   5.769  50.658  1.00  0.00     0.159 HD
ENDROOT
BRANCH   1  17
HETATM   17  O1  UNL     1      26.374   3.050  49.606  1.00  0.00    -0.346 OA
BRANCH  17  18
HETATM   18  C5  UNL     1      26.740   2.821  50.957  1.00  0.00     0.214 C 
BRANCH  18  19
HETATM   19  C4  UNL     1      25.860   1.863  51.647  1.00  0.00    -0.034 A 
HETATM   20  C3  UNL     1      24.499   1.969  51.765  1.00  0.00     0.012 A 
HETATM   21  C2  UNL     1      23.716   1.046  52.421  1.00  0.00     0.043 A 
HETATM   22  C1  UNL     1      24.301  -0.073  53.010  1.00  0.00     0.116 A 
HETATM   23  F1  UNL     1      23.571  -1.001  53.661  1.00  0.00    -0.206 F 
HETATM   24  C20 UNL     1      25.673  -0.184  52.892  1.00  0.00     0.043 A 
HETATM   25  C19 UNL     1      26.456   0.748  52.232  1.00  0.00     0.012 A 
ENDBRANCH  18  19
ENDBRANCH  17  18
ENDBRANCH   1  17
TORSDOF 3
ENDMDL
