MODEL 1
REMARK VINA RESULT:      -7.2      0.000      0.000
REMARK  12 active torsions:
REMARK  status: ('A' for Active; 'I' for Inactive)
REMARK    1  A    between atoms: O1_2  and  C2_3 
REMARK    2  A    between atoms: C2_3  and  C3_4 
REMARK    3  A    between atoms: C3_4  and  O2_5 
REMARK    4  A    between atoms: O2_5  and  C4_6 
REMARK    5  A    between atoms: C6_8  and  C7_9 
REMARK    6  A    between atoms: C7_9  and  O3_10 
REMARK    7  A    between atoms: O3_10  and  C8_11 
REMARK    8  A    between atoms: C8_11  and  C9_12 
REMARK    9  A    between atoms: C9_12  and  C10_13 
REMARK   10  A    between atoms: C10_13  and  N1_14 
REMARK   11  A    between atoms: C16_23  and  N4_24 
REMARK   12  A    between atoms: N4_24  and  C17_25 
ROOT
HETATM    1  C4  UNL     1      23.344  -0.049  53.306  1.00  0.00     0.242 A 
HETATM    2  C5  UNL     1      22.384  -0.457  54.336  1.00  0.00     0.070 A 
HETATM    3  C6  UNL     1      21.068  -0.281  54.359  1.00  0.00     0.029 C 
HETATM    4  N2  UNL     1      22.844  -1.150  55.488  1.00  0.00    -0.244 NA
HETATM    5  C15 UNL     1      24.050  -1.488  55.734  1.00  0.00     0.235 A 
HETATM    6  N3  UNL     1      25.053  -1.152  54.788  1.00  0.00    -0.225 NA
HETATM    7  C16 UNL     1      24.745  -0.505  53.690  1.00  0.00     0.141 A 
ENDROOT
BRANCH   1   8
HETATM    8  O2  UNL     1      23.366   1.336  53.191  1.00  0.00    -0.370 OA
BRANCH   8   9
HETATM    9  C3  UNL     1      23.205   1.807  51.900  1.00  0.00     0.195 C 
BRANCH   9  10
HETATM   10  C2  UNL     1      24.167   3.001  51.780  1.00  0.00     0.193 C 
BRANCH  10  11
HETATM   11  O1  UNL     1      25.468   2.598  51.988  1.00  0.00    -0.394 OA
HETATM   12  C1  UNL     1      26.231   2.913  50.867  1.00  0.00     0.201 C 
ENDBRANCH  10  11
ENDBRANCH   9  10
ENDBRANCH   8   9
ENDBRANCH   1   8
BRANCH   3  13
HETATM   13  C7  UNL     1      20.033   0.325  53.494  1.00  0.00     0.197 C 
BRANCH  13  14
HETATM   14  O3  UNL     1      19.098  -0.526  52.988  1.00  0.00    -0.387 OA
BRANCH  14  15
HETATM   15  C8  UNL     1      18.727  -0.250  51.699  1.00  0.00     0.169 C 
BRANCH  15  16
HETATM   16  C9  UNL     1      19.841   0.533  51.043  1.00  0.00     0.046 C 
BRANCH  16  17
HETATM   17  C10 UNL     1      19.431   1.342  49.870  1.00  0.00     0.119 C 
BRANCH  17  18
HETATM   18  N1  UNL     1      20.386   1.992  49.101  1.00  0.00    -0.408 N 
HETATM   19  C11 UNL     1      20.302   3.314  48.686  1.00  0.00     0.143 C 
HETATM   20  C12 UNL     1      20.593   3.377  47.189  1.00  0.00     0.187 C 
HETATM   21  O4  UNL     1      21.815   2.875  46.852  1.00  0.00    -0.388 OA
HETATM   22  C13 UNL     1      22.446   2.134  47.826  1.00  0.00     0.187 C 
HETATM   23  C14 UNL     1      21.503   1.271  48.634  1.00  0.00     0.143 C 
ENDBRANCH  17  18
ENDBRANCH  16  17
ENDBRANCH  15  16
ENDBRANCH  14  15
ENDBRANCH  13  14
ENDBRANCH   3  13
BRANCH   7  24
HETATM   24  N4  UNL     1      25.841  -0.248  52.831  1.00  0.00    -0.342 N 
HETATM   25  H27 UNL     1      25.602   0.031  51.838  1.00  0.00     0.167 HD
BRANCH  24  26
HETATM   26  C17 UNL     1      27.209  -0.330  53.184  1.00  0.00     0.036 A 
HETATM   27  C18 UNL     1      28.048  -1.401  53.007  1.00  0.00     0.029 A 
HETATM   28  C19 UNL     1      29.379  -1.428  53.365  1.00  0.00     0.005 A 
HETATM   29  C20 UNL     1      29.945  -0.318  53.948  1.00  0.00     0.042 A 
HETATM   30  C21 UNL     1      29.154   0.773  54.149  1.00  0.00     0.118 A 
HETATM   31  F1  UNL     1      29.689   1.879  54.722  1.00  0.00    -0.206 F 
HETATM   32  C22 UNL     1      27.829   0.759  53.775  1.00  0.00     0.071 A 
ENDBRANCH  24  26
ENDBRANCH   7  24
TORSDOF 12
ENDMDL
MODEL 2
REMARK VINA RESULT:      -7.1      2.190      3.484
REMARK  12 active torsions:
REMARK  status: ('A' for Active; 'I' for Inactive)
REMARK    1  A    between atoms: O1_2  and  C2_3 
REMARK    2  A    between atoms: C2_3  and  C3_4 
REMARK    3  A    between atoms: C3_4  and  O2_5 
REMARK    4  A    between atoms: O2_5  and  C4_6 
REMARK    5  A    between atoms: C6_8  and  C7_9 
REMARK    6  A    between atoms: C7_9  and  O3_10 
REMARK    7  A    between atoms: O3_10  and  C8_11 
REMARK    8  A    between atoms: C8_11  and  C9_12 
REMARK    9  A    between atoms: C9_12  and  C10_13 
REMARK   10  A    between atoms: C10_13  and  N1_14 
REMARK   11  A    between atoms: C16_23  and  N4_24 
REMARK   12  A    between atoms: N4_24  and  C17_25 
ROOT
HETATM    1  C4  UNL     1      23.330  -0.423  53.381  1.00  0.00     0.242 A 
HETATM    2  C5  UNL     1      22.457  -0.940  54.439  1.00  0.00     0.070 A 
HETATM    3  C6  UNL     1      21.135  -1.054  54.439  1.00  0.00     0.029 C 
HETATM    4  N2  UNL     1      23.028  -1.414  55.651  1.00  0.00    -0.244 NA
HETATM    5  C15 UNL     1      24.273  -1.458  55.932  1.00  0.00     0.235 A 
HETATM    6  N3  UNL     1      25.201  -0.994  54.965  1.00  0.00    -0.225 NA
HETATM    7  C16 UNL     1      24.788  -0.527  53.812  1.00  0.00     0.141 A 
ENDROOT
BRANCH   1   8
HETATM    8  O2  UNL     1      23.054   0.918  53.143  1.00  0.00    -0.370 OA
BRANCH   8   9
HETATM    9  C3  UNL     1      22.920   1.247  51.805  1.00  0.00     0.195 C 
BRANCH   9  10
HETATM   10  C2  UNL     1      23.856   2.448  51.586  1.00  0.00     0.193 C 
BRANCH  10  11
HETATM   11  O1  UNL     1      24.957   2.075  50.847  1.00  0.00    -0.394 OA
HETATM   12  C1  UNL     1      25.975   3.005  51.040  1.00  0.00     0.201 C 
ENDBRANCH  10  11
ENDBRANCH   9  10
ENDBRANCH   8   9
ENDBRANCH   1   8
BRANCH   3  13
HETATM   13  C7  UNL     1      20.014  -0.766  53.518  1.00  0.00     0.197 C 
BRANCH  13  14
HETATM   14  O3  UNL     1      19.865   0.533  53.138  1.00  0.00    -0.387 OA
BRANCH  14  15
HETATM   15  C8  UNL     1      19.056   0.709  52.048  1.00  0.00     0.169 C 
BRANCH  15  16
HETATM   16  C9  UNL     1      18.168  -0.506  51.916  1.00  0.00     0.046 C 
BRANCH  16  17
HETATM   17  C10 UNL     1      16.943  -0.301  51.105  1.00  0.00     0.119 C 
BRANCH  17  18
HETATM   18  N1  UNL     1      15.937   0.539  51.559  1.00  0.00    -0.408 N 
HETATM   19  C11 UNL     1      15.588   1.746  50.967  1.00  0.00     0.143 C 
HETATM   20  C12 UNL     1      15.509   2.818  52.051  1.00  0.00     0.187 C 
HETATM   21  O4  UNL     1      14.618   2.526  53.041  1.00  0.00    -0.388 OA
HETATM   22  C13 UNL     1      14.172   1.223  53.077  1.00  0.00     0.187 C 
HETATM   23  C14 UNL     1      15.240   0.208  52.738  1.00  0.00     0.143 C 
ENDBRANCH  17  18
ENDBRANCH  16  17
ENDBRANCH  15  16
ENDBRANCH  14  15
ENDBRANCH  13  14
ENDBRANCH   3  13
BRANCH   7  24
HETATM   24  N4  UNL     1      25.823  -0.112  52.938  1.00  0.00    -0.342 N 
HETATM   25  H27 UNL     1      25.520   0.225  51.982  1.00  0.00     0.167 HD
BRANCH  24  26
HETATM   26  C17 UNL     1      27.206  -0.110  53.235  1.00  0.00     0.036 A 
HETATM   27  C18 UNL     1      28.093  -1.142  53.060  1.00  0.00     0.029 A 
HETATM   28  C19 UNL     1      29.437  -1.087  53.361  1.00  0.00     0.005 A 
HETATM   29  C20 UNL     1      29.967   0.073  53.877  1.00  0.00     0.042 A 
HETATM   30  C21 UNL     1      29.129   1.129  54.071  1.00  0.00     0.118 A 
HETATM   31  F1  UNL     1      29.628   2.282  54.579  1.00  0.00    -0.206 F 
HETATM   32  C22 UNL     1      27.792   1.031  53.757  1.00  0.00     0.071 A 
ENDBRANCH  24  26
ENDBRANCH   7  24
TORSDOF 12
ENDMDL
MODEL 3
REMARK VINA RESULT:      -7.1      3.068      4.874
REMARK  12 active torsions:
REMARK  status: ('A' for Active; 'I' for Inactive)
REMARK    1  A    between atoms: O1_2  and  C2_3 
REMARK    2  A    between atoms: C2_3  and  C3_4 
REMARK    3  A    between atoms: C3_4  and  O2_5 
REMARK    4  A    between atoms: O2_5  and  C4_6 
REMARK    5  A    between atoms: C6_8  and  C7_9 
REMARK    6  A    between atoms: C7_9  and  O3_10 
REMARK    7  A    between atoms: O3_10  and  C8_11 
REMARK    8  A    between atoms: C8_11  and  C9_12 
REMARK    9  A    between atoms: C9_12  and  C10_13 
REMARK   10  A    between atoms: C10_13  and  N1_14 
REMARK   11  A    between atoms: C16_23  and  N4_24 
REMARK   12  A    between atoms: N4_24  and  C17_25 
ROOT
HETATM    1  C4  UNL     1      24.666   2.402  51.793  1.00  0.00     0.242 A 
HETATM    2  C5  UNL     1      24.280   2.952  50.490  1.00  0.00     0.070 A 
HETATM    3  C6  UNL     1      23.062   3.185  50.018  1.00  0.00     0.029 C 
HETATM    4  N2  UNL     1      25.287   3.321  49.557  1.00  0.00    -0.244 NA
HETATM    5  C15 UNL     1      26.549   3.240  49.738  1.00  0.00     0.235 A 
HETATM    6  N3  UNL     1      27.023   2.734  50.976  1.00  0.00    -0.225 NA
HETATM    7  C16 UNL     1      26.185   2.356  51.909  1.00  0.00     0.141 A 
ENDROOT
BRANCH   1   8
HETATM    8  O2  UNL     1      24.192   1.104  51.927  1.00  0.00    -0.370 OA
BRANCH   8   9
HETATM    9  C3  UNL     1      23.373   0.902  53.025  1.00  0.00     0.195 C 
BRANCH   9  10
HETATM   10  C2  UNL     1      23.542  -0.582  53.391  1.00  0.00     0.193 C 
BRANCH  10  11
HETATM   11  O1  UNL     1      22.908  -0.863  54.581  1.00  0.00    -0.394 OA
HETATM   12  C1  UNL     1      21.615  -0.347  54.545  1.00  0.00     0.201 C 
ENDBRANCH  10  11
ENDBRANCH   9  10
ENDBRANCH   8   9
ENDBRANCH   1   8
BRANCH   3  13
HETATM   13  C7  UNL     1      21.665   3.039  50.482  1.00  0.00     0.197 C 
BRANCH  13  14
HETATM   14  O3  UNL     1      21.213   3.993  51.343  1.00  0.00    -0.387 OA
BRANCH  14  15
HETATM   15  C8  UNL     1      20.154   4.719  50.870  1.00  0.00     0.169 C 
BRANCH  15  16
HETATM   16  C9  UNL     1      20.694   5.915  50.121  1.00  0.00     0.046 C 
BRANCH  16  17
HETATM   17  C10 UNL     1      21.648   6.754  50.886  1.00  0.00     0.119 C 
BRANCH  17  18
HETATM   18  N1  UNL     1      22.910   7.022  50.375  1.00  0.00    -0.408 N 
HETATM   19  C11 UNL     1      23.155   7.599  49.136  1.00  0.00     0.143 C 
HETATM   20  C12 UNL     1      24.203   6.763  48.407  1.00  0.00     0.187 C 
HETATM   21  O4  UNL     1      25.377   6.645  49.090  1.00  0.00    -0.388 OA
HETATM   22  C13 UNL     1      25.336   7.018  50.415  1.00  0.00     0.187 C 
HETATM   23  C14 UNL     1      24.049   6.637  51.111  1.00  0.00     0.143 C 
ENDBRANCH  17  18
ENDBRANCH  16  17
ENDBRANCH  15  16
ENDBRANCH  14  15
ENDBRANCH  13  14
ENDBRANCH   3  13
BRANCH   7  24
HETATM   24  N4  UNL     1      26.797   1.886  53.097  1.00  0.00    -0.342 N 
HETATM   25  H27 UNL     1      26.567   2.417  53.983  1.00  0.00     0.167 HD
BRANCH  24  26
HETATM   26  C17 UNL     1      27.675   0.781  53.195  1.00  0.00     0.036 A 
HETATM   27  C18 UNL     1      28.983   0.796  53.611  1.00  0.00     0.029 A 
HETATM   28  C19 UNL     1      29.797  -0.312  53.694  1.00  0.00     0.005 A 
HETATM   29  C20 UNL     1      29.298  -1.546  53.343  1.00  0.00     0.042 A 
HETATM   30  C21 UNL     1      28.004  -1.616  52.922  1.00  0.00     0.118 A 
HETATM   31  F1  UNL     1      27.490  -2.820  52.570  1.00  0.00    -0.206 F 
HETATM   32  C22 UNL     1      27.224  -0.483  52.854  1.00  0.00     0.071 A 
ENDBRANCH  24  26
ENDBRANCH   7  24
TORSDOF 12
ENDMDL
MODEL 4
REMARK VINA RESULT:      -7.1      1.635      2.023
REMARK  12 active torsions:
REMARK  status: ('A' for Active; 'I' for Inactive)
REMARK    1  A    between atoms: O1_2  and  C2_3 
REMARK    2  A    between atoms: C2_3  and  C3_4 
REMARK    3  A    between atoms: C3_4  and  O2_5 
REMARK    4  A    between atoms: O2_5  and  C4_6 
REMARK    5  A    between atoms: C6_8  and  C7_9 
REMARK    6  A    between atoms: C7_9  and  O3_10 
REMARK    7  A    between atoms: O3_10  and  C8_11 
REMARK    8  A    between atoms: C8_11  and  C9_12 
REMARK    9  A    between atoms: C9_12  and  C10_13 
REMARK   10  A    between atoms: C10_13  and  N1_14 
REMARK   11  A    between atoms: C16_23  and  N4_24 
REMARK   12  A    between atoms: N4_24  and  C17_25 
ROOT
HETATM    1  C4  UNL     1      23.310  -0.414  53.408  1.00  0.00     0.242 A 
HETATM    2  C5  UNL     1      22.445  -0.921  54.477  1.00  0.00     0.070 A 
HETATM    3  C6  UNL     1      21.121  -1.017  54.496  1.00  0.00     0.029 C 
HETATM    4  N2  UNL     1      23.026  -1.406  55.680  1.00  0.00    -0.244 NA
HETATM    5  C15 UNL     1      24.273  -1.468  55.944  1.00  0.00     0.235 A 
HETATM    6  N3  UNL     1      25.195  -1.015  54.964  1.00  0.00    -0.225 NA
HETATM    7  C16 UNL     1      24.772  -0.540  53.818  1.00  0.00     0.141 A 
ENDROOT
BRANCH   1   8
HETATM    8  O2  UNL     1      23.050   0.931  53.176  1.00  0.00    -0.370 OA
BRANCH   8   9
HETATM    9  C3  UNL     1      22.765   1.241  51.858  1.00  0.00     0.195 C 
BRANCH   9  10
HETATM   10  C2  UNL     1      23.626   2.474  51.535  1.00  0.00     0.193 C 
BRANCH  10  11
HETATM   11  O1  UNL     1      23.833   3.230  52.668  1.00  0.00    -0.394 OA
HETATM   12  C1  UNL     1      23.196   4.459  52.522  1.00  0.00     0.201 C 
ENDBRANCH  10  11
ENDBRANCH   9  10
ENDBRANCH   8   9
ENDBRANCH   1   8
BRANCH   3  13
HETATM   13  C7  UNL     1      19.992  -0.711  53.591  1.00  0.00     0.197 C 
BRANCH  13  14
HETATM   14  O3  UNL     1      18.967  -1.608  53.581  1.00  0.00    -0.387 OA
BRANCH  14  15
HETATM   15  C8  UNL     1      17.758  -1.073  53.228  1.00  0.00     0.169 C 
BRANCH  15  16
HETATM   16  C9  UNL     1      17.834  -0.643  51.781  1.00  0.00     0.046 C 
BRANCH  16  17
HETATM   17  C10 UNL     1      17.363   0.737  51.513  1.00  0.00     0.119 C 
BRANCH  17  18
HETATM   18  N1  UNL     1      18.230   1.681  50.981  1.00  0.00    -0.408 N 
HETATM   19  C11 UNL     1      19.205   2.356  51.704  1.00  0.00     0.143 C 
HETATM   20  C12 UNL     1      19.093   3.847  51.402  1.00  0.00     0.187 C 
HETATM   21  O4  UNL     1      19.226   4.146  50.078  1.00  0.00    -0.388 OA
HETATM   22  C13 UNL     1      19.131   3.078  49.213  1.00  0.00     0.187 C 
HETATM   23  C14 UNL     1      18.100   2.054  49.628  1.00  0.00     0.143 C 
ENDBRANCH  17  18
ENDBRANCH  16  17
ENDBRANCH  15  16
ENDBRANCH  14  15
ENDBRANCH  13  14
ENDBRANCH   3  13
BRANCH   7  24
HETATM   24  N4  UNL     1      25.800  -0.138  52.931  1.00  0.00    -0.342 N 
HETATM   25  H27 UNL     1      25.492   0.165  51.965  1.00  0.00     0.167 HD
BRANCH  24  26
HETATM   26  C17 UNL     1      27.184  -0.108  53.226  1.00  0.00     0.036 A 
HETATM   27  C18 UNL     1      28.088  -1.128  53.067  1.00  0.00     0.029 A 
HETATM   28  C19 UNL     1      29.431  -1.046  53.365  1.00  0.00     0.005 A 
HETATM   29  C20 UNL     1      29.942   0.131  53.861  1.00  0.00     0.042 A 
HETATM   30  C21 UNL     1      29.086   1.176  54.040  1.00  0.00     0.118 A 
HETATM   31  F1  UNL     1      29.567   2.346  54.528  1.00  0.00    -0.206 F 
HETATM   32  C22 UNL     1      27.751   1.051  53.729  1.00  0.00     0.071 A 
ENDBRANCH  24  26
ENDBRANCH   7  24
TORSDOF 12
ENDMDL
MODEL 5
REMARK VINA RESULT:      -6.9      2.239      4.925
REMARK  12 active torsions:
REMARK  status: ('A' for Active; 'I' for Inactive)
REMARK    1  A    between atoms: O1_2  and  C2_3 
REMARK    2  A    between atoms: C2_3  and  C3_4 
REMARK    3  A    between atoms: C3_4  and  O2_5 
REMARK    4  A    between atoms: O2_5  and  C4_6 
REMARK    5  A    between atoms: C6_8  and  C7_9 
REMARK    6  A    between atoms: C7_9  and  O3_10 
REMARK    7  A    between atoms: O3_10  and  C8_11 
REMARK    8  A    between atoms: C8_11  and  C9_12 
REMARK    9  A    between atoms: C9_12  and  C10_13 
REMARK   10  A    between atoms: C10_13  and  N1_14 
REMARK   11  A    between atoms: C16_23  and  N4_24 
REMARK   12  A    between atoms: N4_24  and  C17_25 
ROOT
HETATM    1  C4  UNL     1      24.629   2.514  51.636  1.00  0.00     0.242 A 
HETATM    2  C5  UNL     1      24.240   3.011  50.313  1.00  0.00     0.070 A 
HETATM    3  C6  UNL     1      23.020   3.178  49.816  1.00  0.00     0.029 C 
HETATM    4  N2  UNL     1      25.244   3.399  49.385  1.00  0.00    -0.244 NA
HETATM    5  C15 UNL     1      26.505   3.379  49.586  1.00  0.00     0.235 A 
HETATM    6  N3  UNL     1      26.982   2.928  50.845  1.00  0.00    -0.225 NA
HETATM    7  C16 UNL     1      26.145   2.538  51.775  1.00  0.00     0.141 A 
ENDROOT
BRANCH   1   8
HETATM    8  O2  UNL     1      24.209   1.200  51.798  1.00  0.00    -0.370 OA
BRANCH   8   9
HETATM    9  C3  UNL     1      23.396   0.989  52.898  1.00  0.00     0.195 C 
BRANCH   9  10
HETATM   10  C2  UNL     1      22.370  -0.066  52.448  1.00  0.00     0.193 C 
BRANCH  10  11
HETATM   11  O1  UNL     1      22.507  -1.221  53.187  1.00  0.00    -0.394 OA
HETATM   12  C1  UNL     1      21.920  -1.039  54.436  1.00  0.00     0.201 C 
ENDBRANCH  10  11
ENDBRANCH   9  10
ENDBRANCH   8   9
ENDBRANCH   1   8
BRANCH   3  13
HETATM   13  C7  UNL     1      21.624   2.982  50.263  1.00  0.00     0.197 C 
BRANCH  13  14
HETATM   14  O3  UNL     1      20.652   3.347  49.382  1.00  0.00    -0.387 OA
BRANCH  14  15
HETATM   15  C8  UNL     1      20.037   2.296  48.758  1.00  0.00     0.169 C 
BRANCH  15  16
HETATM   16  C9  UNL     1      19.780   1.219  49.787  1.00  0.00     0.046 C 
BRANCH  16  17
HETATM   17  C10 UNL     1      18.425   1.240  50.390  1.00  0.00     0.119 C 
BRANCH  17  18
HETATM   18  N1  UNL     1      18.028   0.229  51.253  1.00  0.00    -0.408 N 
HETATM   19  C11 UNL     1      16.849  -0.495  51.134  1.00  0.00     0.143 C 
HETATM   20  C12 UNL     1      16.151  -0.518  52.491  1.00  0.00     0.187 C 
HETATM   21  O4  UNL     1      16.912  -1.056  53.486  1.00  0.00    -0.388 OA
HETATM   22  C13 UNL     1      18.251  -1.204  53.199  1.00  0.00     0.187 C 
HETATM   23  C14 UNL     1      18.823  -0.070  52.379  1.00  0.00     0.143 C 
ENDBRANCH  17  18
ENDBRANCH  16  17
ENDBRANCH  15  16
ENDBRANCH  14  15
ENDBRANCH  13  14
ENDBRANCH   3  13
BRANCH   7  24
HETATM   24  N4  UNL     1      26.758   2.128  52.984  1.00  0.00    -0.342 N 
HETATM   25  H27 UNL     1      26.521   2.695  53.845  1.00  0.00     0.167 HD
BRANCH  24  26
HETATM   26  C17 UNL     1      27.647   1.037  53.134  1.00  0.00     0.036 A 
HETATM   27  C18 UNL     1      28.965   1.088  53.513  1.00  0.00     0.029 A 
HETATM   28  C19 UNL     1      29.789  -0.008  53.650  1.00  0.00     0.005 A 
HETATM   29  C20 UNL     1      29.291  -1.265  53.397  1.00  0.00     0.042 A 
HETATM   30  C21 UNL     1      27.987  -1.371  53.015  1.00  0.00     0.118 A 
HETATM   31  F1  UNL     1      27.473  -2.600  52.759  1.00  0.00    -0.206 F 
HETATM   32  C22 UNL     1      27.198  -0.250  52.891  1.00  0.00     0.071 A 
ENDBRANCH  24  26
ENDBRANCH   7  24
TORSDOF 12
ENDMDL
MODEL 6
REMARK VINA RESULT:      -6.8      2.640      7.271
REMARK  12 active torsions:
REMARK  status: ('A' for Active; 'I' for Inactive)
REMARK    1  A    between atoms: O1_2  and  C2_3 
REMARK    2  A    between atoms: C2_3  and  C3_4 
REMARK    3  A    between atoms: C3_4  and  O2_5 
REMARK    4  A    between atoms: O2_5  and  C4_6 
REMARK    5  A    between atoms: C6_8  and  C7_9 
REMARK    6  A    between atoms: C7_9  and  O3_10 
REMARK    7  A    between atoms: O3_10  and  C8_11 
REMARK    8  A    between atoms: C8_11  and  C9_12 
REMARK    9  A    between atoms: C9_12  and  C10_13 
REMARK   10  A    between atoms: C10_13  and  N1_14 
REMARK   11  A    between atoms: C16_23  and  N4_24 
REMARK   12  A    between atoms: N4_24  and  C17_25 
ROOT
HETATM    1  C4  UNL     1      22.486   2.779  50.585  1.00  0.00     0.242 A 
HETATM    2  C5  UNL     1      23.045   3.064  49.261  1.00  0.00     0.070 A 
HETATM    3  C6  UNL     1      23.983   3.944  48.929  1.00  0.00     0.029 C 
HETATM    4  N2  UNL     1      22.583   2.335  48.132  1.00  0.00    -0.244 NA
HETATM    5  C15 UNL     1      21.708   1.406  48.140  1.00  0.00     0.235 A 
HETATM    6  N3  UNL     1      21.119   1.044  49.380  1.00  0.00    -0.225 NA
HETATM    7  C16 UNL     1      21.463   1.655  50.487  1.00  0.00     0.141 A 
ENDROOT
BRANCH   1   8
HETATM    8  O2  UNL     1      21.836   3.901  51.085  1.00  0.00    -0.370 OA
BRANCH   8   9
HETATM    9  C3  UNL     1      20.743   4.309  50.341  1.00  0.00     0.195 C 
BRANCH   9  10
HETATM   10  C2  UNL     1      20.794   5.846  50.355  1.00  0.00     0.193 C 
BRANCH  10  11
HETATM   11  O1  UNL     1      21.862   6.289  51.105  1.00  0.00    -0.394 OA
HETATM   12  C1  UNL     1      22.304   7.508  50.600  1.00  0.00     0.201 C 
ENDBRANCH  10  11
ENDBRANCH   9  10
ENDBRANCH   8   9
ENDBRANCH   1   8
BRANCH   3  13
HETATM   13  C7  UNL     1      24.829   4.946  49.612  1.00  0.00     0.197 C 
BRANCH  13  14
HETATM   14  O3  UNL     1      25.785   4.457  50.450  1.00  0.00    -0.387 OA
BRANCH  14  15
HETATM   15  C8  UNL     1      26.645   3.569  49.862  1.00  0.00     0.169 C 
BRANCH  15  16
HETATM   16  C9  UNL     1      26.558   2.258  50.610  1.00  0.00     0.046 C 
BRANCH  16  17
HETATM   17  C10 UNL     1      26.504   2.383  52.087  1.00  0.00     0.119 C 
BRANCH  17  18
HETATM   18  N1  UNL     1      27.444   1.737  52.877  1.00  0.00    -0.408 N 
HETATM   19  C11 UNL     1      27.457   0.373  53.135  1.00  0.00     0.143 C 
HETATM   20  C12 UNL     1      27.612   0.161  54.639  1.00  0.00     0.187 C 
HETATM   21  O4  UNL     1      28.739   0.728  55.155  1.00  0.00    -0.388 OA
HETATM   22  C13 UNL     1      29.380   1.633  54.338  1.00  0.00     0.187 C 
HETATM   23  C14 UNL     1      28.434   2.496  53.534  1.00  0.00     0.143 C 
ENDBRANCH  17  18
ENDBRANCH  16  17
ENDBRANCH  15  16
ENDBRANCH  14  15
ENDBRANCH  13  14
ENDBRANCH   3  13
BRANCH   7  24
HETATM   24  N4  UNL     1      20.806   1.183  51.650  1.00  0.00    -0.342 N 
HETATM   25  H27 UNL     1      19.771   1.395  51.720  1.00  0.00     0.167 HD
BRANCH  24  26
HETATM   26  C17 UNL     1      21.408   0.462  52.707  1.00  0.00     0.036 A 
HETATM   27  C18 UNL     1      20.837   0.117  53.906  1.00  0.00     0.029 A 
HETATM   28  C19 UNL     1      21.467  -0.593  54.905  1.00  0.00     0.005 A 
HETATM   29  C20 UNL     1      22.767  -1.006  54.724  1.00  0.00     0.042 A 
HETATM   30  C21 UNL     1      23.382  -0.688  53.550  1.00  0.00     0.118 A 
HETATM   31  F1  UNL     1      24.663  -1.084  53.349  1.00  0.00    -0.206 F 
HETATM   32  C22 UNL     1      22.715   0.023  52.578  1.00  0.00     0.071 A 
ENDBRANCH  24  26
ENDBRANCH   7  24
TORSDOF 12
ENDMDL
MODEL 7
REMARK VINA RESULT:      -6.8      2.995      5.118
REMARK  12 active torsions:
REMARK  status: ('A' for Active; 'I' for Inactive)
REMARK    1  A    between atoms: O1_2  and  C2_3 
REMARK    2  A    between atoms: C2_3  and  C3_4 
REMARK    3  A    between atoms: C3_4  and  O2_5 
REMARK    4  A    between atoms: O2_5  and  C4_6 
REMARK    5  A    between atoms: C6_8  and  C7_9 
REMARK    6  A    between atoms: C7_9  and  O3_10 
REMARK    7  A    between atoms: O3_10  and  C8_11 
REMARK    8  A    between atoms: C8_11  and  C9_12 
REMARK    9  A    between atoms: C9_12  and  C10_13 
REMARK   10  A    between atoms: C10_13  and  N1_14 
REMARK   11  A    between atoms: C16_23  and  N4_24 
REMARK   12  A    between atoms: N4_24  and  C17_25 
ROOT
HETATM    1  C4  UNL     1      24.679   2.632  51.648  1.00  0.00     0.242 A 
HETATM    2  C5  UNL     1      24.282   3.122  50.324  1.00  0.00     0.070 A 
HETATM    3  C6  UNL     1      23.059   3.327  49.849  1.00  0.00     0.029 C 
HETATM    4  N2  UNL     1      25.282   3.456  49.370  1.00  0.00    -0.244 NA
HETATM    5  C15 UNL     1      26.544   3.391  49.547  1.00  0.00     0.235 A 
HETATM    6  N3  UNL     1      27.029   2.943  50.803  1.00  0.00    -0.225 NA
HETATM    7  C16 UNL     1      26.198   2.600  51.756  1.00  0.00     0.141 A 
ENDROOT
BRANCH   1   8
HETATM    8  O2  UNL     1      24.214   1.337  51.840  1.00  0.00    -0.370 OA
BRANCH   8   9
HETATM    9  C3  UNL     1      23.572   1.132  53.050  1.00  0.00     0.195 C 
BRANCH   9  10
HETATM   10  C2  UNL     1      22.301   0.338  52.705  1.00  0.00     0.193 C 
BRANCH  10  11
HETATM   11  O1  UNL     1      21.387   0.416  53.734  1.00  0.00    -0.394 OA
HETATM   12  C1  UNL     1      20.318  -0.433  53.463  1.00  0.00     0.201 C 
ENDBRANCH  10  11
ENDBRANCH   9  10
ENDBRANCH   8   9
ENDBRANCH   1   8
BRANCH   3  13
HETATM   13  C7  UNL     1      21.667   3.192  50.327  1.00  0.00     0.197 C 
BRANCH  13  14
HETATM   14  O3  UNL     1      21.294   4.024  51.339  1.00  0.00    -0.387 OA
BRANCH  14  15
HETATM   15  C8  UNL     1      20.450   3.452  52.252  1.00  0.00     0.169 C 
BRANCH  15  16
HETATM   16  C9  UNL     1      19.279   2.854  51.507  1.00  0.00     0.046 C 
BRANCH  16  17
HETATM   17  C10 UNL     1      18.130   3.771  51.308  1.00  0.00     0.119 C 
BRANCH  17  18
HETATM   18  N1  UNL     1      16.837   3.335  51.559  1.00  0.00    -0.408 N 
HETATM   19  C11 UNL     1      15.747   4.170  51.766  1.00  0.00     0.143 C 
HETATM   20  C12 UNL     1      15.007   3.707  53.018  1.00  0.00     0.187 C 
HETATM   21  O4  UNL     1      14.579   2.414  52.951  1.00  0.00    -0.388 OA
HETATM   22  C13 UNL     1      15.125   1.656  51.938  1.00  0.00     0.187 C 
HETATM   23  C14 UNL     1      16.585   1.953  51.682  1.00  0.00     0.143 C 
ENDBRANCH  17  18
ENDBRANCH  16  17
ENDBRANCH  15  16
ENDBRANCH  14  15
ENDBRANCH  13  14
ENDBRANCH   3  13
BRANCH   7  24
HETATM   24  N4  UNL     1      26.820   2.186  52.960  1.00  0.00    -0.342 N 
HETATM   25  H27 UNL     1      26.629   2.782  53.814  1.00  0.00     0.167 HD
BRANCH  24  26
HETATM   26  C17 UNL     1      27.660   1.058  53.113  1.00  0.00     0.036 A 
HETATM   27  C18 UNL     1      28.964   1.048  53.539  1.00  0.00     0.029 A 
HETATM   28  C19 UNL     1      29.741  -0.082  53.676  1.00  0.00     0.005 A 
HETATM   29  C20 UNL     1      29.204  -1.312  53.374  1.00  0.00     0.042 A 
HETATM   30  C21 UNL     1      27.912  -1.358  52.945  1.00  0.00     0.118 A 
HETATM   31  F1  UNL     1      27.360  -2.559  52.640  1.00  0.00    -0.206 F 
HETATM   32  C22 UNL     1      27.171  -0.204  52.822  1.00  0.00     0.071 A 
ENDBRANCH  24  26
ENDBRANCH   7  24
TORSDOF 12
ENDMDL
MODEL 8
REMARK VINA RESULT:      -6.7      2.915      4.292
REMARK  12 active torsions:
REMARK  status: ('A' for Active; 'I' for Inactive)
REMARK    1  A    between atoms: O1_2  and  C2_3 
REMARK    2  A    between atoms: C2_3  and  C3_4 
REMARK    3  A    between atoms: C3_4  and  O2_5 
REMARK    4  A    between atoms: O2_5  and  C4_6 
REMARK    5  A    between atoms: C6_8  and  C7_9 
REMARK    6  A    between atoms: C7_9  and  O3_10 
REMARK    7  A    between atoms: O3_10  and  C8_11 
REMARK    8  A    between atoms: C8_11  and  C9_12 
REMARK    9  A    between atoms: C9_12  and  C10_13 
REMARK   10  A    between atoms: C10_13  and  N1_14 
REMARK   11  A    between atoms: C16_23  and  N4_24 
REMARK   12  A    between atoms: N4_24  and  C17_25 
ROOT
HETATM    1  C4  UNL     1      22.635  -0.095  52.985  1.00  0.00     0.242 A 
HETATM    2  C5  UNL     1      21.611  -0.612  53.898  1.00  0.00     0.070 A 
HETATM    3  C6  UNL     1      20.291  -0.605  53.752  1.00  0.00     0.029 C 
HETATM    4  N2  UNL     1      22.003  -1.230  55.116  1.00  0.00    -0.244 NA
HETATM    5  C15 UNL     1      23.201  -1.409  55.520  1.00  0.00     0.235 A 
HETATM    6  N3  UNL     1      24.266  -0.957  54.697  1.00  0.00    -0.225 NA
HETATM    7  C16 UNL     1      24.022  -0.365  53.553  1.00  0.00     0.141 A 
ENDROOT
BRANCH   1   8
HETATM    8  O2  UNL     1      22.498   1.279  52.838  1.00  0.00    -0.370 OA
BRANCH   8   9
HETATM    9  C3  UNL     1      22.235   1.694  51.544  1.00  0.00     0.195 C 
BRANCH   9  10
HETATM   10  C2  UNL     1      23.296   2.765  51.238  1.00  0.00     0.193 C 
BRANCH  10  11
HETATM   11  O1  UNL     1      24.531   2.183  51.054  1.00  0.00    -0.394 OA
HETATM   12  C1  UNL     1      25.496   3.181  50.940  1.00  0.00     0.201 C 
ENDBRANCH  10  11
ENDBRANCH   9  10
ENDBRANCH   8   9
ENDBRANCH   1   8
BRANCH   3  13
HETATM   13  C7  UNL     1      19.307  -0.145  52.748  1.00  0.00     0.197 C 
BRANCH  13  14
HETATM   14  O3  UNL     1      18.385  -1.063  52.344  1.00  0.00    -0.387 OA
BRANCH  14  15
HETATM   15  C8  UNL     1      17.214  -1.031  53.052  1.00  0.00     0.169 C 
BRANCH  15  16
HETATM   16  C9  UNL     1      16.119  -1.606  52.185  1.00  0.00     0.046 C 
BRANCH  16  17
HETATM   17  C10 UNL     1      15.203  -0.605  51.587  1.00  0.00     0.119 C 
BRANCH  17  18
HETATM   18  N1  UNL     1      14.801   0.501  52.321  1.00  0.00    -0.408 N 
HETATM   19  C11 UNL     1      13.930   0.459  53.402  1.00  0.00     0.143 C 
HETATM   20  C12 UNL     1      12.858   1.529  53.208  1.00  0.00     0.187 C 
HETATM   21  O4  UNL     1      13.363   2.789  53.084  1.00  0.00    -0.388 OA
HETATM   22  C13 UNL     1      14.718   2.869  52.849  1.00  0.00     0.187 C 
HETATM   23  C14 UNL     1      15.237   1.784  51.932  1.00  0.00     0.143 C 
ENDBRANCH  17  18
ENDBRANCH  16  17
ENDBRANCH  15  16
ENDBRANCH  14  15
ENDBRANCH  13  14
ENDBRANCH   3  13
BRANCH   7  24
HETATM   24  N4  UNL     1      25.178   0.021  52.831  1.00  0.00    -0.342 N 
HETATM   25  H27 UNL     1      25.012   0.436  51.872  1.00  0.00     0.167 HD
BRANCH  24  26
HETATM   26  C17 UNL     1      26.514  -0.099  53.280  1.00  0.00     0.036 A 
HETATM   27  C18 UNL     1      27.200   0.778  54.082  1.00  0.00     0.029 A 
HETATM   28  C19 UNL     1      28.504   0.613  54.497  1.00  0.00     0.005 A 
HETATM   29  C20 UNL     1      29.204  -0.503  54.099  1.00  0.00     0.042 A 
HETATM   30  C21 UNL     1      28.568  -1.406  53.300  1.00  0.00     0.118 A 
HETATM   31  F1  UNL     1      29.238  -2.513  52.894  1.00  0.00    -0.206 F 
HETATM   32  C22 UNL     1      27.264  -1.202  52.908  1.00  0.00     0.071 A 
ENDBRANCH  24  26
ENDBRANCH   7  24
TORSDOF 12
ENDMDL
MODEL 9
REMARK VINA RESULT:      -6.7      2.827      4.387
REMARK  12 active torsions:
REMARK  status: ('A' for Active; 'I' for Inactive)
REMARK    1  A    between atoms: O1_2  and  C2_3 
REMARK    2  A    between atoms: C2_3  and  C3_4 
REMARK    3  A    between atoms: C3_4  and  O2_5 
REMARK    4  A    between atoms: O2_5  and  C4_6 
REMARK    5  A    between atoms: C6_8  and  C7_9 
REMARK    6  A    between atoms: C7_9  and  O3_10 
REMARK    7  A    between atoms: O3_10  and  C8_11 
REMARK    8  A    between atoms: C8_11  and  C9_12 
REMARK    9  A    between atoms: C9_12  and  C10_13 
REMARK   10  A    between atoms: C10_13  and  N1_14 
REMARK   11  A    between atoms: C16_23  and  N4_24 
REMARK   12  A    between atoms: N4_24  and  C17_25 
ROOT
HETATM    1  C4  UNL     1      23.008  -0.347  53.140  1.00  0.00     0.242 A 
HETATM    2  C5  UNL     1      22.121  -0.797  54.217  1.00  0.00     0.070 A 
HETATM    3  C6  UNL     1      20.795  -0.852  54.228  1.00  0.00     0.029 C 
HETATM    4  N2  UNL     1      22.679  -1.263  55.438  1.00  0.00    -0.244 NA
HETATM    5  C15 UNL     1      23.923  -1.355  55.712  1.00  0.00     0.235 A 
HETATM    6  N3  UNL     1      24.864  -0.959  54.726  1.00  0.00    -0.225 NA
HETATM    7  C16 UNL     1      24.463  -0.505  53.564  1.00  0.00     0.141 A 
ENDROOT
BRANCH   1   8
HETATM    8  O2  UNL     1      22.790   0.997  52.867  1.00  0.00    -0.370 OA
BRANCH   8   9
HETATM    9  C3  UNL     1      22.265   1.250  51.611  1.00  0.00     0.195 C 
BRANCH   9  10
HETATM   10  C2  UNL     1      23.369   2.008  50.855  1.00  0.00     0.193 C 
BRANCH  10  11
HETATM   11  O1  UNL     1      24.272   2.558  51.738  1.00  0.00    -0.394 OA
HETATM   12  C1  UNL     1      25.251   3.246  51.026  1.00  0.00     0.201 C 
ENDBRANCH  10  11
ENDBRANCH   9  10
ENDBRANCH   8   9
ENDBRANCH   1   8
BRANCH   3  13
HETATM   13  C7  UNL     1      19.682  -0.540  53.306  1.00  0.00     0.197 C 
BRANCH  13  14
HETATM   14  O3  UNL     1      18.443  -0.951  53.696  1.00  0.00    -0.387 OA
BRANCH  14  15
HETATM   15  C8  UNL     1      17.707  -1.535  52.700  1.00  0.00     0.169 C 
BRANCH  15  16
HETATM   16  C9  UNL     1      16.671  -0.541  52.231  1.00  0.00     0.046 C 
BRANCH  16  17
HETATM   17  C10 UNL     1      15.263  -0.967  52.421  1.00  0.00     0.119 C 
BRANCH  17  18
HETATM   18  N1  UNL     1      14.758  -2.048  51.712  1.00  0.00    -0.408 N 
HETATM   19  C11 UNL     1      14.225  -3.193  52.289  1.00  0.00     0.143 C 
HETATM   20  C12 UNL     1      14.856  -4.414  51.624  1.00  0.00     0.187 C 
HETATM   21  O4  UNL     1      14.666  -4.458  50.275  1.00  0.00    -0.388 OA
HETATM   22  C13 UNL     1      14.224  -3.289  49.696  1.00  0.00     0.187 C 
HETATM   23  C14 UNL     1      14.832  -2.045  50.304  1.00  0.00     0.143 C 
ENDBRANCH  17  18
ENDBRANCH  16  17
ENDBRANCH  15  16
ENDBRANCH  14  15
ENDBRANCH  13  14
ENDBRANCH   3  13
BRANCH   7  24
HETATM   24  N4  UNL     1      25.509  -0.160  52.673  1.00  0.00    -0.342 N 
HETATM   25  H27 UNL     1      25.232  -0.010  51.663  1.00  0.00     0.167 HD
BRANCH  24  26
HETATM   26  C17 UNL     1      26.871   0.000  53.018  1.00  0.00     0.036 A 
HETATM   27  C18 UNL     1      27.831  -0.979  53.083  1.00  0.00     0.029 A 
HETATM   28  C19 UNL     1      29.150  -0.769  53.420  1.00  0.00     0.005 A 
HETATM   29  C20 UNL     1      29.577   0.504  53.720  1.00  0.00     0.042 A 
HETATM   30  C21 UNL     1      28.664   1.514  53.672  1.00  0.00     0.118 A 
HETATM   31  F1  UNL     1      29.061   2.777  53.964  1.00  0.00    -0.206 F 
HETATM   32  C22 UNL     1      27.354   1.260  53.330  1.00  0.00     0.071 A 
ENDBRANCH  24  26
ENDBRANCH   7  24
TORSDOF 12
ENDMDL
