MODEL 1
REMARK VINA RESULT:      -8.9      0.000      0.000
REMARK  5 active torsions:
REMARK  status: ('A' for Active; 'I' for Inactive)
REMARK    1  A    between atoms: C6_8  and  N2_9 
REMARK    2  A    between atoms: N2_9  and  C7_10 
REMARK    3  A    between atoms: C7_10  and  C8_11 
REMARK    4  A    between atoms: C12_18  and  N6_19 
REMARK    5  A    between atoms: N6_19  and  C13_20 
ROOT
HETATM    1  C8  UNL     1      26.799  -0.613  52.956  1.00  0.00    -0.007 A 
HETATM    2  C9  UNL     1      27.693  -1.665  52.969  1.00  0.00     0.030 A 
HETATM    3  C10 UNL     1      28.944  -1.283  53.390  1.00  0.00     0.119 A 
HETATM    4  N3  UNL     1      28.811   0.034  53.641  1.00  0.00    -0.240 N 
HETATM    5  N4  UNL     1      29.760   0.880  54.078  1.00  0.00    -0.161 NA
HETATM    6  C11 UNL     1      29.503   2.170  54.284  1.00  0.00     0.258 A 
HETATM    7  N5  UNL     1      28.258   2.601  54.039  1.00  0.00    -0.220 NA
HETATM    8  C12 UNL     1      27.308   1.787  53.608  1.00  0.00     0.159 A 
HETATM    9  C19 UNL     1      27.556   0.451  53.392  1.00  0.00     0.112 A 
ENDROOT
BRANCH   1  10
HETATM   10  C7  UNL     1      25.365  -0.596  52.580  1.00  0.00     0.156 C 
BRANCH  10  11
HETATM   11  N2  UNL     1      24.450  -0.710  53.674  1.00  0.00    -0.410 N 
HETATM   12  H12 UNL     1      24.979  -0.664  54.558  1.00  0.00     0.154 HD
BRANCH  11  13
HETATM   13  C6  UNL     1      23.226  -0.036  53.633  1.00  0.00     0.112 C 
HETATM   14  C1  UNL     1      22.187  -0.989  54.246  1.00  0.00     0.220 C 
HETATM   15  F1  UNL     1      22.849  -1.581  55.330  1.00  0.00    -0.245 F 
HETATM   16  C2  UNL     1      21.044  -0.222  54.843  1.00  0.00     0.308 C 
HETATM   17  N1  UNL     1      19.911  -0.180  53.939  1.00  0.00     0.086 N 
HETATM   18  C3  UNL     1      20.327   0.671  52.828  1.00  0.00     0.270 C 
HETATM   19  H4  UNL     1      19.114   0.287  54.404  1.00  0.00     0.315 HD
HETATM   20  C4  UNL     1      21.357   0.038  51.947  1.00  0.00     0.032 C 
HETATM   21  C5  UNL     1      22.780   0.443  52.280  1.00  0.00     0.029 C 
ENDBRANCH  11  13
ENDBRANCH  10  11
ENDBRANCH   1  10
BRANCH   8  22
HETATM   22  N6  UNL     1      26.035   2.360  53.363  1.00  0.00    -0.339 N 
HETATM   23  H18 UNL     1      25.162   2.553  53.886  1.00  0.00     0.167 HD
BRANCH  22  24
HETATM   24  C13 UNL     1      25.670   2.852  52.073  1.00  0.00     0.035 A 
HETATM   25  C14 UNL     1      26.531   2.707  50.989  1.00  0.00     0.029 A 
HETATM   26  C15 UNL     1      26.266   3.175  49.720  1.00  0.00     0.004 A 
HETATM   27  C16 UNL     1      25.080   3.833  49.476  1.00  0.00     0.024 A 
HETATM   28  C17 UNL     1      24.175   4.016  50.497  1.00  0.00     0.036 A 
HETATM   29 CL1  UNL     1      22.668   4.834  50.262  1.00  0.00    -0.084 Cl
HETATM   30  C18 UNL     1      24.505   3.528  51.719  1.00  0.00     0.053 A 
ENDBRANCH  22  24
ENDBRANCH   8  22
TORSDOF 5
ENDMDL
MODEL 2
REMARK VINA RESULT:      -8.8      3.019      6.142
REMARK  5 active torsions:
REMARK  status: ('A' for Active; 'I' for Inactive)
REMARK    1  A    between atoms: C6_8  and  N2_9 
REMARK    2  A    between atoms: N2_9  and  C7_10 
REMARK    3  A    between atoms: C7_10  and  C8_11 
REMARK    4  A    between atoms: C12_18  and  N6_19 
REMARK    5  A    between atoms: N6_19  and  C13_20 
ROOT
HETATM    1  C8  UNL     1      26.210   4.363  49.795  1.00  0.00    -0.007 A 
HETATM    2  C9  UNL     1      26.847   5.075  48.798  1.00  0.00     0.030 A 
HETATM    3  C10 UNL     1      26.289   6.317  48.605  1.00  0.00     0.119 A 
HETATM    4  N3  UNL     1      25.289   6.364  49.506  1.00  0.00    -0.240 N 
HETATM    5  N4  UNL     1      24.430   7.376  49.718  1.00  0.00    -0.161 NA
HETATM    6  C11 UNL     1      23.474   7.299  50.641  1.00  0.00     0.258 A 
HETATM    7  N5  UNL     1      23.394   6.169  51.357  1.00  0.00    -0.220 NA
HETATM    8  C12 UNL     1      24.227   5.160  51.166  1.00  0.00     0.159 A 
HETATM    9  C19 UNL     1      25.222   5.224  50.218  1.00  0.00     0.112 A 
ENDROOT
BRANCH   1  10
HETATM   10  C7  UNL     1      26.496   3.005  50.316  1.00  0.00     0.156 C 
BRANCH  10  11
HETATM   11  N2  UNL     1      27.122   2.969  51.603  1.00  0.00    -0.410 N 
HETATM   12  H12 UNL     1      27.127   3.921  51.998  1.00  0.00     0.154 HD
BRANCH  11  13
HETATM   13  C6  UNL     1      26.846   1.919  52.483  1.00  0.00     0.112 C 
HETATM   14  C1  UNL     1      28.185   1.535  53.132  1.00  0.00     0.220 C 
HETATM   15  F1  UNL     1      28.826   2.760  53.368  1.00  0.00    -0.245 F 
HETATM   16  C2  UNL     1      27.969   0.927  54.486  1.00  0.00     0.308 C 
HETATM   17  N1  UNL     1      28.019  -0.521  54.426  1.00  0.00     0.086 N 
HETATM   18  C3  UNL     1      26.821  -0.924  53.695  1.00  0.00     0.270 C 
HETATM   19  H4  UNL     1      27.943  -0.911  55.381  1.00  0.00     0.315 HD
HETATM   20  C4  UNL     1      26.872  -0.587  52.238  1.00  0.00     0.032 C 
HETATM   21  C5  UNL     1      26.175   0.714  51.887  1.00  0.00     0.029 C 
ENDBRANCH  11  13
ENDBRANCH  10  11
ENDBRANCH   1  10
BRANCH   8  22
HETATM   22  N6  UNL     1      24.034   4.007  51.968  1.00  0.00    -0.339 N 
HETATM   23  H18 UNL     1      24.352   3.642  52.884  1.00  0.00     0.167 HD
BRANCH  22  24
HETATM   24  C13 UNL     1      23.204   2.926  51.541  1.00  0.00     0.035 A 
HETATM   25  C14 UNL     1      22.701   2.011  52.462  1.00  0.00     0.029 A 
HETATM   26  C15 UNL     1      21.916   0.929  52.129  1.00  0.00     0.004 A 
HETATM   27  C16 UNL     1      21.589   0.710  50.809  1.00  0.00     0.024 A 
HETATM   28  C17 UNL     1      22.048   1.572  49.838  1.00  0.00     0.036 A 
HETATM   29 CL1  UNL     1      21.677   1.358  48.161  1.00  0.00    -0.084 Cl
HETATM   30  C18 UNL     1      22.815   2.615  50.240  1.00  0.00     0.053 A 
ENDBRANCH  22  24
ENDBRANCH   8  22
TORSDOF 5
ENDMDL
MODEL 3
REMARK VINA RESULT:      -8.7      2.660      5.111
REMARK  5 active torsions:
REMARK  status: ('A' for Active; 'I' for Inactive)
REMARK    1  A    between atoms: C6_8  and  N2_9 
REMARK    2  A    between atoms: N2_9  and  C7_10 
REMARK    3  A    between atoms: C7_10  and  C8_11 
REMARK    4  A    between atoms: C12_18  and  N6_19 
REMARK    5  A    between atoms: N6_19  and  C13_20 
ROOT
HETATM    1  C8  UNL     1      27.811   1.220  53.628  1.00  0.00    -0.007 A 
HETATM    2  C9  UNL     1      29.100   1.357  54.102  1.00  0.00     0.030 A 
HETATM    3  C10 UNL     1      29.789   0.168  54.096  1.00  0.00     0.119 A 
HETATM    4  N3  UNL     1      28.899  -0.717  53.608  1.00  0.00    -0.240 N 
HETATM    5  N4  UNL     1      29.085  -2.033  53.406  1.00  0.00    -0.161 NA
HETATM    6  C11 UNL     1      28.119  -2.808  52.919  1.00  0.00     0.258 A 
HETATM    7  N5  UNL     1      26.945  -2.229  52.634  1.00  0.00    -0.220 NA
HETATM    8  C12 UNL     1      26.738  -0.937  52.824  1.00  0.00     0.159 A 
HETATM    9  C19 UNL     1      27.726  -0.121  53.325  1.00  0.00     0.112 A 
ENDROOT
BRANCH   1  10
HETATM   10  C7  UNL     1      26.750   2.242  53.463  1.00  0.00     0.156 C 
BRANCH  10  11
HETATM   11  N2  UNL     1      26.580   2.729  52.128  1.00  0.00    -0.410 N 
HETATM   12  H12 UNL     1      27.315   2.325  51.529  1.00  0.00     0.154 HD
BRANCH  11  13
HETATM   13  C6  UNL     1      25.298   2.826  51.580  1.00  0.00     0.112 C 
HETATM   14  C1  UNL     1      25.395   3.843  50.431  1.00  0.00     0.220 C 
HETATM   15  F1  UNL     1      26.618   3.557  49.810  1.00  0.00    -0.245 F 
HETATM   16  C2  UNL     1      24.345   3.580  49.393  1.00  0.00     0.308 C 
HETATM   17  N1  UNL     1      23.204   4.458  49.566  1.00  0.00     0.086 N 
HETATM   18  C3  UNL     1      22.557   4.020  50.799  1.00  0.00     0.270 C 
HETATM   19  H4  UNL     1      22.531   4.308  48.795  1.00  0.00     0.315 HD
HETATM   20  C4  UNL     1      23.341   4.346  52.031  1.00  0.00     0.032 C 
HETATM   21  C5  UNL     1      24.197   3.197  52.532  1.00  0.00     0.029 C 
ENDBRANCH  11  13
ENDBRANCH  10  11
ENDBRANCH   1  10
BRANCH   8  22
HETATM   22  N6  UNL     1      25.449  -0.439  52.506  1.00  0.00    -0.339 N 
HETATM   23  H18 UNL     1      24.996   0.102  51.748  1.00  0.00     0.167 HD
BRANCH  22  24
HETATM   24  C13 UNL     1      24.334  -0.634  53.378  1.00  0.00     0.035 A 
HETATM   25  C14 UNL     1      24.527  -1.031  54.698  1.00  0.00     0.029 A 
HETATM   26  C15 UNL     1      23.507  -1.264  55.594  1.00  0.00     0.004 A 
HETATM   27  C16 UNL     1      22.201  -1.104  55.189  1.00  0.00     0.024 A 
HETATM   28  C17 UNL     1      21.927  -0.713  53.898  1.00  0.00     0.036 A 
HETATM   29 CL1  UNL     1      20.310  -0.492  53.320  1.00  0.00    -0.084 Cl
HETATM   30  C18 UNL     1      22.982  -0.501  53.072  1.00  0.00     0.053 A 
ENDBRANCH  22  24
ENDBRANCH   8  22
TORSDOF 5
ENDMDL
MODEL 4
REMARK VINA RESULT:      -8.6      1.820      6.063
REMARK  5 active torsions:
REMARK  status: ('A' for Active; 'I' for Inactive)
REMARK    1  A    between atoms: C6_8  and  N2_9 
REMARK    2  A    between atoms: N2_9  and  C7_10 
REMARK    3  A    between atoms: C7_10  and  C8_11 
REMARK    4  A    between atoms: C12_18  and  N6_19 
REMARK    5  A    between atoms: N6_19  and  C13_20 
ROOT
HETATM    1  C8  UNL     1      22.767  -0.285  53.380  1.00  0.00    -0.007 A 
HETATM    2  C9  UNL     1      22.443  -0.969  54.533  1.00  0.00     0.030 A 
HETATM    3  C10 UNL     1      21.095  -1.215  54.634  1.00  0.00     0.119 A 
HETATM    4  N3  UNL     1      20.583  -0.667  53.516  1.00  0.00    -0.240 N 
HETATM    5  N4  UNL     1      19.293  -0.637  53.140  1.00  0.00    -0.161 NA
HETATM    6  C11 UNL     1      18.910  -0.056  52.005  1.00  0.00     0.258 A 
HETATM    7  N5  UNL     1      19.860   0.503  51.243  1.00  0.00    -0.220 NA
HETATM    8  C12 UNL     1      21.136   0.485  51.592  1.00  0.00     0.159 A 
HETATM    9  C19 UNL     1      21.549  -0.112  52.761  1.00  0.00     0.112 A 
ENDROOT
BRANCH   1  10
HETATM   10  C7  UNL     1      24.091   0.166  52.888  1.00  0.00     0.156 C 
BRANCH  10  11
HETATM   11  N2  UNL     1      25.181  -0.711  53.192  1.00  0.00    -0.410 N 
HETATM   12  H12 UNL     1      25.028  -1.611  52.714  1.00  0.00     0.154 HD
BRANCH  11  13
HETATM   13  C6  UNL     1      26.489  -0.217  53.210  1.00  0.00     0.112 C 
HETATM   14  C1  UNL     1      26.724   0.331  54.627  1.00  0.00     0.220 C 
HETATM   15  F1  UNL     1      26.104  -0.600  55.472  1.00  0.00    -0.245 F 
HETATM   16  C2  UNL     1      28.181   0.289  54.982  1.00  0.00     0.308 C 
HETATM   17  N1  UNL     1      28.806   1.584  54.789  1.00  0.00     0.086 N 
HETATM   18  C3  UNL     1      28.830   1.795  53.344  1.00  0.00     0.270 C 
HETATM   19  H4  UNL     1      29.788   1.546  55.112  1.00  0.00     0.315 HD
HETATM   20  C4  UNL     1      27.479   2.054  52.759  1.00  0.00     0.032 C 
HETATM   21  C5  UNL     1      26.819   0.820  52.174  1.00  0.00     0.029 C 
ENDBRANCH  11  13
ENDBRANCH  10  11
ENDBRANCH   1  10
BRANCH   8  22
HETATM   22  N6  UNL     1      22.050   1.126  50.718  1.00  0.00    -0.339 N 
HETATM   23  H18 UNL     1      22.522   0.931  49.817  1.00  0.00     0.167 HD
BRANCH  22  24
HETATM   24  C13 UNL     1      22.594   2.414  51.014  1.00  0.00     0.035 A 
HETATM   25  C14 UNL     1      21.924   3.287  51.866  1.00  0.00     0.029 A 
HETATM   26  C15 UNL     1      22.366   4.553  52.182  1.00  0.00     0.004 A 
HETATM   27  C16 UNL     1      23.544   5.014  51.636  1.00  0.00     0.024 A 
HETATM   28  C17 UNL     1      24.266   4.208  50.784  1.00  0.00     0.036 A 
HETATM   29 CL1  UNL     1      25.752   4.722  50.062  1.00  0.00    -0.084 Cl
HETATM   30  C18 UNL     1      23.768   2.975  50.519  1.00  0.00     0.053 A 
ENDBRANCH  22  24
ENDBRANCH   8  22
TORSDOF 5
ENDMDL
MODEL 5
REMARK VINA RESULT:      -8.6      2.971      6.570
REMARK  5 active torsions:
REMARK  status: ('A' for Active; 'I' for Inactive)
REMARK    1  A    between atoms: C6_8  and  N2_9 
REMARK    2  A    between atoms: N2_9  and  C7_10 
REMARK    3  A    between atoms: C7_10  and  C8_11 
REMARK    4  A    between atoms: C12_18  and  N6_19 
REMARK    5  A    between atoms: N6_19  and  C13_20 
ROOT
HETATM    1  C8  UNL     1      24.999   2.809  51.845  1.00  0.00    -0.007 A 
HETATM    2  C9  UNL     1      25.997   3.026  50.917  1.00  0.00     0.030 A 
HETATM    3  C10 UNL     1      25.508   3.122  49.636  1.00  0.00     0.119 A 
HETATM    4  N3  UNL     1      24.180   2.961  49.785  1.00  0.00    -0.240 N 
HETATM    5  N4  UNL     1      23.244   2.970  48.820  1.00  0.00    -0.161 NA
HETATM    6  C11 UNL     1      21.954   2.792  49.097  1.00  0.00     0.258 A 
HETATM    7  N5  UNL     1      21.616   2.604  50.380  1.00  0.00    -0.220 NA
HETATM    8  C12 UNL     1      22.519   2.591  51.347  1.00  0.00     0.159 A 
HETATM    9  C19 UNL     1      23.855   2.774  51.078  1.00  0.00     0.112 A 
ENDROOT
BRANCH   1  10
HETATM   10  C7  UNL     1      25.093   2.655  53.316  1.00  0.00     0.156 C 
BRANCH  10  11
HETATM   11  N2  UNL     1      26.426   2.634  53.839  1.00  0.00    -0.410 N 
HETATM   12  H12 UNL     1      26.495   3.322  54.603  1.00  0.00     0.154 HD
BRANCH  11  13
HETATM   13  C6  UNL     1      27.083   1.414  54.023  1.00  0.00     0.112 C 
HETATM   14  C1  UNL     1      28.455   1.555  53.345  1.00  0.00     0.220 C 
HETATM   15  F1  UNL     1      28.871   2.856  53.660  1.00  0.00    -0.245 F 
HETATM   16  C2  UNL     1      29.463   0.644  53.981  1.00  0.00     0.308 C 
HETATM   17  N1  UNL     1      29.632  -0.572  53.209  1.00  0.00     0.086 N 
HETATM   18  C3  UNL     1      28.383  -1.312  53.366  1.00  0.00     0.270 C 
HETATM   19  H4  UNL     1      30.385  -1.146  53.627  1.00  0.00     0.315 HD
HETATM   20  C4  UNL     1      27.229  -0.690  52.645  1.00  0.00     0.032 C 
HETATM   21  C5  UNL     1      26.363   0.192  53.525  1.00  0.00     0.029 C 
ENDBRANCH  11  13
ENDBRANCH  10  11
ENDBRANCH   1  10
BRANCH   8  22
HETATM   22  N6  UNL     1      22.046   2.362  52.663  1.00  0.00    -0.339 N 
HETATM   23  H18 UNL     1      21.872   2.907  53.527  1.00  0.00     0.167 HD
BRANCH  22  24
HETATM   24  C13 UNL     1      21.669   1.058  53.108  1.00  0.00     0.035 A 
HETATM   25  C14 UNL     1      22.625   0.171  53.594  1.00  0.00     0.029 A 
HETATM   26  C15 UNL     1      22.349  -1.111  54.018  1.00  0.00     0.004 A 
HETATM   27  C16 UNL     1      21.053  -1.574  53.971  1.00  0.00     0.024 A 
HETATM   28  C17 UNL     1      20.049  -0.756  53.504  1.00  0.00     0.036 A 
HETATM   29 CL1  UNL     1      18.399  -1.272  53.418  1.00  0.00    -0.084 Cl
HETATM   30  C18 UNL     1      20.396   0.492  53.104  1.00  0.00     0.053 A 
ENDBRANCH  22  24
ENDBRANCH   8  22
TORSDOF 5
ENDMDL
MODEL 6
REMARK VINA RESULT:      -8.6      2.898      5.168
REMARK  5 active torsions:
REMARK  status: ('A' for Active; 'I' for Inactive)
REMARK    1  A    between atoms: C6_8  and  N2_9 
REMARK    2  A    between atoms: N2_9  and  C7_10 
REMARK    3  A    between atoms: C7_10  and  C8_11 
REMARK    4  A    between atoms: C12_18  and  N6_19 
REMARK    5  A    between atoms: N6_19  and  C13_20 
ROOT
HETATM    1  C8  UNL     1      23.854   4.010  51.762  1.00  0.00    -0.007 A 
HETATM    2  C9  UNL     1      23.374   5.291  51.577  1.00  0.00     0.030 A 
HETATM    3  C10 UNL     1      24.128   6.008  50.679  1.00  0.00     0.119 A 
HETATM    4  N3  UNL     1      25.091   5.144  50.306  1.00  0.00    -0.240 N 
HETATM    5  N4  UNL     1      26.092   5.364  49.436  1.00  0.00    -0.161 NA
HETATM    6  C11 UNL     1      26.992   4.425  49.154  1.00  0.00     0.258 A 
HETATM    7  N5  UNL     1      26.866   3.241  49.770  1.00  0.00    -0.220 NA
HETATM    8  C12 UNL     1      25.890   3.001  50.630  1.00  0.00     0.159 A 
HETATM    9  C19 UNL     1      24.951   3.961  50.932  1.00  0.00     0.112 A 
ENDROOT
BRANCH   1  10
HETATM   10  C7  UNL     1      23.337   2.923  52.627  1.00  0.00     0.156 C 
BRANCH  10  11
HETATM   11  N2  UNL     1      22.174   2.254  52.130  1.00  0.00    -0.410 N 
HETATM   12  H12 UNL     1      22.027   2.525  51.147  1.00  0.00     0.154 HD
BRANCH  11  13
HETATM   13  C6  UNL     1      21.949   0.913  52.458  1.00  0.00     0.112 C 
HETATM   14  C1  UNL     1      20.760   0.901  53.433  1.00  0.00     0.220 C 
HETATM   15  F1  UNL     1      19.876   1.862  52.921  1.00  0.00    -0.245 F 
HETATM   16  C2  UNL     1      20.022  -0.403  53.360  1.00  0.00     0.308 C 
HETATM   17  N1  UNL     1      20.421  -1.292  54.435  1.00  0.00     0.086 N 
HETATM   18  C3  UNL     1      21.795  -1.680  54.132  1.00  0.00     0.270 C 
HETATM   19  H4  UNL     1      19.844  -2.150  54.406  1.00  0.00     0.315 HD
HETATM   20  C4  UNL     1      22.781  -0.570  54.315  1.00  0.00     0.032 C 
HETATM   21  C5  UNL     1      23.119   0.166  53.032  1.00  0.00     0.029 C 
ENDBRANCH  11  13
ENDBRANCH  10  11
ENDBRANCH   1  10
BRANCH   8  22
HETATM   22  N6  UNL     1      25.870   1.719  51.236  1.00  0.00    -0.339 N 
HETATM   23  H18 UNL     1      25.262   0.881  51.248  1.00  0.00     0.167 HD
BRANCH  22  24
HETATM   24  C13 UNL     1      26.899   1.298  52.132  1.00  0.00     0.035 A 
HETATM   25  C14 UNL     1      27.589   2.226  52.906  1.00  0.00     0.029 A 
HETATM   26  C15 UNL     1      28.610   1.906  53.774  1.00  0.00     0.004 A 
HETATM   27  C16 UNL     1      28.996   0.590  53.908  1.00  0.00     0.024 A 
HETATM   28  C17 UNL     1      28.360  -0.388  53.177  1.00  0.00     0.036 A 
HETATM   29 CL1  UNL     1      28.793  -2.060  53.296  1.00  0.00    -0.084 Cl
HETATM   30  C18 UNL     1      27.365   0.002  52.343  1.00  0.00     0.053 A 
ENDBRANCH  22  24
ENDBRANCH   8  22
TORSDOF 5
ENDMDL
MODEL 7
REMARK VINA RESULT:      -8.5      3.080      6.084
REMARK  5 active torsions:
REMARK  status: ('A' for Active; 'I' for Inactive)
REMARK    1  A    between atoms: C6_8  and  N2_9 
REMARK    2  A    between atoms: N2_9  and  C7_10 
REMARK    3  A    between atoms: C7_10  and  C8_11 
REMARK    4  A    between atoms: C12_18  and  N6_19 
REMARK    5  A    between atoms: N6_19  and  C13_20 
ROOT
HETATM    1  C8  UNL     1      21.383   0.299  51.919  1.00  0.00    -0.007 A 
HETATM    2  C9  UNL     1      20.078   0.058  52.297  1.00  0.00     0.030 A 
HETATM    3  C10 UNL     1      19.993  -0.543  53.531  1.00  0.00     0.119 A 
HETATM    4  N3  UNL     1      21.277  -0.671  53.915  1.00  0.00    -0.240 N 
HETATM    5  N4  UNL     1      21.736  -1.208  55.059  1.00  0.00    -0.161 NA
HETATM    6  C11 UNL     1      23.039  -1.283  55.322  1.00  0.00     0.258 A 
HETATM    7  N5  UNL     1      23.886  -0.802  54.401  1.00  0.00    -0.220 NA
HETATM    8  C12 UNL     1      23.458  -0.270  53.268  1.00  0.00     0.159 A 
HETATM    9  C19 UNL     1      22.115  -0.183  52.982  1.00  0.00     0.112 A 
ENDROOT
BRANCH   1  10
HETATM   10  C7  UNL     1      21.909   0.928  50.684  1.00  0.00     0.156 C 
BRANCH  10  11
HETATM   11  N2  UNL     1      21.739   2.347  50.607  1.00  0.00    -0.410 N 
HETATM   12  H12 UNL     1      20.853   2.603  51.068  1.00  0.00     0.154 HD
BRANCH  11  13
HETATM   13  C6  UNL     1      22.831   3.192  50.823  1.00  0.00     0.112 C 
HETATM   14  C1  UNL     1      22.331   4.321  51.739  1.00  0.00     0.220 C 
HETATM   15  F1  UNL     1      21.496   3.678  52.664  1.00  0.00    -0.245 F 
HETATM   16  C2  UNL     1      23.457   4.895  52.545  1.00  0.00     0.308 C 
HETATM   17  N1  UNL     1      23.958   6.119  51.950  1.00  0.00     0.086 N 
HETATM   18  C3  UNL     1      24.620   5.711  50.714  1.00  0.00     0.270 C 
HETATM   19  H4  UNL     1      24.681   6.533  52.564  1.00  0.00     0.315 HD
HETATM   20  C4  UNL     1      23.668   5.259  49.651  1.00  0.00     0.032 C 
HETATM   21  C5  UNL     1      23.487   3.754  49.593  1.00  0.00     0.029 C 
ENDBRANCH  11  13
ENDBRANCH  10  11
ENDBRANCH   1  10
BRANCH   8  22
HETATM   22  N6  UNL     1      24.447   0.187  52.360  1.00  0.00    -0.339 N 
HETATM   23  H18 UNL     1      24.525   0.407  51.351  1.00  0.00     0.167 HD
BRANCH  22  24
HETATM   24  C13 UNL     1      25.784   0.458  52.782  1.00  0.00     0.035 A 
HETATM   25  C14 UNL     1      26.172   1.750  53.123  1.00  0.00     0.029 A 
HETATM   26  C15 UNL     1      27.446   2.100  53.514  1.00  0.00     0.004 A 
HETATM   27  C16 UNL     1      28.422   1.130  53.582  1.00  0.00     0.024 A 
HETATM   28  C17 UNL     1      28.117  -0.174  53.261  1.00  0.00     0.036 A 
HETATM   29 CL1  UNL     1      29.293  -1.442  53.324  1.00  0.00    -0.084 Cl
HETATM   30  C18 UNL     1      26.842  -0.442  52.885  1.00  0.00     0.053 A 
ENDBRANCH  22  24
ENDBRANCH   8  22
TORSDOF 5
ENDMDL
MODEL 8
REMARK VINA RESULT:      -8.4      2.622      6.024
REMARK  5 active torsions:
REMARK  status: ('A' for Active; 'I' for Inactive)
REMARK    1  A    between atoms: C6_8  and  N2_9 
REMARK    2  A    between atoms: N2_9  and  C7_10 
REMARK    3  A    between atoms: C7_10  and  C8_11 
REMARK    4  A    between atoms: C12_18  and  N6_19 
REMARK    5  A    between atoms: N6_19  and  C13_20 
ROOT
HETATM    1  C8  UNL     1      23.999   1.557  52.792  1.00  0.00    -0.007 A 
HETATM    2  C9  UNL     1      23.432   0.312  52.972  1.00  0.00     0.030 A 
HETATM    3  C10 UNL     1      22.062   0.340  52.854  1.00  0.00     0.119 A 
HETATM    4  N3  UNL     1      21.787   1.632  52.597  1.00  0.00    -0.240 N 
HETATM    5  N4  UNL     1      20.578   2.185  52.400  1.00  0.00    -0.161 NA
HETATM    6  C11 UNL     1      20.435   3.486  52.158  1.00  0.00     0.258 A 
HETATM    7  N5  UNL     1      21.547   4.234  52.115  1.00  0.00    -0.220 NA
HETATM    8  C12 UNL     1      22.748   3.713  52.306  1.00  0.00     0.159 A 
HETATM    9  C19 UNL     1      22.912   2.370  52.556  1.00  0.00     0.112 A 
ENDROOT
BRANCH   1  10
HETATM   10  C7  UNL     1      25.425   1.961  52.830  1.00  0.00     0.156 C 
BRANCH  10  11
HETATM   11  N2  UNL     1      26.049   1.860  54.114  1.00  0.00    -0.410 N 
HETATM   12  H12 UNL     1      25.320   1.879  54.842  1.00  0.00     0.154 HD
BRANCH  11  13
HETATM   13  C6  UNL     1      27.112   0.971  54.304  1.00  0.00     0.112 C 
HETATM   14  C1  UNL     1      28.327   1.591  53.594  1.00  0.00     0.220 C 
HETATM   15  F1  UNL     1      28.239   2.961  53.880  1.00  0.00    -0.245 F 
HETATM   16  C2  UNL     1      29.607   1.130  54.224  1.00  0.00     0.308 C 
HETATM   17  N1  UNL     1      30.202   0.044  53.469  1.00  0.00     0.086 N 
HETATM   18  C3  UNL     1      29.315  -1.099  53.664  1.00  0.00     0.270 C 
HETATM   19  H4  UNL     1      31.118  -0.203  53.881  1.00  0.00     0.315 HD
HETATM   20  C4  UNL     1      28.003  -0.962  52.959  1.00  0.00     0.032 C 
HETATM   21  C5  UNL     1      26.886  -0.440  53.842  1.00  0.00     0.029 C 
ENDBRANCH  11  13
ENDBRANCH  10  11
ENDBRANCH   1  10
BRANCH   8  22
HETATM   22  N6  UNL     1      23.849   4.604  52.259  1.00  0.00    -0.339 N 
HETATM   23  H18 UNL     1      24.484   5.081  52.924  1.00  0.00     0.167 HD
BRANCH  22  24
HETATM   24  C13 UNL     1      24.354   5.108  51.022  1.00  0.00     0.035 A 
HETATM   25  C14 UNL     1      23.623   6.034  50.282  1.00  0.00     0.029 A 
HETATM   26  C15 UNL     1      24.027   6.549  49.070  1.00  0.00     0.004 A 
HETATM   27  C16 UNL     1      25.226   6.142  48.528  1.00  0.00     0.024 A 
HETATM   28  C17 UNL     1      26.008   5.230  49.200  1.00  0.00     0.036 A 
HETATM   29 CL1  UNL     1      27.525   4.675  48.578  1.00  0.00    -0.084 Cl
HETATM   30  C18 UNL     1      25.546   4.767  50.387  1.00  0.00     0.053 A 
ENDBRANCH  22  24
ENDBRANCH   8  22
TORSDOF 5
ENDMDL
MODEL 9
REMARK VINA RESULT:      -8.3      3.495      7.040
REMARK  5 active torsions:
REMARK  status: ('A' for Active; 'I' for Inactive)
REMARK    1  A    between atoms: C6_8  and  N2_9 
REMARK    2  A    between atoms: N2_9  and  C7_10 
REMARK    3  A    between atoms: C7_10  and  C8_11 
REMARK    4  A    between atoms: C12_18  and  N6_19 
REMARK    5  A    between atoms: N6_19  and  C13_20 
ROOT
HETATM    1  C8  UNL     1      23.552   2.112  51.024  1.00  0.00    -0.007 A 
HETATM    2  C9  UNL     1      22.373   1.847  50.358  1.00  0.00     0.030 A 
HETATM    3  C10 UNL     1      21.679   0.801  50.919  1.00  0.00     0.119 A 
HETATM    4  N3  UNL     1      22.453   0.418  51.952  1.00  0.00    -0.240 N 
HETATM    5  N4  UNL     1      22.217  -0.578  52.823  1.00  0.00    -0.161 NA
HETATM    6  C11 UNL     1      23.069  -0.863  53.805  1.00  0.00     0.258 A 
HETATM    7  N5  UNL     1      24.179  -0.119  53.898  1.00  0.00    -0.220 NA
HETATM    8  C12 UNL     1      24.434   0.866  53.053  1.00  0.00     0.159 A 
HETATM    9  C19 UNL     1      23.563   1.175  52.033  1.00  0.00     0.112 A 
ENDROOT
BRANCH   1  10
HETATM   10  C7  UNL     1      24.579   3.147  50.753  1.00  0.00     0.156 C 
BRANCH  10  11
HETATM   11  N2  UNL     1      24.653   3.585  49.392  1.00  0.00    -0.410 N 
HETATM   12  H12 UNL     1      23.827   3.235  48.883  1.00  0.00     0.154 HD
BRANCH  11  13
HETATM   13  C6  UNL     1      25.071   4.887  49.101  1.00  0.00     0.112 C 
HETATM   14  C1  UNL     1      26.589   4.916  49.340  1.00  0.00     0.220 C 
HETATM   15  F1  UNL     1      27.048   3.692  48.835  1.00  0.00    -0.245 F 
HETATM   16  C2  UNL     1      27.243   5.970  48.496  1.00  0.00     0.308 C 
HETATM   17  N1  UNL     1      27.485   7.179  49.259  1.00  0.00     0.086 N 
HETATM   18  C3  UNL     1      26.165   7.747  49.521  1.00  0.00     0.270 C 
HETATM   19  H4  UNL     1      28.003   7.859  48.677  1.00  0.00     0.315 HD
HETATM   20  C4  UNL     1      25.363   6.957  50.506  1.00  0.00     0.032 C 
HETATM   21  C5  UNL     1      24.389   5.987  49.864  1.00  0.00     0.029 C 
ENDBRANCH  11  13
ENDBRANCH  10  11
ENDBRANCH   1  10
BRANCH   8  22
HETATM   22  N6  UNL     1      25.650   1.571  53.236  1.00  0.00    -0.339 N 
HETATM   23  H18 UNL     1      25.970   2.554  53.296  1.00  0.00     0.167 HD
BRANCH  22  24
HETATM   24  C13 UNL     1      26.897   0.890  53.382  1.00  0.00     0.035 A 
HETATM   25  C14 UNL     1      28.040   1.580  53.777  1.00  0.00     0.029 A 
HETATM   26  C15 UNL     1      29.284   1.005  53.916  1.00  0.00     0.004 A 
HETATM   27  C16 UNL     1      29.440  -0.339  53.656  1.00  0.00     0.024 A 
HETATM   28  C17 UNL     1      28.356  -1.091  53.261  1.00  0.00     0.036 A 
HETATM   29 CL1  UNL     1      28.480  -2.783  52.917  1.00  0.00    -0.084 Cl
HETATM   30  C18 UNL     1      27.164  -0.456  53.146  1.00  0.00     0.053 A 
ENDBRANCH  22  24
ENDBRANCH   8  22
TORSDOF 5
ENDMDL
