MODEL 1
REMARK VINA RESULT:      -7.8      0.000      0.000
REMARK  5 active torsions:
REMARK  status: ('A' for Active; 'I' for Inactive)
REMARK    1  A    between atoms: C6_8  and  N3_9 
REMARK    2  A    between atoms: N3_9  and  C7_10 
REMARK    3  A    between atoms: C14_18  and  O1_19 
REMARK    4  A    between atoms: O1_19  and  C15_20 
REMARK    5  A    between atoms: C15_20  and  O2_21 
ROOT
HETATM    1  C1  UNL     1      19.456  -0.582  53.066  1.00  0.00     0.046 C 
HETATM    2  C2  UNL     1      20.739   0.170  52.977  1.00  0.00    -0.048 A 
HETATM    3  C3  UNL     1      20.933   1.372  52.456  1.00  0.00     0.037 A 
HETATM    4  C4  UNL     1      22.350   1.716  52.585  1.00  0.00     0.071 A 
HETATM    5  N1  UNL     1      23.019   2.820  52.207  1.00  0.00    -0.241 NA
HETATM    6  C5  UNL     1      24.349   2.963  52.410  1.00  0.00     0.235 A 
HETATM    7  N2  UNL     1      25.020   1.941  53.021  1.00  0.00    -0.224 NA
HETATM    8  C6  UNL     1      24.336   0.846  53.393  1.00  0.00     0.140 A 
HETATM    9  C13 UNL     1      22.989   0.661  53.206  1.00  0.00     0.050 A 
HETATM   10  C14 UNL     1      22.015  -0.411  53.509  1.00  0.00     0.192 A 
ENDROOT
BRANCH   8  11
HETATM   11  N3  UNL     1      25.140  -0.131  54.010  1.00  0.00    -0.344 N 
HETATM   12  H6  UNL     1      25.172  -0.936  54.666  1.00  0.00     0.167 HD
BRANCH  11  13
HETATM   13  C7  UNL     1      26.523  -0.238  53.775  1.00  0.00     0.017 C 
HETATM   14  C8  UNL     1      27.262   0.238  54.792  1.00  0.00     0.026 C 
HETATM   15  C9  UNL     1      28.739   0.212  54.730  1.00  0.00     0.017 C 
HETATM   16  C10 UNL     1      29.290  -0.661  53.905  1.00  0.00     0.012 C 
HETATM   17  C11 UNL     1      28.523  -1.435  53.161  1.00  0.00     0.110 C 
HETATM   18  F1  UNL     1      28.926  -2.715  52.987  1.00  0.00    -0.209 F 
HETATM   19  C12 UNL     1      27.308  -0.778  52.616  1.00  0.00     0.128 C 
ENDBRANCH  11  13
ENDBRANCH   8  11
BRANCH  10  20
HETATM   20  O1  UNL     1      21.963  -0.593  54.868  1.00  0.00    -0.353 OA
BRANCH  20  21
HETATM   21  C15 UNL     1      22.275  -1.889  55.260  1.00  0.00     0.336 C 
BRANCH  21  22
HETATM   22  O2  UNL     1      23.456  -1.769  56.030  1.00  0.00    -0.377 OA
HETATM   23  H14 UNL     1      23.544  -2.524  56.660  1.00  0.00     0.212 HD
ENDBRANCH  21  22
ENDBRANCH  20  21
ENDBRANCH  10  20
TORSDOF 5
ENDMDL
MODEL 2
REMARK VINA RESULT:      -7.7      2.469      3.637
REMARK  5 active torsions:
REMARK  status: ('A' for Active; 'I' for Inactive)
REMARK    1  A    between atoms: C6_8  and  N3_9 
REMARK    2  A    between atoms: N3_9  and  C7_10 
REMARK    3  A    between atoms: C14_18  and  O1_19 
REMARK    4  A    between atoms: O1_19  and  C15_20 
REMARK    5  A    between atoms: C15_20  and  O2_21 
ROOT
HETATM    1  C1  UNL     1      23.417   3.314  49.927  1.00  0.00     0.046 C 
HETATM    2  C2  UNL     1      23.467   2.274  50.993  1.00  0.00    -0.048 A 
HETATM    3  C3  UNL     1      22.530   1.389  51.298  1.00  0.00     0.037 A 
HETATM    4  C4  UNL     1      23.007   0.567  52.411  1.00  0.00     0.071 A 
HETATM    5  N1  UNL     1      22.415  -0.452  53.061  1.00  0.00    -0.241 NA
HETATM    6  C5  UNL     1      23.018  -1.103  54.083  1.00  0.00     0.235 A 
HETATM    7  N2  UNL     1      24.269  -0.700  54.454  1.00  0.00    -0.224 NA
HETATM    8  C6  UNL     1      24.846   0.318  53.793  1.00  0.00     0.140 A 
HETATM    9  C13 UNL     1      24.271   1.005  52.752  1.00  0.00     0.050 A 
HETATM   10  C14 UNL     1      24.669   2.128  51.876  1.00  0.00     0.192 A 
ENDROOT
BRANCH   8  11
HETATM   11  N3  UNL     1      26.132   0.636  54.270  1.00  0.00    -0.344 N 
HETATM   12  H6  UNL     1      26.690   1.210  54.931  1.00  0.00     0.167 HD
BRANCH  11  13
HETATM   13  C7  UNL     1      27.300   0.028  53.775  1.00  0.00     0.017 C 
HETATM   14  C8  UNL     1      28.406   0.413  54.433  1.00  0.00     0.026 C 
HETATM   15  C9  UNL     1      29.733  -0.118  54.057  1.00  0.00     0.017 C 
HETATM   16  C10 UNL     1      29.757  -1.265  53.401  1.00  0.00     0.012 C 
HETATM   17  C11 UNL     1      28.624  -1.863  53.086  1.00  0.00     0.110 C 
HETATM   18  F1  UNL     1      28.593  -3.213  53.184  1.00  0.00    -0.209 F 
HETATM   19  C12 UNL     1      27.529  -0.954  52.665  1.00  0.00     0.128 C 
ENDBRANCH  11  13
ENDBRANCH   8  11
BRANCH  10  20
HETATM   20  O1  UNL     1      25.783   1.762  51.162  1.00  0.00    -0.353 OA
BRANCH  20  21
HETATM   21  C15 UNL     1      26.662   2.814  50.940  1.00  0.00     0.336 C 
BRANCH  21  22
HETATM   22  O2  UNL     1      27.540   2.805  52.049  1.00  0.00    -0.377 OA
HETATM   23  H14 UNL     1      27.367   2.026  52.630  1.00  0.00     0.212 HD
ENDBRANCH  21  22
ENDBRANCH  20  21
ENDBRANCH  10  20
TORSDOF 5
ENDMDL
MODEL 3
REMARK VINA RESULT:      -7.6      1.244      1.597
REMARK  5 active torsions:
REMARK  status: ('A' for Active; 'I' for Inactive)
REMARK    1  A    between atoms: C6_8  and  N3_9 
REMARK    2  A    between atoms: N3_9  and  C7_10 
REMARK    3  A    between atoms: C14_18  and  O1_19 
REMARK    4  A    between atoms: O1_19  and  C15_20 
REMARK    5  A    between atoms: C15_20  and  O2_21 
ROOT
HETATM    1  C1  UNL     1      19.605  -0.148  52.880  1.00  0.00     0.046 C 
HETATM    2  C2  UNL     1      20.987   0.346  52.622  1.00  0.00    -0.048 A 
HETATM    3  C3  UNL     1      21.342   1.417  51.928  1.00  0.00     0.037 A 
HETATM    4  C4  UNL     1      22.802   1.518  51.936  1.00  0.00     0.071 A 
HETATM    5  N1  UNL     1      23.618   2.428  51.373  1.00  0.00    -0.241 NA
HETATM    6  C5  UNL     1      24.965   2.356  51.487  1.00  0.00     0.235 A 
HETATM    7  N2  UNL     1      25.496   1.320  52.201  1.00  0.00    -0.224 NA
HETATM    8  C6  UNL     1      24.666   0.421  52.756  1.00  0.00     0.140 A 
HETATM    9  C13 UNL     1      23.297   0.456  52.666  1.00  0.00     0.050 A 
HETATM   10  C14 UNL     1      22.182  -0.378  53.165  1.00  0.00     0.192 A 
ENDROOT
BRANCH   8  11
HETATM   11  N3  UNL     1      25.338  -0.595  53.463  1.00  0.00    -0.344 N 
HETATM   12  H6  UNL     1      25.263  -1.528  53.914  1.00  0.00     0.167 HD
BRANCH  11  13
HETATM   13  C7  UNL     1      26.698  -0.510  53.810  1.00  0.00     0.017 C 
HETATM   14  C8  UNL     1      27.484  -1.265  53.024  1.00  0.00     0.026 C 
HETATM   15  C9  UNL     1      28.947  -1.308  53.233  1.00  0.00     0.017 C 
HETATM   16  C10 UNL     1      29.491  -0.288  53.875  1.00  0.00     0.012 C 
HETATM   17  C11 UNL     1      28.725   0.688  54.323  1.00  0.00     0.110 C 
HETATM   18  F1  UNL     1      29.213   1.947  54.222  1.00  0.00    -0.209 F 
HETATM   19  C12 UNL     1      27.418   0.258  54.879  1.00  0.00     0.128 C 
ENDBRANCH  11  13
ENDBRANCH   8  11
BRANCH  10  20
HETATM   20  O1  UNL     1      22.200  -0.370  54.537  1.00  0.00    -0.353 OA
BRANCH  20  21
HETATM   21  C15 UNL     1      22.207  -1.644  55.092  1.00  0.00     0.336 C 
BRANCH  21  22
HETATM   22  O2  UNL     1      23.369  -1.691  55.898  1.00  0.00    -0.377 OA
HETATM   23  H14 UNL     1      23.137  -1.629  56.855  1.00  0.00     0.212 HD
ENDBRANCH  21  22
ENDBRANCH  20  21
ENDBRANCH  10  20
TORSDOF 5
ENDMDL
MODEL 4
REMARK VINA RESULT:      -7.6      3.518      6.094
REMARK  5 active torsions:
REMARK  status: ('A' for Active; 'I' for Inactive)
REMARK    1  A    between atoms: C6_8  and  N3_9 
REMARK    2  A    between atoms: N3_9  and  C7_10 
REMARK    3  A    between atoms: C14_18  and  O1_19 
REMARK    4  A    between atoms: O1_19  and  C15_20 
REMARK    5  A    between atoms: C15_20  and  O2_21 
ROOT
HETATM    1  C1  UNL     1      28.763  -1.142  53.332  1.00  0.00     0.046 C 
HETATM    2  C2  UNL     1      27.386  -0.589  53.197  1.00  0.00    -0.048 A 
HETATM    3  C3  UNL     1      26.241  -1.245  53.313  1.00  0.00     0.037 A 
HETATM    4  C4  UNL     1      25.139  -0.304  53.103  1.00  0.00     0.071 A 
HETATM    5  N1  UNL     1      23.808  -0.499  53.121  1.00  0.00    -0.241 NA
HETATM    6  C5  UNL     1      22.929   0.506  52.901  1.00  0.00     0.235 A 
HETATM    7  N2  UNL     1      23.427   1.753  52.652  1.00  0.00    -0.224 NA
HETATM    8  C6  UNL     1      24.759   1.930  52.638  1.00  0.00     0.140 A 
HETATM    9  C13 UNL     1      25.684   0.941  52.857  1.00  0.00     0.050 A 
HETATM   10  C14 UNL     1      27.161   0.862  52.898  1.00  0.00     0.192 A 
ENDROOT
BRANCH   8  11
HETATM   11  N3  UNL     1      25.142   3.259  52.371  1.00  0.00    -0.344 N 
HETATM   12  H6  UNL     1      25.383   4.185  52.773  1.00  0.00     0.167 HD
BRANCH  11  13
HETATM   13  C7  UNL     1      25.336   3.748  51.067  1.00  0.00     0.017 C 
HETATM   14  C8  UNL     1      24.636   4.868  50.821  1.00  0.00     0.026 C 
HETATM   15  C9  UNL     1      24.710   5.533  49.503  1.00  0.00     0.017 C 
HETATM   16  C10 UNL     1      25.775   5.279  48.762  1.00  0.00     0.012 C 
HETATM   17  C11 UNL     1      26.694   4.440  49.201  1.00  0.00     0.110 C 
HETATM   18  F1  UNL     1      27.985   4.756  48.947  1.00  0.00    -0.209 F 
HETATM   19  C12 UNL     1      26.169   3.254  49.921  1.00  0.00     0.128 C 
ENDBRANCH  11  13
ENDBRANCH   8  11
BRANCH  10  20
HETATM   20  O1  UNL     1      27.621   1.667  53.911  1.00  0.00    -0.353 OA
BRANCH  20  21
HETATM   21  C15 UNL     1      28.681   2.478  53.527  1.00  0.00     0.336 C 
BRANCH  21  22
HETATM   22  O2  UNL     1      29.600   2.422  54.602  1.00  0.00    -0.377 OA
HETATM   23  H14 UNL     1      30.529   2.480  54.276  1.00  0.00     0.212 HD
ENDBRANCH  21  22
ENDBRANCH  20  21
ENDBRANCH  10  20
TORSDOF 5
ENDMDL
MODEL 5
REMARK VINA RESULT:      -7.2      2.022      3.164
REMARK  5 active torsions:
REMARK  status: ('A' for Active; 'I' for Inactive)
REMARK    1  A    between atoms: C6_8  and  N3_9 
REMARK    2  A    between atoms: N3_9  and  C7_10 
REMARK    3  A    between atoms: C14_18  and  O1_19 
REMARK    4  A    between atoms: O1_19  and  C15_20 
REMARK    5  A    between atoms: C15_20  and  O2_21 
ROOT
HETATM    1  C1  UNL     1      18.723   0.663  51.521  1.00  0.00     0.046 C 
HETATM    2  C2  UNL     1      19.848   0.202  52.382  1.00  0.00    -0.048 A 
HETATM    3  C3  UNL     1      19.792  -0.659  53.387  1.00  0.00     0.037 A 
HETATM    4  C4  UNL     1      21.136  -0.814  53.946  1.00  0.00     0.071 A 
HETATM    5  N1  UNL     1      21.575  -1.573  54.967  1.00  0.00    -0.241 NA
HETATM    6  C5  UNL     1      22.873  -1.587  55.349  1.00  0.00     0.235 A 
HETATM    7  N2  UNL     1      23.754  -0.799  54.664  1.00  0.00    -0.224 NA
HETATM    8  C6  UNL     1      23.298  -0.048  53.647  1.00  0.00     0.140 A 
HETATM    9  C13 UNL     1      21.992  -0.005  53.227  1.00  0.00     0.050 A 
HETATM   10  C14 UNL     1      21.243   0.709  52.170  1.00  0.00     0.192 A 
ENDROOT
BRANCH   8  11
HETATM   11  N3  UNL     1      24.303   0.717  53.025  1.00  0.00    -0.344 N 
HETATM   12  H6  UNL     1      24.525   1.577  52.488  1.00  0.00     0.167 HD
BRANCH  11  13
HETATM   13  C7  UNL     1      25.655   0.328  53.007  1.00  0.00     0.017 C 
HETATM   14  C8  UNL     1      26.339   0.772  54.075  1.00  0.00     0.026 C 
HETATM   15  C9  UNL     1      27.776   0.465  54.235  1.00  0.00     0.017 C 
HETATM   16  C10 UNL     1      28.241  -0.584  53.581  1.00  0.00     0.012 C 
HETATM   17  C11 UNL     1      27.436  -1.282  52.803  1.00  0.00     0.110 C 
HETATM   18  F1  UNL     1      27.594  -2.627  52.804  1.00  0.00    -0.209 F 
HETATM   19  C12 UNL     1      26.456  -0.479  52.029  1.00  0.00     0.128 C 
ENDBRANCH  11  13
ENDBRANCH   8  11
BRANCH  10  20
HETATM   20  O1  UNL     1      21.738   0.337  50.945  1.00  0.00    -0.353 OA
BRANCH  20  21
HETATM   21  C15 UNL     1      22.027   1.416  50.120  1.00  0.00     0.336 C 
BRANCH  21  22
HETATM   22  O2  UNL     1      23.207   1.986  50.654  1.00  0.00    -0.377 OA
HETATM   23  H14 UNL     1      23.375   1.656  51.569  1.00  0.00     0.212 HD
ENDBRANCH  21  22
ENDBRANCH  20  21
ENDBRANCH  10  20
TORSDOF 5
ENDMDL
MODEL 6
REMARK VINA RESULT:      -6.8      3.615      6.306
REMARK  5 active torsions:
REMARK  status: ('A' for Active; 'I' for Inactive)
REMARK    1  A    between atoms: C6_8  and  N3_9 
REMARK    2  A    between atoms: N3_9  and  C7_10 
REMARK    3  A    between atoms: C14_18  and  O1_19 
REMARK    4  A    between atoms: O1_19  and  C15_20 
REMARK    5  A    between atoms: C15_20  and  O2_21 
ROOT
HETATM    1  C1  UNL     1      28.642  -1.226  53.216  1.00  0.00     0.046 C 
HETATM    2  C2  UNL     1      27.253  -0.687  53.194  1.00  0.00    -0.048 A 
HETATM    3  C3  UNL     1      26.124  -1.368  53.318  1.00  0.00     0.037 A 
HETATM    4  C4  UNL     1      25.001  -0.432  53.237  1.00  0.00     0.071 A 
HETATM    5  N1  UNL     1      23.675  -0.650  53.309  1.00  0.00    -0.241 NA
HETATM    6  C5  UNL     1      22.773   0.353  53.211  1.00  0.00     0.235 A 
HETATM    7  N2  UNL     1      23.242   1.624  53.033  1.00  0.00    -0.224 NA
HETATM    8  C6  UNL     1      24.569   1.823  52.964  1.00  0.00     0.140 A 
HETATM    9  C13 UNL     1      25.517   0.836  53.059  1.00  0.00     0.050 A 
HETATM   10  C14 UNL     1      26.995   0.779  53.018  1.00  0.00     0.192 A 
ENDROOT
BRANCH   8  11
HETATM   11  N3  UNL     1      24.920   3.174  52.779  1.00  0.00    -0.344 N 
HETATM   12  H6  UNL     1      25.380   4.011  53.188  1.00  0.00     0.167 HD
BRANCH  11  13
HETATM   13  C7  UNL     1      24.610   3.889  51.607  1.00  0.00     0.017 C 
HETATM   14  C8  UNL     1      25.468   3.640  50.603  1.00  0.00     0.026 C 
HETATM   15  C9  UNL     1      25.306   4.299  49.290  1.00  0.00     0.017 C 
HETATM   16  C10 UNL     1      24.102   4.756  48.992  1.00  0.00     0.012 C 
HETATM   17  C11 UNL     1      23.122   4.640  49.867  1.00  0.00     0.110 C 
HETATM   18  F1  UNL     1      21.895   4.338  49.381  1.00  0.00    -0.209 F 
HETATM   19  C12 UNL     1      23.513   4.859  51.282  1.00  0.00     0.128 C 
ENDBRANCH  11  13
ENDBRANCH   8  11
BRANCH  10  20
HETATM   20  O1  UNL     1      27.497   1.513  54.064  1.00  0.00    -0.353 OA
BRANCH  20  21
HETATM   21  C15 UNL     1      28.299   2.571  53.655  1.00  0.00     0.336 C 
BRANCH  21  22
HETATM   22  O2  UNL     1      29.469   1.969  53.133  1.00  0.00    -0.377 OA
HETATM   23  H14 UNL     1      29.427   0.986  53.216  1.00  0.00     0.212 HD
ENDBRANCH  21  22
ENDBRANCH  20  21
ENDBRANCH  10  20
TORSDOF 5
ENDMDL
MODEL 7
REMARK VINA RESULT:      -6.7      3.537      6.168
REMARK  5 active torsions:
REMARK  status: ('A' for Active; 'I' for Inactive)
REMARK    1  A    between atoms: C6_8  and  N3_9 
REMARK    2  A    between atoms: N3_9  and  C7_10 
REMARK    3  A    between atoms: C14_18  and  O1_19 
REMARK    4  A    between atoms: O1_19  and  C15_20 
REMARK    5  A    between atoms: C15_20  and  O2_21 
ROOT
HETATM    1  C1  UNL     1      27.586  -0.850  52.749  1.00  0.00     0.046 C 
HETATM    2  C2  UNL     1      26.163  -0.520  53.038  1.00  0.00    -0.048 A 
HETATM    3  C3  UNL     1      25.316  -1.201  53.795  1.00  0.00     0.037 A 
HETATM    4  C4  UNL     1      24.026  -0.509  53.796  1.00  0.00     0.071 A 
HETATM    5  N1  UNL     1      22.871  -0.815  54.414  1.00  0.00    -0.241 NA
HETATM    6  C5  UNL     1      21.764  -0.046  54.297  1.00  0.00     0.235 A 
HETATM    7  N2  UNL     1      21.840   1.076  53.521  1.00  0.00    -0.224 NA
HETATM    8  C6  UNL     1      23.002   1.367  52.912  1.00  0.00     0.140 A 
HETATM    9  C13 UNL     1      24.146   0.615  53.005  1.00  0.00     0.050 A 
HETATM   10  C14 UNL     1      25.518   0.703  52.457  1.00  0.00     0.192 A 
ENDROOT
BRANCH   8  11
HETATM   11  N3  UNL     1      22.948   2.546  52.144  1.00  0.00    -0.344 N 
HETATM   12  H6  UNL     1      23.073   3.577  52.135  1.00  0.00     0.167 HD
BRANCH  11  13
HETATM   13  C7  UNL     1      22.597   2.552  50.782  1.00  0.00     0.017 C 
HETATM   14  C8  UNL     1      23.536   3.118  50.004  1.00  0.00     0.026 C 
HETATM   15  C9  UNL     1      23.348   3.218  48.542  1.00  0.00     0.017 C 
HETATM   16  C10 UNL     1      22.496   2.374  47.987  1.00  0.00     0.012 C 
HETATM   17  C11 UNL     1      21.838   1.516  48.743  1.00  0.00     0.110 C 
HETATM   18  F1  UNL     1      21.655   0.271  48.244  1.00  0.00    -0.209 F 
HETATM   19  C12 UNL     1      21.387   2.049  50.053  1.00  0.00     0.128 C 
ENDBRANCH  11  13
ENDBRANCH   8  11
BRANCH  10  20
HETATM   20  O1  UNL     1      26.107   1.855  52.915  1.00  0.00    -0.353 OA
BRANCH  20  21
HETATM   21  C15 UNL     1      26.816   2.535  51.934  1.00  0.00     0.336 C 
BRANCH  21  22
HETATM   22  O2  UNL     1      28.082   2.803  52.508  1.00  0.00    -0.377 OA
HETATM   23  H14 UNL     1      28.605   3.417  51.940  1.00  0.00     0.212 HD
ENDBRANCH  21  22
ENDBRANCH  20  21
ENDBRANCH  10  20
TORSDOF 5
ENDMDL
MODEL 8
REMARK VINA RESULT:      -6.7      3.431      6.673
REMARK  5 active torsions:
REMARK  status: ('A' for Active; 'I' for Inactive)
REMARK    1  A    between atoms: C6_8  and  N3_9 
REMARK    2  A    between atoms: N3_9  and  C7_10 
REMARK    3  A    between atoms: C14_18  and  O1_19 
REMARK    4  A    between atoms: O1_19  and  C15_20 
REMARK    5  A    between atoms: C15_20  and  O2_21 
ROOT
HETATM    1  C1  UNL     1      28.881   1.017  53.388  1.00  0.00     0.046 C 
HETATM    2  C2  UNL     1      27.539   0.505  53.786  1.00  0.00    -0.048 A 
HETATM    3  C3  UNL     1      27.223  -0.150  54.893  1.00  0.00     0.037 A 
HETATM    4  C4  UNL     1      25.793  -0.457  54.864  1.00  0.00     0.071 A 
HETATM    5  N1  UNL     1      25.019  -1.101  55.757  1.00  0.00    -0.241 NA
HETATM    6  C5  UNL     1      23.695  -1.295  55.556  1.00  0.00     0.235 A 
HETATM    7  N2  UNL     1      23.141  -0.814  54.404  1.00  0.00    -0.224 NA
HETATM    8  C6  UNL     1      23.928  -0.172  53.524  1.00  0.00     0.140 A 
HETATM    9  C13 UNL     1      25.273   0.046  53.688  1.00  0.00     0.050 A 
HETATM   10  C14 UNL     1      26.343   0.702  52.904  1.00  0.00     0.192 A 
ENDROOT
BRANCH   8  11
HETATM   11  N3  UNL     1      23.238   0.273  52.381  1.00  0.00    -0.344 N 
HETATM   12  H6  UNL     1      23.170   0.238  51.345  1.00  0.00     0.167 HD
BRANCH  11  13
HETATM   13  C7  UNL     1      22.137   1.146  52.447  1.00  0.00     0.017 C 
HETATM   14  C8  UNL     1      22.478   2.430  52.246  1.00  0.00     0.026 C 
HETATM   15  C9  UNL     1      21.456   3.498  52.278  1.00  0.00     0.017 C 
HETATM   16  C10 UNL     1      20.203   3.136  52.061  1.00  0.00     0.012 C 
HETATM   17  C11 UNL     1      19.913   1.865  51.861  1.00  0.00     0.110 C 
HETATM   18  F1  UNL     1      18.970   1.589  50.930  1.00  0.00    -0.209 F 
HETATM   19  C12 UNL     1      20.678   0.906  52.698  1.00  0.00     0.128 C 
ENDBRANCH  11  13
ENDBRANCH   8  11
BRANCH  10  20
HETATM   20  O1  UNL     1      26.034   2.032  52.756  1.00  0.00    -0.353 OA
BRANCH  20  21
HETATM   21  C15 UNL     1      26.030   2.449  51.431  1.00  0.00     0.336 C 
BRANCH  21  22
HETATM   22  O2  UNL     1      27.193   3.242  51.288  1.00  0.00    -0.377 OA
HETATM   23  H14 UNL     1      27.425   3.361  50.336  1.00  0.00     0.212 HD
ENDBRANCH  21  22
ENDBRANCH  20  21
ENDBRANCH  10  20
TORSDOF 5
ENDMDL
MODEL 9
REMARK VINA RESULT:      -6.7      3.742      6.673
REMARK  5 active torsions:
REMARK  status: ('A' for Active; 'I' for Inactive)
REMARK    1  A    between atoms: C6_8  and  N3_9 
REMARK    2  A    between atoms: N3_9  and  C7_10 
REMARK    3  A    between atoms: C14_18  and  O1_19 
REMARK    4  A    between atoms: O1_19  and  C15_20 
REMARK    5  A    between atoms: C15_20  and  O2_21 
ROOT
HETATM    1  C1  UNL     1      26.180   3.838  49.698  1.00  0.00     0.046 C 
HETATM    2  C2  UNL     1      25.792   2.778  50.671  1.00  0.00    -0.048 A 
HETATM    3  C3  UNL     1      26.548   1.793  51.132  1.00  0.00     0.037 A 
HETATM    4  C4  UNL     1      25.755   0.991  52.065  1.00  0.00     0.071 A 
HETATM    5  N1  UNL     1      26.086  -0.101  52.778  1.00  0.00    -0.241 NA
HETATM    6  C5  UNL     1      25.207  -0.718  53.601  1.00  0.00     0.235 A 
HETATM    7  N2  UNL     1      23.946  -0.202  53.700  1.00  0.00    -0.224 NA
HETATM    8  C6  UNL     1      23.633   0.890  52.982  1.00  0.00     0.140 A 
HETATM    9  C13 UNL     1      24.493   1.546  52.137  1.00  0.00     0.050 A 
HETATM   10  C14 UNL     1      24.412   2.731  51.255  1.00  0.00     0.192 A 
ENDROOT
BRANCH   8  11
HETATM   11  N3  UNL     1      22.306   1.321  53.172  1.00  0.00    -0.344 N 
HETATM   12  H6  UNL     1      21.682   2.027  53.607  1.00  0.00     0.167 HD
BRANCH  11  13
HETATM   13  C7  UNL     1      21.200   0.648  52.621  1.00  0.00     0.017 C 
HETATM   14  C8  UNL     1      20.366   0.165  53.557  1.00  0.00     0.026 C 
HETATM   15  C9  UNL     1      19.145  -0.574  53.173  1.00  0.00     0.017 C 
HETATM   16  C10 UNL     1      18.674  -0.363  51.956  1.00  0.00     0.012 C 
HETATM   17  C11 UNL     1      19.311   0.453  51.139  1.00  0.00     0.110 C 
HETATM   18  F1  UNL     1      18.551   1.251  50.352  1.00  0.00    -0.209 F 
HETATM   19  C12 UNL     1      20.792   0.378  51.203  1.00  0.00     0.128 C 
ENDBRANCH  11  13
ENDBRANCH   8  11
BRANCH  10  20
HETATM   20  O1  UNL     1      24.147   3.839  52.022  1.00  0.00    -0.353 OA
BRANCH  20  21
HETATM   21  C15 UNL     1      23.060   4.573  51.565  1.00  0.00     0.336 C 
BRANCH  21  22
HETATM   22  O2  UNL     1      21.958   4.116  52.326  1.00  0.00    -0.377 OA
HETATM   23  H14 UNL     1      21.573   4.848  52.866  1.00  0.00     0.212 HD
ENDBRANCH  21  22
ENDBRANCH  20  21
ENDBRANCH  10  20
TORSDOF 5
ENDMDL
