MODEL 1
REMARK VINA RESULT:     -10.0      0.000      0.000
REMARK  1 active torsions:
REMARK  status: ('A' for Active; 'I' for Inactive)
REMARK    1  A    between atoms: C13_15  and  O1_16 
ROOT
HETATM    1  C1  UNL     1      25.936   7.934  49.304  1.00  0.00     0.099 C 
HETATM    2  C2  UNL     1      25.914   6.427  49.443  1.00  0.00     0.138 C 
HETATM    3  N1  UNL     1      26.922   5.784  48.967  1.00  0.00    -0.240 NA
HETATM    4  C3  UNL     1      27.188   4.391  48.946  1.00  0.00     0.136 C 
HETATM    5  C4  UNL     1      26.477   3.379  49.563  1.00  0.00     0.113 C 
HETATM    6  N2  UNL     1      25.247   3.499  50.408  1.00  0.00    -0.323 N 
HETATM    7  C5  UNL     1      25.481   2.580  51.498  1.00  0.00     0.048 A 
HETATM    8  C6  UNL     1      26.786   2.229  51.750  1.00  0.00     0.030 A 
HETATM    9  C7  UNL     1      27.346   1.415  52.695  1.00  0.00     0.002 A 
HETATM   10  C8  UNL     1      26.428   0.850  53.541  1.00  0.00     0.001 A 
HETATM   11  C9  UNL     1      25.066   1.065  53.472  1.00  0.00     0.015 A 
HETATM   12  C10 UNL     1      24.707   1.895  52.478  1.00  0.00     0.006 A 
HETATM   13  C11 UNL     1      23.198   1.968  52.612  1.00  0.00     0.043 C 
HETATM   14  C12 UNL     1      22.233   1.120  52.703  1.00  0.00     0.023 C 
HETATM   15  C13 UNL     1      20.714   1.254  52.828  1.00  0.00     0.147 C 
HETATM   16  C14 UNL     1      20.095   0.515  51.648  1.00  0.00     0.053 C 
HETATM   17  C15 UNL     1      20.236   0.599  50.276  1.00  0.00    -0.015 C 
HETATM   18  C16 UNL     1      20.985   1.394  49.234  1.00  0.00    -0.001 C 
HETATM   19  C17 UNL     1      21.802   2.430  48.951  1.00  0.00     0.021 C 
HETATM   20  C18 UNL     1      22.526   3.577  49.476  1.00  0.00    -0.012 C 
HETATM   21  C19 UNL     1      22.946   4.534  50.348  1.00  0.00    -0.017 C 
HETATM   22  C20 UNL     1      23.046   5.362  51.613  1.00  0.00     0.161 C 
HETATM   23  N3  UNL     1      24.221   4.768  52.211  1.00  0.00    -0.353 N 
HETATM   24  C21 UNL     1      23.548   3.446  52.363  1.00  0.00     0.252 C 
HETATM   25  O2  UNL     1      22.400   3.572  52.055  1.00  0.00    -0.268 OA
HETATM   26  C22 UNL     1      24.333   4.463  49.845  1.00  0.00     0.267 C 
HETATM   27  O3  UNL     1      24.829   5.800  50.066  1.00  0.00    -0.308 OA
HETATM   28  H20 UNL     1      25.191   4.740  52.571  1.00  0.00     0.163 HD
ENDROOT
BRANCH  15  29
HETATM   29  O1  UNL     1      20.370   2.541  52.984  1.00  0.00    -0.391 OA
HETATM   30  H12 UNL     1      19.722   2.901  52.332  1.00  0.00     0.210 HD
ENDBRANCH  15  29
TORSDOF 1
ENDMDL
MODEL 2
REMARK VINA RESULT:      -9.8      2.724      5.345
REMARK  1 active torsions:
REMARK  status: ('A' for Active; 'I' for Inactive)
REMARK    1  A    between atoms: C13_15  and  O1_16 
ROOT
HETATM    1  C1  UNL     1      29.890  -0.743  54.167  1.00  0.00     0.099 C 
HETATM    2  C2  UNL     1      28.549  -0.738  53.465  1.00  0.00     0.138 C 
HETATM    3  N1  UNL     1      28.112  -1.870  53.036  1.00  0.00    -0.240 NA
HETATM    4  C3  UNL     1      26.910  -2.184  52.351  1.00  0.00     0.136 C 
HETATM    5  C4  UNL     1      25.835  -1.355  52.094  1.00  0.00     0.113 C 
HETATM    6  N2  UNL     1      25.670   0.085  52.471  1.00  0.00    -0.323 N 
HETATM    7  C5  UNL     1      24.297   0.175  52.913  1.00  0.00     0.048 A 
HETATM    8  C6  UNL     1      23.689  -0.994  53.304  1.00  0.00     0.030 A 
HETATM    9  C7  UNL     1      22.434  -1.256  53.781  1.00  0.00     0.002 A 
HETATM   10  C8  UNL     1      21.647  -0.138  53.884  1.00  0.00     0.001 A 
HETATM   11  C9  UNL     1      22.054   1.137  53.548  1.00  0.00     0.015 A 
HETATM   12  C10 UNL     1      23.320   1.193  53.100  1.00  0.00     0.006 A 
HETATM   13  C11 UNL     1      23.522   2.668  52.807  1.00  0.00     0.043 C 
HETATM   14  C12 UNL     1      22.893   3.577  52.146  1.00  0.00     0.023 C 
HETATM   15  C13 UNL     1      23.153   5.060  51.876  1.00  0.00     0.147 C 
HETATM   16  C14 UNL     1      23.226   5.239  50.365  1.00  0.00     0.053 C 
HETATM   17  C15 UNL     1      23.988   4.672  49.362  1.00  0.00    -0.015 C 
HETATM   18  C16 UNL     1      25.095   3.662  49.178  1.00  0.00    -0.001 C 
HETATM   19  C17 UNL     1      26.002   2.839  49.744  1.00  0.00     0.021 C 
HETATM   20  C18 UNL     1      26.597   2.366  50.984  1.00  0.00    -0.012 C 
HETATM   21  C19 UNL     1      26.895   2.286  52.310  1.00  0.00    -0.017 C 
HETATM   22  C20 UNL     1      26.925   2.628  53.785  1.00  0.00     0.161 C 
HETATM   23  N3  UNL     1      25.950   1.682  54.283  1.00  0.00    -0.353 N 
HETATM   24  C21 UNL     1      24.849   2.315  53.501  1.00  0.00     0.252 C 
HETATM   25  O2  UNL     1      25.275   3.309  52.992  1.00  0.00    -0.268 OA
HETATM   26  C22 UNL     1      26.903   0.808  52.275  1.00  0.00     0.267 C 
HETATM   27  O3  UNL     1      27.848   0.463  53.309  1.00  0.00    -0.308 OA
HETATM   28  H20 UNL     1      25.605   0.878  54.836  1.00  0.00     0.163 HD
ENDROOT
BRANCH  15  29
HETATM   29  O1  UNL     1      24.206   5.486  52.589  1.00  0.00    -0.391 OA
HETATM   30  H12 UNL     1      24.181   5.295  53.558  1.00  0.00     0.210 HD
ENDBRANCH  15  29
TORSDOF 1
ENDMDL
MODEL 3
REMARK VINA RESULT:      -9.0      1.999      6.428
REMARK  1 active torsions:
REMARK  status: ('A' for Active; 'I' for Inactive)
REMARK    1  A    between atoms: C13_15  and  O1_16 
ROOT
HETATM    1  C1  UNL     1      21.743   0.394  53.820  1.00  0.00     0.099 C 
HETATM    2  C2  UNL     1      21.946   0.948  52.427  1.00  0.00     0.138 C 
HETATM    3  N1  UNL     1      21.384   0.313  51.459  1.00  0.00    -0.240 NA
HETATM    4  C3  UNL     1      21.388   0.581  50.067  1.00  0.00     0.136 C 
HETATM    5  C4  UNL     1      21.898   1.688  49.414  1.00  0.00     0.113 C 
HETATM    6  N2  UNL     1      22.575   2.881  50.014  1.00  0.00    -0.323 N 
HETATM    7  C5  UNL     1      22.027   3.999  49.280  1.00  0.00     0.048 A 
HETATM    8  C6  UNL     1      20.827   3.799  48.641  1.00  0.00     0.030 A 
HETATM    9  C7  UNL     1      20.042   4.630  47.891  1.00  0.00     0.002 A 
HETATM   10  C8  UNL     1      20.557   5.894  47.759  1.00  0.00     0.001 A 
HETATM   11  C9  UNL     1      21.747   6.314  48.318  1.00  0.00     0.015 A 
HETATM   12  C10 UNL     1      22.375   5.355  49.020  1.00  0.00     0.006 A 
HETATM   13  C11 UNL     1      23.625   6.052  49.522  1.00  0.00     0.043 C 
HETATM   14  C12 UNL     1      24.569   6.754  48.998  1.00  0.00     0.023 C 
HETATM   15  C13 UNL     1      25.823   7.430  49.558  1.00  0.00     0.147 C 
HETATM   16  C14 UNL     1      27.020   6.854  48.812  1.00  0.00     0.053 C 
HETATM   17  C15 UNL     1      27.503   5.577  48.604  1.00  0.00    -0.015 C 
HETATM   18  C16 UNL     1      27.188   4.145  48.965  1.00  0.00    -0.001 C 
HETATM   19  C17 UNL     1      26.429   3.281  49.671  1.00  0.00     0.021 C 
HETATM   20  C18 UNL     1      25.369   3.128  50.654  1.00  0.00    -0.012 C 
HETATM   21  C19 UNL     1      24.449   3.453  51.604  1.00  0.00    -0.017 C 
HETATM   22  C20 UNL     1      23.654   4.284  52.590  1.00  0.00     0.161 C 
HETATM   23  N3  UNL     1      22.450   4.506  51.819  1.00  0.00    -0.353 N 
HETATM   24  C21 UNL     1      23.188   5.279  50.778  1.00  0.00     0.252 C 
HETATM   25  O2  UNL     1      24.313   5.432  51.152  1.00  0.00    -0.268 OA
HETATM   26  C22 UNL     1      23.472   2.482  51.071  1.00  0.00     0.267 C 
HETATM   27  O3  UNL     1      22.718   2.101  52.241  1.00  0.00    -0.308 OA
HETATM   28  H20 UNL     1      21.442   4.443  51.595  1.00  0.00     0.163 HD
ENDROOT
BRANCH  15  29
HETATM   29  O1  UNL     1      25.841   7.341  50.896  1.00  0.00    -0.391 OA
HETATM   30  H12 UNL     1      25.236   7.953  51.382  1.00  0.00     0.210 HD
ENDBRANCH  15  29
TORSDOF 1
ENDMDL
MODEL 4
REMARK VINA RESULT:      -8.9      2.528      4.039
REMARK  1 active torsions:
REMARK  status: ('A' for Active; 'I' for Inactive)
REMARK    1  A    between atoms: C13_15  and  O1_16 
ROOT
HETATM    1  C1  UNL     1      28.661   2.495  53.455  1.00  0.00     0.099 C 
HETATM    2  C2  UNL     1      27.444   1.708  53.019  1.00  0.00     0.138 C 
HETATM    3  N1  UNL     1      27.549   0.425  53.017  1.00  0.00    -0.240 NA
HETATM    4  C3  UNL     1      26.600  -0.568  52.667  1.00  0.00     0.136 C 
HETATM    5  C4  UNL     1      25.262  -0.399  52.365  1.00  0.00     0.113 C 
HETATM    6  N2  UNL     1      24.479   0.877  52.330  1.00  0.00    -0.323 N 
HETATM    7  C5  UNL     1      23.221   0.532  52.951  1.00  0.00     0.048 A 
HETATM    8  C6  UNL     1      23.209  -0.577  53.762  1.00  0.00     0.030 A 
HETATM    9  C7  UNL     1      22.214  -1.159  54.499  1.00  0.00     0.002 A 
HETATM   10  C8  UNL     1      21.013  -0.505  54.404  1.00  0.00     0.001 A 
HETATM   11  C9  UNL     1      20.799   0.630  53.648  1.00  0.00     0.015 A 
HETATM   12  C10 UNL     1      21.896   1.051  52.996  1.00  0.00     0.006 A 
HETATM   13  C11 UNL     1      21.411   2.285  52.258  1.00  0.00     0.043 C 
HETATM   14  C12 UNL     1      20.428   2.571  51.477  1.00  0.00     0.023 C 
HETATM   15  C13 UNL     1      19.991   3.843  50.747  1.00  0.00     0.147 C 
HETATM   16  C14 UNL     1      19.942   3.518  49.260  1.00  0.00     0.053 C 
HETATM   17  C15 UNL     1      20.855   3.017  48.352  1.00  0.00    -0.015 C 
HETATM   18  C16 UNL     1      22.292   2.560  48.285  1.00  0.00    -0.001 C 
HETATM   19  C17 UNL     1      23.484   2.429  48.904  1.00  0.00     0.021 C 
HETATM   20  C18 UNL     1      24.255   2.693  50.109  1.00  0.00    -0.012 C 
HETATM   21  C19 UNL     1      24.587   3.193  51.331  1.00  0.00    -0.017 C 
HETATM   22  C20 UNL     1      24.494   3.990  52.616  1.00  0.00     0.161 C 
HETATM   23  N3  UNL     1      24.056   2.952  53.524  1.00  0.00    -0.353 N 
HETATM   24  C21 UNL     1      22.771   2.769  52.790  1.00  0.00     0.252 C 
HETATM   25  O2  UNL     1      22.696   3.615  51.949  1.00  0.00    -0.268 OA
HETATM   26  C22 UNL     1      25.254   1.935  51.726  1.00  0.00     0.267 C 
HETATM   27  O3  UNL     1      26.276   2.381  52.641  1.00  0.00    -0.308 OA
HETATM   28  H20 UNL     1      24.119   2.314  54.337  1.00  0.00     0.163 HD
ENDROOT
BRANCH  15  29
HETATM   29  O1  UNL     1      20.758   4.879  51.117  1.00  0.00    -0.391 OA
HETATM   30  H12 UNL     1      21.128   5.430  50.385  1.00  0.00     0.210 HD
ENDBRANCH  15  29
TORSDOF 1
ENDMDL
MODEL 5
REMARK VINA RESULT:      -8.7      2.280      5.811
REMARK  1 active torsions:
REMARK  status: ('A' for Active; 'I' for Inactive)
REMARK    1  A    between atoms: C13_15  and  O1_16 
ROOT
HETATM    1  C1  UNL     1      17.972  -0.445  51.600  1.00  0.00     0.099 C 
HETATM    2  C2  UNL     1      19.249   0.080  52.219  1.00  0.00     0.138 C 
HETATM    3  N1  UNL     1      19.519  -0.305  53.417  1.00  0.00    -0.240 NA
HETATM    4  C3  UNL     1      20.622   0.008  54.250  1.00  0.00     0.136 C 
HETATM    5  C4  UNL     1      21.765   0.712  53.921  1.00  0.00     0.113 C 
HETATM    6  N2  UNL     1      22.124   1.321  52.601  1.00  0.00    -0.323 N 
HETATM    7  C5  UNL     1      23.527   1.011  52.444  1.00  0.00     0.048 A 
HETATM    8  C6  UNL     1      24.021  -0.038  53.181  1.00  0.00     0.030 A 
HETATM    9  C7  UNL     1      25.268  -0.595  53.256  1.00  0.00     0.002 A 
HETATM   10  C8  UNL     1      26.186   0.015  52.440  1.00  0.00     0.001 A 
HETATM   11  C9  UNL     1      25.908   1.085  51.614  1.00  0.00     0.015 A 
HETATM   12  C10 UNL     1      24.628   1.490  51.678  1.00  0.00     0.006 A 
HETATM   13  C11 UNL     1      24.579   2.649  50.701  1.00  0.00     0.043 C 
HETATM   14  C12 UNL     1      25.260   3.724  50.501  1.00  0.00     0.023 C 
HETATM   15  C13 UNL     1      25.157   4.871  49.495  1.00  0.00     0.147 C 
HETATM   16  C14 UNL     1      24.994   6.160  50.292  1.00  0.00     0.053 C 
HETATM   17  C15 UNL     1      24.100   6.595  51.251  1.00  0.00    -0.015 C 
HETATM   18  C16 UNL     1      22.872   6.122  51.990  1.00  0.00    -0.001 C 
HETATM   19  C17 UNL     1      21.919   5.179  52.145  1.00  0.00     0.021 C 
HETATM   20  C18 UNL     1      21.365   3.928  51.651  1.00  0.00    -0.012 C 
HETATM   21  C19 UNL     1      21.157   2.852  50.844  1.00  0.00    -0.017 C 
HETATM   22  C20 UNL     1      21.275   1.921  49.654  1.00  0.00     0.161 C 
HETATM   23  N3  UNL     1      22.167   0.923  50.203  1.00  0.00    -0.353 N 
HETATM   24  C21 UNL     1      23.274   1.910  50.356  1.00  0.00     0.252 C 
HETATM   25  O2  UNL     1      22.932   2.938  49.853  1.00  0.00    -0.268 OA
HETATM   26  C22 UNL     1      20.974   1.950  51.999  1.00  0.00     0.267 C 
HETATM   27  O3  UNL     1      20.073   0.945  51.489  1.00  0.00    -0.308 OA
HETATM   28  H20 UNL     1      22.454  -0.018  50.523  1.00  0.00     0.163 HD
ENDROOT
BRANCH  15  29
HETATM   29  O1  UNL     1      24.216   4.603  48.578  1.00  0.00    -0.391 OA
HETATM   30  H12 UNL     1      23.637   5.360  48.313  1.00  0.00     0.210 HD
ENDBRANCH  15  29
TORSDOF 1
ENDMDL
MODEL 6
REMARK VINA RESULT:      -8.3      7.689     10.887
REMARK  1 active torsions:
REMARK  status: ('A' for Active; 'I' for Inactive)
REMARK    1  A    between atoms: C13_15  and  O1_16 
ROOT
HETATM    1  C1  UNL     1      32.034  12.455  45.112  1.00  0.00     0.099 C 
HETATM    2  C2  UNL     1      31.780  11.433  46.198  1.00  0.00     0.138 C 
HETATM    3  N1  UNL     1      31.163  11.842  47.251  1.00  0.00    -0.240 NA
HETATM    4  C3  UNL     1      30.784  11.134  48.420  1.00  0.00     0.136 C 
HETATM    5  C4  UNL     1      30.870   9.775  48.657  1.00  0.00     0.113 C 
HETATM    6  N2  UNL     1      31.385   8.709  47.741  1.00  0.00    -0.323 N 
HETATM    7  C5  UNL     1      30.448   7.622  47.907  1.00  0.00     0.048 A 
HETATM    8  C6  UNL     1      29.207   7.938  48.407  1.00  0.00     0.030 A 
HETATM    9  C7  UNL     1      28.105   7.171  48.667  1.00  0.00     0.002 A 
HETATM   10  C8  UNL     1      28.282   5.845  48.369  1.00  0.00     0.001 A 
HETATM   11  C9  UNL     1      29.445   5.308  47.856  1.00  0.00     0.015 A 
HETATM   12  C10 UNL     1      30.416   6.219  47.669  1.00  0.00     0.006 A 
HETATM   13  C11 UNL     1      31.562   5.397  47.109  1.00  0.00     0.043 C 
HETATM   14  C12 UNL     1      32.178   4.317  47.444  1.00  0.00     0.023 C 
HETATM   15  C13 UNL     1      33.345   3.533  46.840  1.00  0.00     0.147 C 
HETATM   16  C14 UNL     1      34.433   3.449  47.903  1.00  0.00     0.053 C 
HETATM   17  C15 UNL     1      35.126   4.383  48.649  1.00  0.00    -0.015 C 
HETATM   18  C16 UNL     1      35.229   5.878  48.829  1.00  0.00    -0.001 C 
HETATM   19  C17 UNL     1      34.866   7.110  48.416  1.00  0.00     0.021 C 
HETATM   20  C18 UNL     1      34.125   7.886  47.435  1.00  0.00    -0.012 C 
HETATM   21  C19 UNL     1      33.403   8.182  46.319  1.00  0.00    -0.017 C 
HETATM   22  C20 UNL     1      32.694   8.000  44.993  1.00  0.00     0.161 C 
HETATM   23  N3  UNL     1      31.326   7.895  45.450  1.00  0.00    -0.353 N 
HETATM   24  C21 UNL     1      31.612   6.638  46.201  1.00  0.00     0.252 C 
HETATM   25  O2  UNL     1      32.730   6.298  45.951  1.00  0.00    -0.268 OA
HETATM   26  C22 UNL     1      32.569   9.159  47.050  1.00  0.00     0.267 C 
HETATM   27  O3  UNL     1      32.212  10.112  46.027  1.00  0.00    -0.308 OA
HETATM   28  H20 UNL     1      30.333   8.171  45.544  1.00  0.00     0.163 HD
ENDROOT
BRANCH  15  29
HETATM   29  O1  UNL     1      33.693   4.056  45.655  1.00  0.00    -0.391 OA
HETATM   30  H12 UNL     1      33.609   3.457  44.873  1.00  0.00     0.210 HD
ENDBRANCH  15  29
TORSDOF 1
ENDMDL
MODEL 7
REMARK VINA RESULT:      -8.2      4.051      6.634
REMARK  1 active torsions:
REMARK  status: ('A' for Active; 'I' for Inactive)
REMARK    1  A    between atoms: C13_15  and  O1_16 
ROOT
HETATM    1  C1  UNL     1      27.786  13.456  48.564  1.00  0.00     0.099 C 
HETATM    2  C2  UNL     1      27.796  12.108  47.877  1.00  0.00     0.138 C 
HETATM    3  N1  UNL     1      28.404  12.035  46.744  1.00  0.00    -0.240 NA
HETATM    4  C3  UNL     1      28.584  10.929  45.874  1.00  0.00     0.136 C 
HETATM    5  C4  UNL     1      28.257   9.606  46.101  1.00  0.00     0.113 C 
HETATM    6  N2  UNL     1      27.631   9.006  47.322  1.00  0.00    -0.323 N 
HETATM    7  C5  UNL     1      28.361   7.775  47.520  1.00  0.00     0.048 A 
HETATM    8  C6  UNL     1      29.603   7.684  46.938  1.00  0.00     0.030 A 
HETATM    9  C7  UNL     1      30.543   6.691  46.941  1.00  0.00     0.002 A 
HETATM   10  C8  UNL     1      30.166   5.588  47.663  1.00  0.00     0.001 A 
HETATM   11  C9  UNL     1      28.965   5.464  48.331  1.00  0.00     0.015 A 
HETATM   12  C10 UNL     1      28.174   6.544  48.211  1.00  0.00     0.006 A 
HETATM   13  C11 UNL     1      26.945   6.168  49.017  1.00  0.00     0.043 C 
HETATM   14  C12 UNL     1      26.137   5.166  49.063  1.00  0.00     0.023 C 
HETATM   15  C13 UNL     1      24.897   4.843  49.899  1.00  0.00     0.147 C 
HETATM   16  C14 UNL     1      23.744   4.614  48.929  1.00  0.00     0.053 C 
HETATM   17  C15 UNL     1      23.170   5.362  47.919  1.00  0.00    -0.015 C 
HETATM   18  C16 UNL     1      23.307   6.710  47.254  1.00  0.00    -0.001 C 
HETATM   19  C17 UNL     1      23.896   7.924  47.234  1.00  0.00     0.021 C 
HETATM   20  C18 UNL     1      24.818   8.832  47.898  1.00  0.00    -0.012 C 
HETATM   21  C19 UNL     1      25.649   9.340  48.848  1.00  0.00    -0.017 C 
HETATM   22  C20 UNL     1      26.401   9.476  50.157  1.00  0.00     0.161 C 
HETATM   23  N3  UNL     1      27.701   8.985  49.753  1.00  0.00    -0.353 N 
HETATM   24  C21 UNL     1      27.161   7.625  49.462  1.00  0.00     0.252 C 
HETATM   25  O2  UNL     1      26.021   7.590  49.817  1.00  0.00    -0.268 OA
HETATM   26  C22 UNL     1      26.586   9.860  47.831  1.00  0.00     0.267 C 
HETATM   27  O3  UNL     1      27.162  11.014  48.478  1.00  0.00    -0.308 OA
HETATM   28  H20 UNL     1      28.717   9.033  49.568  1.00  0.00     0.163 HD
ENDROOT
BRANCH  15  29
HETATM   29  O1  UNL     1      24.717   5.777  50.845  1.00  0.00    -0.391 OA
HETATM   30  H12 UNL     1      24.857   6.714  50.564  1.00  0.00     0.210 HD
ENDBRANCH  15  29
TORSDOF 1
ENDMDL
MODEL 8
REMARK VINA RESULT:      -8.0      3.351      5.720
REMARK  1 active torsions:
REMARK  status: ('A' for Active; 'I' for Inactive)
REMARK    1  A    between atoms: C13_15  and  O1_16 
ROOT
HETATM    1  C1  UNL     1      25.792  12.760  48.100  1.00  0.00     0.099 C 
HETATM    2  C2  UNL     1      26.082  11.383  47.544  1.00  0.00     0.138 C 
HETATM    3  N1  UNL     1      26.735  11.327  46.436  1.00  0.00    -0.240 NA
HETATM    4  C3  UNL     1      27.152  10.204  45.678  1.00  0.00     0.136 C 
HETATM    5  C4  UNL     1      27.074   8.868  46.023  1.00  0.00     0.113 C 
HETATM    6  N2  UNL     1      26.527   8.271  47.282  1.00  0.00    -0.323 N 
HETATM    7  C5  UNL     1      27.469   7.225  47.610  1.00  0.00     0.048 A 
HETATM    8  C6  UNL     1      28.726   7.322  47.063  1.00  0.00     0.030 A 
HETATM    9  C7  UNL     1      29.836   6.532  47.179  1.00  0.00     0.002 A 
HETATM   10  C8  UNL     1      29.649   5.446  47.994  1.00  0.00     0.001 A 
HETATM   11  C9  UNL     1      28.469   5.154  48.647  1.00  0.00     0.015 A 
HETATM   12  C10 UNL     1      27.492   6.047  48.410  1.00  0.00     0.006 A 
HETATM   13  C11 UNL     1      26.328   5.516  49.224  1.00  0.00     0.043 C 
HETATM   14  C12 UNL     1      25.723   4.386  49.348  1.00  0.00     0.023 C 
HETATM   15  C13 UNL     1      24.536   3.907  50.186  1.00  0.00     0.147 C 
HETATM   16  C14 UNL     1      23.484   3.376  49.221  1.00  0.00     0.053 C 
HETATM   17  C15 UNL     1      22.817   3.906  48.134  1.00  0.00    -0.015 C 
HETATM   18  C16 UNL     1      22.721   5.191  47.347  1.00  0.00    -0.001 C 
HETATM   19  C17 UNL     1      23.070   6.489  47.223  1.00  0.00     0.021 C 
HETATM   20  C18 UNL     1      23.778   7.612  47.817  1.00  0.00    -0.012 C 
HETATM   21  C19 UNL     1      24.463   8.353  48.731  1.00  0.00    -0.017 C 
HETATM   22  C20 UNL     1      25.126   8.746  50.035  1.00  0.00     0.161 C 
HETATM   23  N3  UNL     1      26.509   8.479  49.705  1.00  0.00    -0.353 N 
HETATM   24  C21 UNL     1      26.248   7.021  49.533  1.00  0.00     0.252 C 
HETATM   25  O2  UNL     1      25.122   6.800  49.867  1.00  0.00    -0.268 OA
HETATM   26  C22 UNL     1      25.321   8.950  47.687  1.00  0.00     0.267 C 
HETATM   27  O3  UNL     1      25.644  10.246  48.233  1.00  0.00    -0.308 OA
HETATM   28  H20 UNL     1      27.505   8.705  49.536  1.00  0.00     0.163 HD
ENDROOT
BRANCH  15  29
HETATM   29  O1  UNL     1      24.148   4.869  51.037  1.00  0.00    -0.391 OA
HETATM   30  H12 UNL     1      24.859   5.468  51.371  1.00  0.00     0.210 HD
ENDBRANCH  15  29
TORSDOF 1
ENDMDL
MODEL 9
REMARK VINA RESULT:      -7.9      3.242      6.096
REMARK  1 active torsions:
REMARK  status: ('A' for Active; 'I' for Inactive)
REMARK    1  A    between atoms: C13_15  and  O1_16 
ROOT
HETATM    1  C1  UNL     1      18.901   3.268  45.482  1.00  0.00     0.099 C 
HETATM    2  C2  UNL     1      18.841   3.197  46.993  1.00  0.00     0.138 C 
HETATM    3  N1  UNL     1      17.701   3.434  47.542  1.00  0.00    -0.240 NA
HETATM    4  C3  UNL     1      17.332   3.442  48.911  1.00  0.00     0.136 C 
HETATM    5  C4  UNL     1      18.092   3.058  50.000  1.00  0.00     0.113 C 
HETATM    6  N2  UNL     1      19.497   2.540  50.008  1.00  0.00    -0.323 N 
HETATM    7  C5  UNL     1      19.465   1.462  50.970  1.00  0.00     0.048 A 
HETATM    8  C6  UNL     1      18.238   0.909  51.249  1.00  0.00     0.030 A 
HETATM    9  C7  UNL     1      17.864  -0.113  52.077  1.00  0.00     0.002 A 
HETATM   10  C8  UNL     1      18.915  -0.684  52.747  1.00  0.00     0.001 A 
HETATM   11  C9  UNL     1      20.231  -0.289  52.617  1.00  0.00     0.015 A 
HETATM   12  C10 UNL     1      20.400   0.730  51.757  1.00  0.00     0.006 A 
HETATM   13  C11 UNL     1      21.898   0.970  51.789  1.00  0.00     0.043 C 
HETATM   14  C12 UNL     1      22.788   1.153  52.701  1.00  0.00     0.023 C 
HETATM   15  C13 UNL     1      24.297   1.402  52.674  1.00  0.00     0.147 C 
HETATM   16  C14 UNL     1      24.551   2.725  53.384  1.00  0.00     0.053 C 
HETATM   17  C15 UNL     1      24.088   4.015  53.214  1.00  0.00    -0.015 C 
HETATM   18  C16 UNL     1      23.171   4.809  52.314  1.00  0.00    -0.001 C 
HETATM   19  C17 UNL     1      22.391   4.841  51.214  1.00  0.00     0.021 C 
HETATM   20  C18 UNL     1      21.906   4.111  50.054  1.00  0.00    -0.012 C 
HETATM   21  C19 UNL     1      21.786   3.126  49.122  1.00  0.00    -0.017 C 
HETATM   22  C20 UNL     1      22.061   1.844  48.361  1.00  0.00     0.161 C 
HETATM   23  N3  UNL     1      21.024   0.998  48.911  1.00  0.00    -0.353 N 
HETATM   24  C21 UNL     1      21.611   1.068  50.280  1.00  0.00     0.252 C 
HETATM   25  O2  UNL     1      22.655   1.644  50.212  1.00  0.00    -0.268 OA
HETATM   26  C22 UNL     1      20.317   3.273  49.075  1.00  0.00     0.267 C 
HETATM   27  O3  UNL     1      19.994   2.885  47.723  1.00  0.00    -0.308 OA
HETATM   28  H20 UNL     1      20.172   0.411  48.896  1.00  0.00     0.163 HD
ENDROOT
BRANCH  15  29
HETATM   29  O1  UNL     1      24.766   1.285  51.422  1.00  0.00    -0.391 OA
HETATM   30  H12 UNL     1      25.739   1.408  51.309  1.00  0.00     0.210 HD
ENDBRANCH  15  29
TORSDOF 1
ENDMDL
