MODEL 1
REMARK VINA RESULT:      -7.9      0.000      0.000
REMARK  6 active torsions:
REMARK  status: ('A' for Active; 'I' for Inactive)
REMARK    1  A    between atoms: O1_2  and  C2_3 
REMARK    2  A    between atoms: C3_4  and  C4_5 
REMARK    3  A    between atoms: C5_6  and  C6_7 
REMARK    4  A    between atoms: C6_7  and  C7_8 
REMARK    5  A    between atoms: C7_8  and  N1_9 
REMARK    6  A    between atoms: C24_30  and  O2_31 
ROOT
HETATM    1  C2  UNL     1      28.590   6.331  48.106  1.00  0.00     0.059 C 
HETATM    2  C3  UNL     1      27.290   6.140  48.402  1.00  0.00    -0.007 C 
HETATM    3  C13 UNL     1      25.941   6.650  48.491  1.00  0.00     0.160 C 
HETATM    4  C14 UNL     1      25.561   7.071  49.850  1.00  0.00     0.073 C 
HETATM    5  N3  UNL     1      25.267   7.409  50.908  1.00  0.00    -0.196 NA
HETATM    6  C15 UNL     1      25.534   7.734  47.571  1.00  0.00    -0.026 C 
HETATM    7  C16 UNL     1      26.329   8.818  47.434  1.00  0.00     0.009 C 
HETATM    8  C17 UNL     1      27.686   9.327  47.081  1.00  0.00     0.025 C 
HETATM    9  C18 UNL     1      28.460   8.324  46.684  1.00  0.00     0.012 C 
HETATM   10  C19 UNL     1      29.351   7.343  47.287  1.00  0.00     0.121 C 
HETATM   11  N4  UNL     1      28.338   8.154  45.250  1.00  0.00    -0.374 N 
HETATM   12  C20 UNL     1      27.408   8.718  44.339  1.00  0.00     0.246 A 
HETATM   13  C21 UNL     1      26.078   8.836  44.217  1.00  0.00     0.063 A 
HETATM   14 CL1  UNL     1      26.745   9.645  42.785  1.00  0.00    -0.183 Cl
HETATM   15  C22 UNL     1      24.611   8.758  44.472  1.00  0.00    -0.005 C 
HETATM   16  C23 UNL     1      24.184   8.194  45.570  1.00  0.00     0.007 C 
HETATM   17  C24 UNL     1      24.235   7.510  46.865  1.00  0.00     0.174 C 
HETATM   18  H26 UNL     1      29.052   7.511  44.851  1.00  0.00     0.161 HD
ENDROOT
BRANCH   2  19
HETATM   19  C4  UNL     1      27.262   4.723  48.859  1.00  0.00     0.007 C 
HETATM   20  C5  UNL     1      26.403   4.028  49.627  1.00  0.00    -0.024 C 
BRANCH  20  21
HETATM   21  C6  UNL     1      26.352   2.604  50.099  1.00  0.00     0.057 C 
BRANCH  21  22
HETATM   22  C7  UNL     1      25.431   2.497  51.273  1.00  0.00     0.276 C 
BRANCH  22  23
HETATM   23  N1  UNL     1      25.826   1.525  52.237  1.00  0.00     0.092 N 
HETATM   24  C8  UNL     1      26.346   2.083  53.462  1.00  0.00     0.302 C 
HETATM   25  C9  UNL     1      27.848   2.119  53.472  1.00  0.00     0.302 C 
HETATM   26  N2  UNL     1      28.345   0.757  53.453  1.00  0.00     0.087 N 
HETATM   27  C10 UNL     1      28.781   0.332  54.760  1.00  0.00     0.310 C 
HETATM   28  C11 UNL     1      27.380  -0.158  52.876  1.00  0.00     0.302 C 
HETATM   29  C12 UNL     1      26.648   0.470  51.706  1.00  0.00     0.302 C 
ENDBRANCH  22  23
ENDBRANCH  21  22
ENDBRANCH  20  21
ENDBRANCH   2  19
BRANCH   1  30
HETATM   30  O1  UNL     1      29.476   5.409  48.659  1.00  0.00    -0.359 OA
HETATM   31  C1  UNL     1      30.861   5.768  48.573  1.00  0.00     0.209 C 
ENDBRANCH   1  30
BRANCH  17  32
HETATM   32  O2  UNL     1      23.178   7.905  47.702  1.00  0.00    -0.382 OA
HETATM   33  C25 UNL     1      21.983   7.357  47.260  1.00  0.00     0.202 C 
ENDBRANCH  17  32
TORSDOF 6
ENDMDL
MODEL 2
REMARK VINA RESULT:      -7.8      7.664     10.837
REMARK  6 active torsions:
REMARK  status: ('A' for Active; 'I' for Inactive)
REMARK    1  A    between atoms: O1_2  and  C2_3 
REMARK    2  A    between atoms: C3_4  and  C4_5 
REMARK    3  A    between atoms: C5_6  and  C6_7 
REMARK    4  A    between atoms: C6_7  and  C7_8 
REMARK    5  A    between atoms: C7_8  and  N1_9 
REMARK    6  A    between atoms: C24_30  and  O2_31 
ROOT
HETATM    1  C2  UNL     1      18.058  -1.084  52.728  1.00  0.00     0.059 C 
HETATM    2  C3  UNL     1      18.928  -0.099  52.438  1.00  0.00    -0.007 C 
HETATM    3  C13 UNL     1      19.268   1.087  51.684  1.00  0.00     0.160 C 
HETATM    4  C14 UNL     1      20.125   0.814  50.518  1.00  0.00     0.073 C 
HETATM    5  N3  UNL     1      20.787   0.601  49.603  1.00  0.00    -0.196 NA
HETATM    6  C15 UNL     1      18.173   1.967  51.221  1.00  0.00    -0.026 C 
HETATM    7  C16 UNL     1      17.108   1.422  50.592  1.00  0.00     0.009 C 
HETATM    8  C17 UNL     1      15.989   0.438  50.668  1.00  0.00     0.025 C 
HETATM    9  C18 UNL     1      15.968  -0.137  51.865  1.00  0.00     0.012 C 
HETATM   10  C19 UNL     1      16.578  -1.284  52.523  1.00  0.00     0.121 C 
HETATM   11  N4  UNL     1      15.126   0.633  52.759  1.00  0.00    -0.374 N 
HETATM   12  C20 UNL     1      14.564   1.925  52.598  1.00  0.00     0.246 A 
HETATM   13  C21 UNL     1      14.977   3.160  52.280  1.00  0.00     0.063 A 
HETATM   14 CL1  UNL     1      13.230   3.316  52.553  1.00  0.00    -0.183 Cl
HETATM   15  C22 UNL     1      15.824   4.322  51.884  1.00  0.00    -0.005 C 
HETATM   16  C23 UNL     1      17.094   4.133  51.648  1.00  0.00     0.007 C 
HETATM   17  C24 UNL     1      18.368   3.421  51.504  1.00  0.00     0.174 C 
HETATM   18  H26 UNL     1      14.920   0.141  53.652  1.00  0.00     0.161 HD
ENDROOT
BRANCH   2  19
HETATM   19  C4  UNL     1      20.081  -0.405  53.329  1.00  0.00     0.007 C 
HETATM   20  C5  UNL     1      21.372  -0.024  53.316  1.00  0.00    -0.024 C 
BRANCH  20  21
HETATM   21  C6  UNL     1      22.549  -0.317  54.200  1.00  0.00     0.057 C 
BRANCH  21  22
HETATM   22  C7  UNL     1      23.753  -0.598  53.356  1.00  0.00     0.276 C 
BRANCH  22  23
HETATM   23  N1  UNL     1      24.911   0.145  53.726  1.00  0.00     0.092 N 
HETATM   24  C8  UNL     1      25.801   0.441  52.630  1.00  0.00     0.302 C 
HETATM   25  C9  UNL     1      26.941  -0.534  52.551  1.00  0.00     0.302 C 
HETATM   26  N2  UNL     1      27.763  -0.384  53.736  1.00  0.00     0.087 N 
HETATM   27  C10 UNL     1      28.960   0.370  53.460  1.00  0.00     0.310 C 
HETATM   28  C11 UNL     1      27.010   0.173  54.843  1.00  0.00     0.302 C 
HETATM   29  C12 UNL     1      25.595  -0.370  54.883  1.00  0.00     0.302 C 
ENDBRANCH  22  23
ENDBRANCH  21  22
ENDBRANCH  20  21
ENDBRANCH   2  19
BRANCH   1  30
HETATM   30  O1  UNL     1      18.600  -2.198  53.365  1.00  0.00    -0.359 OA
HETATM   31  C1  UNL     1      17.657  -3.222  53.710  1.00  0.00     0.209 C 
ENDBRANCH   1  30
BRANCH  17  32
HETATM   32  O2  UNL     1      19.168   3.987  50.498  1.00  0.00    -0.382 OA
HETATM   33  C25 UNL     1      20.296   4.573  51.053  1.00  0.00     0.202 C 
ENDBRANCH  17  32
TORSDOF 6
ENDMDL
MODEL 3
REMARK VINA RESULT:      -7.8      3.535      5.489
REMARK  6 active torsions:
REMARK  status: ('A' for Active; 'I' for Inactive)
REMARK    1  A    between atoms: O1_2  and  C2_3 
REMARK    2  A    between atoms: C3_4  and  C4_5 
REMARK    3  A    between atoms: C5_6  and  C6_7 
REMARK    4  A    between atoms: C6_7  and  C7_8 
REMARK    5  A    between atoms: C7_8  and  N1_9 
REMARK    6  A    between atoms: C24_30  and  O2_31 
ROOT
HETATM    1  C2  UNL     1      22.854   2.699  49.678  1.00  0.00     0.059 C 
HETATM    2  C3  UNL     1      23.901   3.343  50.228  1.00  0.00    -0.007 C 
HETATM    3  C13 UNL     1      24.832   4.448  50.221  1.00  0.00     0.160 C 
HETATM    4  C14 UNL     1      26.134   4.114  49.619  1.00  0.00     0.073 C 
HETATM    5  N3  UNL     1      27.147   3.856  49.142  1.00  0.00    -0.196 NA
HETATM    6  C15 UNL     1      24.398   5.733  49.630  1.00  0.00    -0.026 C 
HETATM    7  C16 UNL     1      23.812   5.736  48.412  1.00  0.00     0.009 C 
HETATM    8  C17 UNL     1      22.693   5.223  47.570  1.00  0.00     0.025 C 
HETATM    9  C18 UNL     1      21.875   4.477  48.305  1.00  0.00     0.012 C 
HETATM   10  C19 UNL     1      21.760   3.085  48.716  1.00  0.00     0.121 C 
HETATM   11  N4  UNL     1      20.837   5.312  48.875  1.00  0.00    -0.374 N 
HETATM   12  C20 UNL     1      20.730   6.725  48.933  1.00  0.00     0.246 A 
HETATM   13  C21 UNL     1      21.477   7.766  49.326  1.00  0.00     0.063 A 
HETATM   14 CL1  UNL     1      19.963   8.483  48.739  1.00  0.00    -0.183 Cl
HETATM   15  C22 UNL     1      22.600   8.600  49.844  1.00  0.00    -0.005 C 
HETATM   16  C23 UNL     1      23.709   8.018  50.213  1.00  0.00     0.007 C 
HETATM   17  C24 UNL     1      24.666   6.939  50.471  1.00  0.00     0.174 C 
HETATM   18  H26 UNL     1      20.064   4.766  49.307  1.00  0.00     0.161 HD
ENDROOT
BRANCH   2  19
HETATM   19  C4  UNL     1      24.243   2.480  51.393  1.00  0.00     0.007 C 
HETATM   20  C5  UNL     1      24.744   2.750  52.613  1.00  0.00    -0.024 C 
BRANCH  20  21
HETATM   21  C6  UNL     1      25.096   1.901  53.800  1.00  0.00     0.057 C 
BRANCH  21  22
HETATM   22  C7  UNL     1      24.827   0.463  53.486  1.00  0.00     0.276 C 
BRANCH  22  23
HETATM   23  N1  UNL     1      25.903  -0.415  53.804  1.00  0.00     0.092 N 
HETATM   24  C8  UNL     1      26.965   0.201  54.562  1.00  0.00     0.302 C 
HETATM   25  C9  UNL     1      28.105   0.635  53.686  1.00  0.00     0.302 C 
HETATM   26  N2  UNL     1      28.714  -0.542  53.098  1.00  0.00     0.087 N 
HETATM   27  C10 UNL     1      29.939  -0.899  53.770  1.00  0.00     0.310 C 
HETATM   28  C11 UNL     1      27.783  -1.652  53.035  1.00  0.00     0.302 C 
HETATM   29  C12 UNL     1      26.383  -1.185  52.687  1.00  0.00     0.302 C 
ENDBRANCH  22  23
ENDBRANCH  21  22
ENDBRANCH  20  21
ENDBRANCH   2  19
BRANCH   1  30
HETATM   30  O1  UNL     1      22.705   1.365  50.051  1.00  0.00    -0.359 OA
HETATM   31  C1  UNL     1      21.380   0.836  49.905  1.00  0.00     0.209 C 
ENDBRANCH   1  30
BRANCH  17  32
HETATM   32  O2  UNL     1      25.991   7.361  50.268  1.00  0.00    -0.382 OA
HETATM   33  C25 UNL     1      26.022   8.455  49.416  1.00  0.00     0.202 C 
ENDBRANCH  17  32
TORSDOF 6
ENDMDL
MODEL 4
REMARK VINA RESULT:      -7.6      8.960     12.317
REMARK  6 active torsions:
REMARK  status: ('A' for Active; 'I' for Inactive)
REMARK    1  A    between atoms: O1_2  and  C2_3 
REMARK    2  A    between atoms: C3_4  and  C4_5 
REMARK    3  A    between atoms: C5_6  and  C6_7 
REMARK    4  A    between atoms: C6_7  and  C7_8 
REMARK    5  A    between atoms: C7_8  and  N1_9 
REMARK    6  A    between atoms: C24_30  and  O2_31 
ROOT
HETATM    1  C2  UNL     1      20.029   3.506  50.803  1.00  0.00     0.059 C 
HETATM    2  C3  UNL     1      19.022   2.717  51.220  1.00  0.00    -0.007 C 
HETATM    3  C13 UNL     1      18.496   1.397  51.485  1.00  0.00     0.160 C 
HETATM    4  C14 UNL     1      17.646   0.876  50.401  1.00  0.00     0.073 C 
HETATM    5  N3  UNL     1      16.991   0.465  49.551  1.00  0.00    -0.196 NA
HETATM    6  C15 UNL     1      19.441   0.321  51.851  1.00  0.00    -0.026 C 
HETATM    7  C16 UNL     1      20.550   0.132  51.102  1.00  0.00     0.009 C 
HETATM    8  C17 UNL     1      21.797   0.739  50.552  1.00  0.00     0.025 C 
HETATM    9  C18 UNL     1      21.937   1.981  51.005  1.00  0.00     0.012 C 
HETATM   10  C19 UNL     1      21.515   3.322  50.627  1.00  0.00     0.121 C 
HETATM   11  N4  UNL     1      22.694   1.964  52.241  1.00  0.00    -0.374 N 
HETATM   12  C20 UNL     1      23.065   0.874  53.070  1.00  0.00     0.246 A 
HETATM   13  C21 UNL     1      22.474  -0.165  53.675  1.00  0.00     0.063 A 
HETATM   14 CL1  UNL     1      24.190  -0.297  54.108  1.00  0.00    -0.183 Cl
HETATM   15  C22 UNL     1      21.461  -1.155  54.141  1.00  0.00    -0.005 C 
HETATM   16  C23 UNL     1      20.222  -1.033  53.747  1.00  0.00     0.007 C 
HETATM   17  C24 UNL     1      19.055  -0.478  53.054  1.00  0.00     0.174 C 
HETATM   18  H26 UNL     1      22.995   2.910  52.549  1.00  0.00     0.161 HD
ENDROOT
BRANCH   2  19
HETATM   19  C4  UNL     1      17.952   3.698  51.555  1.00  0.00     0.007 C 
HETATM   20  C5  UNL     1      16.663   3.557  51.916  1.00  0.00    -0.024 C 
BRANCH  20  21
HETATM   21  C6  UNL     1      15.570   4.526  52.259  1.00  0.00     0.057 C 
BRANCH  21  22
HETATM   22  C7  UNL     1      14.240   3.859  52.102  1.00  0.00     0.276 C 
BRANCH  22  23
HETATM   23  N1  UNL     1      13.671   3.398  53.324  1.00  0.00     0.092 N 
HETATM   24  C8  UNL     1      13.280   2.009  53.309  1.00  0.00     0.302 C 
HETATM   25  C9  UNL     1      11.814   1.839  53.027  1.00  0.00     0.302 C 
HETATM   26  N2  UNL     1      11.060   2.417  54.122  1.00  0.00     0.087 N 
HETATM   27  C10 UNL     1      10.560   1.403  55.017  1.00  0.00     0.310 C 
HETATM   28  C11 UNL     1      11.823   3.433  54.821  1.00  0.00     0.302 C 
HETATM   29  C12 UNL     1      12.654   4.263  53.863  1.00  0.00     0.302 C 
ENDBRANCH  22  23
ENDBRANCH  21  22
ENDBRANCH  20  21
ENDBRANCH   2  19
BRANCH   1  30
HETATM   30  O1  UNL     1      19.669   4.802  50.438  1.00  0.00    -0.359 OA
HETATM   31  C1  UNL     1      20.764   5.683  50.156  1.00  0.00     0.209 C 
ENDBRANCH   1  30
BRANCH  17  32
HETATM   32  O2  UNL     1      18.151  -1.483  52.673  1.00  0.00    -0.382 OA
HETATM   33  C25 UNL     1      17.970  -2.387  53.710  1.00  0.00     0.202 C 
ENDBRANCH  17  32
TORSDOF 6
ENDMDL
MODEL 5
REMARK VINA RESULT:      -7.5      1.523      2.077
REMARK  6 active torsions:
REMARK  status: ('A' for Active; 'I' for Inactive)
REMARK    1  A    between atoms: O1_2  and  C2_3 
REMARK    2  A    between atoms: C3_4  and  C4_5 
REMARK    3  A    between atoms: C5_6  and  C6_7 
REMARK    4  A    between atoms: C6_7  and  C7_8 
REMARK    5  A    between atoms: C7_8  and  N1_9 
REMARK    6  A    between atoms: C24_30  and  O2_31 
ROOT
HETATM    1  C2  UNL     1      29.122   6.404  48.080  1.00  0.00     0.059 C 
HETATM    2  C3  UNL     1      27.791   6.295  48.247  1.00  0.00    -0.007 C 
HETATM    3  C13 UNL     1      26.477   6.895  48.234  1.00  0.00     0.160 C 
HETATM    4  C14 UNL     1      25.999   7.289  49.570  1.00  0.00     0.073 C 
HETATM    5  N3  UNL     1      25.629   7.604  50.611  1.00  0.00    -0.196 NA
HETATM    6  C15 UNL     1      26.233   8.041  47.331  1.00  0.00    -0.026 C 
HETATM    7  C16 UNL     1      27.109   9.070  47.318  1.00  0.00     0.009 C 
HETATM    8  C17 UNL     1      28.524   9.495  47.116  1.00  0.00     0.025 C 
HETATM    9  C18 UNL     1      29.264   8.455  46.745  1.00  0.00     0.012 C 
HETATM   10  C19 UNL     1      30.025   7.390  47.383  1.00  0.00     0.121 C 
HETATM   11  N4  UNL     1      29.267   8.352  45.300  1.00  0.00    -0.374 N 
HETATM   12  C20 UNL     1      28.467   9.016  44.335  1.00  0.00     0.246 A 
HETATM   13  C21 UNL     1      27.167   9.233  44.096  1.00  0.00     0.063 A 
HETATM   14 CL1  UNL     1      28.020  10.049  42.770  1.00  0.00    -0.183 Cl
HETATM   15  C22 UNL     1      25.680   9.251  44.211  1.00  0.00    -0.005 C 
HETATM   16  C23 UNL     1      25.114   8.676  45.238  1.00  0.00     0.007 C 
HETATM   17  C24 UNL     1      24.995   7.939  46.500  1.00  0.00     0.174 C 
HETATM   18  H26 UNL     1      29.970   7.675  44.939  1.00  0.00     0.161 HD
ENDROOT
BRANCH   2  19
HETATM   19  C4  UNL     1      27.624   4.866  48.633  1.00  0.00     0.007 C 
HETATM   20  C5  UNL     1      26.682   4.215  49.340  1.00  0.00    -0.024 C 
BRANCH  20  21
HETATM   21  C6  UNL     1      26.491   2.781  49.740  1.00  0.00     0.057 C 
BRANCH  21  22
HETATM   22  C7  UNL     1      26.479   2.674  51.232  1.00  0.00     0.276 C 
BRANCH  22  23
HETATM   23  N1  UNL     1      25.175   2.664  51.806  1.00  0.00     0.092 N 
HETATM   24  C8  UNL     1      25.103   2.033  53.102  1.00  0.00     0.302 C 
HETATM   25  C9  UNL     1      24.637   0.608  53.010  1.00  0.00     0.302 C 
HETATM   26  N2  UNL     1      23.271   0.596  52.523  1.00  0.00     0.087 N 
HETATM   27  C10 UNL     1      22.328   0.377  53.591  1.00  0.00     0.310 C 
HETATM   28  C11 UNL     1      22.964   1.790  51.760  1.00  0.00     0.302 C 
HETATM   29  C12 UNL     1      24.140   2.225  50.908  1.00  0.00     0.302 C 
ENDBRANCH  22  23
ENDBRANCH  21  22
ENDBRANCH  20  21
ENDBRANCH   2  19
BRANCH   1  30
HETATM   30  O1  UNL     1      29.888   5.400  48.669  1.00  0.00    -0.359 OA
HETATM   31  C1  UNL     1      31.295   5.668  48.741  1.00  0.00     0.209 C 
ENDBRANCH   1  30
BRANCH  17  32
HETATM   32  O2  UNL     1      23.893   8.375  47.253  1.00  0.00    -0.382 OA
HETATM   33  C25 UNL     1      22.894   7.412  47.246  1.00  0.00     0.202 C 
ENDBRANCH  17  32
TORSDOF 6
ENDMDL
MODEL 6
REMARK VINA RESULT:      -7.5      3.451      7.676
REMARK  6 active torsions:
REMARK  status: ('A' for Active; 'I' for Inactive)
REMARK    1  A    between atoms: O1_2  and  C2_3 
REMARK    2  A    between atoms: C3_4  and  C4_5 
REMARK    3  A    between atoms: C5_6  and  C6_7 
REMARK    4  A    between atoms: C6_7  and  C7_8 
REMARK    5  A    between atoms: C7_8  and  N1_9 
REMARK    6  A    between atoms: C24_30  and  O2_31 
ROOT
HETATM    1  C2  UNL     1      26.939   5.808  48.576  1.00  0.00     0.059 C 
HETATM    2  C3  UNL     1      25.856   6.606  48.616  1.00  0.00    -0.007 C 
HETATM    3  C13 UNL     1      24.424   6.765  48.724  1.00  0.00     0.160 C 
HETATM    4  C14 UNL     1      23.754   6.942  47.424  1.00  0.00     0.073 C 
HETATM    5  N3  UNL     1      23.230   7.072  46.410  1.00  0.00    -0.196 NA
HETATM    6  C15 UNL     1      23.655   5.747  49.472  1.00  0.00    -0.026 C 
HETATM    7  C16 UNL     1      23.863   4.438  49.210  1.00  0.00     0.009 C 
HETATM    8  C17 UNL     1      24.853   3.324  49.147  1.00  0.00     0.025 C 
HETATM    9  C18 UNL     1      26.043   3.749  49.560  1.00  0.00     0.012 C 
HETATM   10  C19 UNL     1      27.221   4.385  48.987  1.00  0.00     0.121 C 
HETATM   11  N4  UNL     1      26.162   3.546  50.990  1.00  0.00    -0.374 N 
HETATM   12  C20 UNL     1      25.174   3.201  51.948  1.00  0.00     0.246 A 
HETATM   13  C21 UNL     1      23.964   3.629  52.332  1.00  0.00     0.063 A 
HETATM   14 CL1  UNL     1      24.320   2.249  53.390  1.00  0.00    -0.183 Cl
HETATM   15  C22 UNL     1      22.685   4.390  52.425  1.00  0.00    -0.005 C 
HETATM   16  C23 UNL     1      22.460   5.364  51.584  1.00  0.00     0.007 C 
HETATM   17  C24 UNL     1      22.691   6.293  50.475  1.00  0.00     0.174 C 
HETATM   18  H26 UNL     1      27.129   3.686  51.345  1.00  0.00     0.161 HD
ENDROOT
BRANCH   2  19
HETATM   19  C4  UNL     1      26.445   7.966  48.473  1.00  0.00     0.007 C 
HETATM   20  C5  UNL     1      26.208   9.135  49.097  1.00  0.00    -0.024 C 
BRANCH  20  21
HETATM   21  C6  UNL     1      26.787  10.514  48.972  1.00  0.00     0.057 C 
BRANCH  21  22
HETATM   22  C7  UNL     1      27.120  10.790  47.540  1.00  0.00     0.276 C 
BRANCH  22  23
HETATM   23  N1  UNL     1      28.484  11.137  47.315  1.00  0.00     0.092 N 
HETATM   24  C8  UNL     1      29.225  10.163  46.552  1.00  0.00     0.302 C 
HETATM   25  C9  UNL     1      30.021   9.243  47.433  1.00  0.00     0.302 C 
HETATM   26  N2  UNL     1      31.037  10.019  48.117  1.00  0.00     0.087 N 
HETATM   27  C10 UNL     1      32.334   9.849  47.509  1.00  0.00     0.310 C 
HETATM   28  C11 UNL     1      30.664  11.416  48.223  1.00  0.00     0.302 C 
HETATM   29  C12 UNL     1      29.181  11.577  48.495  1.00  0.00     0.302 C 
ENDBRANCH  22  23
ENDBRANCH  21  22
ENDBRANCH  20  21
ENDBRANCH   2  19
BRANCH   1  30
HETATM   30  O1  UNL     1      28.091   6.380  48.041  1.00  0.00    -0.359 OA
HETATM   31  C1  UNL     1      29.283   5.596  48.180  1.00  0.00     0.209 C 
ENDBRANCH   1  30
BRANCH  17  32
HETATM   32  O2  UNL     1      21.492   6.636  49.827  1.00  0.00    -0.382 OA
HETATM   33  C25 UNL     1      21.143   7.945  50.122  1.00  0.00     0.202 C 
ENDBRANCH  17  32
TORSDOF 6
ENDMDL
MODEL 7
REMARK VINA RESULT:      -7.2      6.803      9.543
REMARK  6 active torsions:
REMARK  status: ('A' for Active; 'I' for Inactive)
REMARK    1  A    between atoms: O1_2  and  C2_3 
REMARK    2  A    between atoms: C3_4  and  C4_5 
REMARK    3  A    between atoms: C5_6  and  C6_7 
REMARK    4  A    between atoms: C6_7  and  C7_8 
REMARK    5  A    between atoms: C7_8  and  N1_9 
REMARK    6  A    between atoms: C24_30  and  O2_31 
ROOT
HETATM    1  C2  UNL     1      20.021   0.148  52.301  1.00  0.00     0.059 C 
HETATM    2  C3  UNL     1      20.450   1.123  51.478  1.00  0.00    -0.007 C 
HETATM    3  C13 UNL     1      20.284   1.906  50.275  1.00  0.00     0.160 C 
HETATM    4  C14 UNL     1      21.105   1.431  49.149  1.00  0.00     0.073 C 
HETATM    5  N3  UNL     1      21.739   1.055  48.267  1.00  0.00    -0.196 NA
HETATM    6  C15 UNL     1      18.916   2.119  49.755  1.00  0.00    -0.026 C 
HETATM    7  C16 UNL     1      18.086   1.060  49.624  1.00  0.00     0.009 C 
HETATM    8  C17 UNL     1      17.412  -0.082  50.306  1.00  0.00     0.025 C 
HETATM    9  C18 UNL     1      17.679  -0.058  51.607  1.00  0.00     0.012 C 
HETATM   10  C19 UNL     1      18.707  -0.561  52.508  1.00  0.00     0.121 C 
HETATM   11  N4  UNL     1      16.673   0.725  52.296  1.00  0.00    -0.374 N 
HETATM   12  C20 UNL     1      15.668   1.581  51.775  1.00  0.00     0.246 A 
HETATM   13  C21 UNL     1      15.580   2.616  50.930  1.00  0.00     0.063 A 
HETATM   14 CL1  UNL     1      13.918   2.335  51.487  1.00  0.00    -0.183 Cl
HETATM   15  C22 UNL     1      15.916   3.689  49.949  1.00  0.00    -0.005 C 
HETATM   16  C23 UNL     1      17.149   3.813  49.538  1.00  0.00     0.007 C 
HETATM   17  C24 UNL     1      18.583   3.535  49.411  1.00  0.00     0.174 C 
HETATM   18  H26 UNL     1      16.719   0.633  53.330  1.00  0.00     0.161 HD
ENDROOT
BRANCH   2  19
HETATM   19  C4  UNL     1      21.690   1.600  52.152  1.00  0.00     0.007 C 
HETATM   20  C5  UNL     1      22.433   2.714  52.014  1.00  0.00    -0.024 C 
BRANCH  20  21
HETATM   21  C6  UNL     1      23.682   3.216  52.679  1.00  0.00     0.057 C 
BRANCH  21  22
HETATM   22  C7  UNL     1      24.865   2.464  52.158  1.00  0.00     0.276 C 
BRANCH  22  23
HETATM   23  N1  UNL     1      25.456   1.578  53.104  1.00  0.00     0.092 N 
HETATM   24  C8  UNL     1      26.683   2.066  53.687  1.00  0.00     0.302 C 
HETATM   25  C9  UNL     1      27.896   1.504  53.003  1.00  0.00     0.302 C 
HETATM   26  N2  UNL     1      27.933   0.072  53.225  1.00  0.00     0.087 N 
HETATM   27  C10 UNL     1      28.884  -0.283  54.249  1.00  0.00     0.310 C 
HETATM   28  C11 UNL     1      26.612  -0.463  53.498  1.00  0.00     0.302 C 
HETATM   29  C12 UNL     1      25.552   0.214  52.653  1.00  0.00     0.302 C 
ENDBRANCH  22  23
ENDBRANCH  21  22
ENDBRANCH  20  21
ENDBRANCH   2  19
BRANCH   1  30
HETATM   30  O1  UNL     1      20.973  -0.356  53.185  1.00  0.00    -0.359 OA
HETATM   31  C1  UNL     1      20.498  -1.373  54.078  1.00  0.00     0.209 C 
ENDBRANCH   1  30
BRANCH  17  32
HETATM   32  O2  UNL     1      19.055   3.823  48.120  1.00  0.00    -0.382 OA
HETATM   33  C25 UNL     1      18.814   5.152  47.805  1.00  0.00     0.202 C 
ENDBRANCH  17  32
TORSDOF 6
ENDMDL
MODEL 8
REMARK VINA RESULT:      -7.2      3.736      6.243
REMARK  6 active torsions:
REMARK  status: ('A' for Active; 'I' for Inactive)
REMARK    1  A    between atoms: O1_2  and  C2_3 
REMARK    2  A    between atoms: C3_4  and  C4_5 
REMARK    3  A    between atoms: C5_6  and  C6_7 
REMARK    4  A    between atoms: C6_7  and  C7_8 
REMARK    5  A    between atoms: C7_8  and  N1_9 
REMARK    6  A    between atoms: C24_30  and  O2_31 
ROOT
HETATM    1  C2  UNL     1      25.131   7.667  47.261  1.00  0.00     0.059 C 
HETATM    2  C3  UNL     1      25.285   6.716  48.202  1.00  0.00    -0.007 C 
HETATM    3  C13 UNL     1      24.709   5.739  49.097  1.00  0.00     0.160 C 
HETATM    4  C14 UNL     1      24.561   6.225  50.479  1.00  0.00     0.073 C 
HETATM    5  N3  UNL     1      24.436   6.606  51.556  1.00  0.00    -0.196 NA
HETATM    6  C15 UNL     1      23.427   5.105  48.720  1.00  0.00    -0.026 C 
HETATM    7  C16 UNL     1      22.400   5.883  48.314  1.00  0.00     0.009 C 
HETATM    8  C17 UNL     1      21.927   6.908  47.338  1.00  0.00     0.025 C 
HETATM    9  C18 UNL     1      22.877   7.157  46.443  1.00  0.00     0.012 C 
HETATM   10  C19 UNL     1      24.026   8.040  46.306  1.00  0.00     0.121 C 
HETATM   11  N4  UNL     1      22.727   6.261  45.314  1.00  0.00    -0.374 N 
HETATM   12  C20 UNL     1      21.916   5.107  45.165  1.00  0.00     0.246 A 
HETATM   13  C21 UNL     1      21.678   3.964  45.822  1.00  0.00     0.063 A 
HETATM   14 CL1  UNL     1      20.633   3.895  44.389  1.00  0.00    -0.183 Cl
HETATM   15  C22 UNL     1      21.701   2.872  46.839  1.00  0.00    -0.005 C 
HETATM   16  C23 UNL     1      22.454   3.004  47.898  1.00  0.00     0.007 C 
HETATM   17  C24 UNL     1      23.400   3.615  48.836  1.00  0.00     0.174 C 
HETATM   18  H26 UNL     1      23.321   6.523  44.501  1.00  0.00     0.161 HD
ENDROOT
BRANCH   2  19
HETATM   19  C4  UNL     1      26.761   6.683  48.397  1.00  0.00     0.007 C 
HETATM   20  C5  UNL     1      27.667   5.689  48.347  1.00  0.00    -0.024 C 
BRANCH  20  21
HETATM   21  C6  UNL     1      29.155   5.630  48.538  1.00  0.00     0.057 C 
BRANCH  21  22
HETATM   22  C7  UNL     1      29.814   6.644  47.657  1.00  0.00     0.276 C 
BRANCH  22  23
HETATM   23  N1  UNL     1      31.228   6.719  47.810  1.00  0.00     0.092 N 
HETATM   24  C8  UNL     1      31.973   6.170  46.703  1.00  0.00     0.302 C 
HETATM   25  C9  UNL     1      32.420   4.761  46.966  1.00  0.00     0.302 C 
HETATM   26  N2  UNL     1      33.362   4.771  48.068  1.00  0.00     0.087 N 
HETATM   27  C10 UNL     1      34.722   4.652  47.606  1.00  0.00     0.310 C 
HETATM   28  C11 UNL     1      33.175   5.927  48.923  1.00  0.00     0.302 C 
HETATM   29  C12 UNL     1      31.707   6.264  49.089  1.00  0.00     0.302 C 
ENDBRANCH  22  23
ENDBRANCH  21  22
ENDBRANCH  20  21
ENDBRANCH   2  19
BRANCH   1  30
HETATM   30  O1  UNL     1      26.211   8.529  47.093  1.00  0.00    -0.359 OA
HETATM   31  C1  UNL     1      25.866   9.882  46.764  1.00  0.00     0.209 C 
ENDBRANCH   1  30
BRANCH  17  32
HETATM   32  O2  UNL     1      23.117   3.258  50.165  1.00  0.00    -0.382 OA
HETATM   33  C25 UNL     1      22.715   1.932  50.232  1.00  0.00     0.202 C 
ENDBRANCH  17  32
TORSDOF 6
ENDMDL
MODEL 9
REMARK VINA RESULT:      -7.1      3.693      6.825
REMARK  6 active torsions:
REMARK  status: ('A' for Active; 'I' for Inactive)
REMARK    1  A    between atoms: O1_2  and  C2_3 
REMARK    2  A    between atoms: C3_4  and  C4_5 
REMARK    3  A    between atoms: C5_6  and  C6_7 
REMARK    4  A    between atoms: C6_7  and  C7_8 
REMARK    5  A    between atoms: C7_8  and  N1_9 
REMARK    6  A    between atoms: C24_30  and  O2_31 
ROOT
HETATM    1  C2  UNL     1      25.112   7.797  47.049  1.00  0.00     0.059 C 
HETATM    2  C3  UNL     1      25.300   6.898  48.033  1.00  0.00    -0.007 C 
HETATM    3  C13 UNL     1      24.759   5.953  48.982  1.00  0.00     0.160 C 
HETATM    4  C14 UNL     1      24.617   6.503  50.341  1.00  0.00     0.073 C 
HETATM    5  N3  UNL     1      24.498   6.934  51.399  1.00  0.00    -0.196 NA
HETATM    6  C15 UNL     1      23.488   5.273  48.655  1.00  0.00    -0.026 C 
HETATM    7  C16 UNL     1      22.438   6.006  48.225  1.00  0.00     0.009 C 
HETATM    8  C17 UNL     1      21.928   6.971  47.208  1.00  0.00     0.025 C 
HETATM    9  C18 UNL     1      22.860   7.197  46.288  1.00  0.00     0.012 C 
HETATM   10  C19 UNL     1      23.987   8.098  46.092  1.00  0.00     0.121 C 
HETATM   11  N4  UNL     1      22.716   6.243  45.206  1.00  0.00    -0.374 N 
HETATM   12  C20 UNL     1      21.931   5.065  45.126  1.00  0.00     0.246 A 
HETATM   13  C21 UNL     1      21.728   3.951  45.842  1.00  0.00     0.063 A 
HETATM   14 CL1  UNL     1      20.666   3.788  44.429  1.00  0.00    -0.183 Cl
HETATM   15  C22 UNL     1      21.790   2.912  46.910  1.00  0.00    -0.005 C 
HETATM   16  C23 UNL     1      22.552   3.112  47.951  1.00  0.00     0.007 C 
HETATM   17  C24 UNL     1      23.497   3.790  48.844  1.00  0.00     0.174 C 
HETATM   18  H26 UNL     1      23.293   6.479  44.374  1.00  0.00     0.161 HD
ENDROOT
BRANCH   2  19
HETATM   19  C4  UNL     1      26.779   6.908  48.208  1.00  0.00     0.007 C 
HETATM   20  C5  UNL     1      27.701   5.928  48.250  1.00  0.00    -0.024 C 
BRANCH  20  21
HETATM   21  C6  UNL     1      29.192   5.912  48.423  1.00  0.00     0.057 C 
BRANCH  21  22
HETATM   22  C7  UNL     1      29.819   6.864  47.455  1.00  0.00     0.276 C 
BRANCH  22  23
HETATM   23  N1  UNL     1      30.601   7.887  48.065  1.00  0.00     0.092 N 
HETATM   24  C8  UNL     1      29.886   8.678  49.037  1.00  0.00     0.302 C 
HETATM   25  C9  UNL     1      29.380   9.966  48.455  1.00  0.00     0.302 C 
HETATM   26  N2  UNL     1      30.518  10.787  48.085  1.00  0.00     0.087 N 
HETATM   27  C10 UNL     1      30.761  11.827  49.053  1.00  0.00     0.310 C 
HETATM   28  C11 UNL     1      31.700   9.984  47.838  1.00  0.00     0.302 C 
HETATM   29  C12 UNL     1      31.354   8.686  47.135  1.00  0.00     0.302 C 
ENDBRANCH  22  23
ENDBRANCH  21  22
ENDBRANCH  20  21
ENDBRANCH   2  19
BRANCH   1  30
HETATM   30  O1  UNL     1      26.170   8.675  46.823  1.00  0.00    -0.359 OA
HETATM   31  C1  UNL     1      25.790  10.029  46.542  1.00  0.00     0.209 C 
ENDBRANCH   1  30
BRANCH  17  32
HETATM   32  O2  UNL     1      23.239   3.492  50.192  1.00  0.00    -0.382 OA
HETATM   33  C25 UNL     1      23.019   2.132  50.352  1.00  0.00     0.202 C 
ENDBRANCH  17  32
TORSDOF 6
ENDMDL
