MODEL 1
REMARK VINA RESULT:      -7.8      0.000      0.000
REMARK  8 active torsions:
REMARK  status: ('A' for Active; 'I' for Inactive)
REMARK    1  A    between atoms: C2_2  and  C23_29 
REMARK    2  A    between atoms: C3_3  and  C4_4 
REMARK    3  A    between atoms: C4_4  and  N1_5 
REMARK    4  A    between atoms: N1_5  and  C5_6 
REMARK    5  A    between atoms: C9_11  and  C10_12 
REMARK    6  A    between atoms: C12_14  and  N3_15 
REMARK       I    between atoms: N3_15  and  C13_16 
REMARK    7  A    between atoms: C13_16  and  C14_18 
REMARK    8  A    between atoms: N4_23  and  O2_24 
ROOT
HETATM    1  C10 UNL     1      23.131   4.492  50.914  1.00  0.00    -0.047 A 
HETATM    2  C11 UNL     1      23.740   5.252  51.850  1.00  0.00     0.008 A 
HETATM    3  C12 UNL     1      24.560   4.365  50.995  1.00  0.00     0.137 A 
ENDROOT
BRANCH   3   4
HETATM    4  N3  UNL     1      25.189   3.267  51.704  1.00  0.00    -0.349 N 
HETATM    5  C13 UNL     1      26.390   2.690  51.195  1.00  0.00     0.222 C 
HETATM    6  O1  UNL     1      26.856   3.171  50.134  1.00  0.00    -0.273 OA
HETATM    7  H17 UNL     1      24.695   2.954  52.589  1.00  0.00     0.163 HD
BRANCH   5   8
HETATM    8  C14 UNL     1      26.903   1.578  52.035  1.00  0.00     0.082 C 
HETATM    9  C15 UNL     1      25.912   1.213  53.120  1.00  0.00     0.046 C 
HETATM   10  C16 UNL     1      26.493   0.032  53.820  1.00  0.00     0.048 C 
HETATM   11  C17 UNL     1      25.488  -0.359  54.905  1.00  0.00     0.040 C 
HETATM   12  C18 UNL     1      26.522  -1.127  52.860  1.00  0.00     0.040 C 
HETATM   13  N4  UNL     1      27.721   0.325  54.446  1.00  0.00    -0.278 N 
HETATM   14  C19 UNL     1      28.674   1.127  53.770  1.00  0.00     0.048 C 
HETATM   15  C20 UNL     1      29.804   0.311  53.149  1.00  0.00     0.040 C 
HETATM   16  C21 UNL     1      29.314   2.010  54.837  1.00  0.00     0.040 C 
HETATM   17  C22 UNL     1      28.150   2.042  52.729  1.00  0.00     0.046 C 
BRANCH  13  18
HETATM   18  O2  UNL     1      28.297  -0.694  55.070  1.00  0.00    -0.291 OA
HETATM   19  H27 UNL     1      28.095  -0.810  56.017  1.00  0.00     0.244 HD
ENDBRANCH  13  18
ENDBRANCH   5   8
ENDBRANCH   3   4
BRANCH   1  20
HETATM   20  C9  UNL     1      21.834   4.107  50.286  1.00  0.00     0.075 C 
HETATM   21  C5  UNL     1      21.558   2.620  50.374  1.00  0.00     0.277 C 
HETATM   22  C6  UNL     1      20.052   2.637  50.467  1.00  0.00     0.036 C 
HETATM   23  C7  UNL     1      18.965   1.655  50.176  1.00  0.00     0.067 C 
HETATM   24  N2  UNL     1      19.610   3.752  50.892  1.00  0.00    -0.296 NA
HETATM   25  C8  UNL     1      20.715   4.655  51.154  1.00  0.00     0.160 C 
BRANCH  21  26
HETATM   26  N1  UNL     1      22.142   2.127  51.583  1.00  0.00     0.097 N 
HETATM   27  H7  UNL     1      21.470   2.186  52.352  1.00  0.00     0.317 HD
BRANCH  26  28
HETATM   28  C4  UNL     1      22.652   0.780  51.467  1.00  0.00     0.298 C 
BRANCH  28  29
HETATM   29  C3  UNL     1      22.393  -0.047  52.644  1.00  0.00     0.008 C 
HETATM   30  C2  UNL     1      21.681  -0.639  53.593  1.00  0.00    -0.058 C 
HETATM   31  C1  UNL     1      21.955  -1.536  54.757  1.00  0.00     0.045 C 
BRANCH  30  32
HETATM   32  C23 UNL     1      20.219  -0.331  53.472  1.00  0.00     0.256 C 
HETATM   33  F1  UNL     1      19.982   1.035  53.477  1.00  0.00    -0.251 F 
ENDBRANCH  30  32
ENDBRANCH  28  29
ENDBRANCH  26  28
ENDBRANCH  21  26
ENDBRANCH   1  20
TORSDOF 8
ENDMDL
MODEL 2
REMARK VINA RESULT:      -7.6      3.330      7.106
REMARK  8 active torsions:
REMARK  status: ('A' for Active; 'I' for Inactive)
REMARK    1  A    between atoms: C2_2  and  C23_29 
REMARK    2  A    between atoms: C3_3  and  C4_4 
REMARK    3  A    between atoms: C4_4  and  N1_5 
REMARK    4  A    between atoms: N1_5  and  C5_6 
REMARK    5  A    between atoms: C9_11  and  C10_12 
REMARK    6  A    between atoms: C12_14  and  N3_15 
REMARK       I    between atoms: N3_15  and  C13_16 
REMARK    7  A    between atoms: C13_16  and  C14_18 
REMARK    8  A    between atoms: N4_23  and  O2_24 
ROOT
HETATM    1  C10 UNL     1      25.438   2.658  52.920  1.00  0.00    -0.047 A 
HETATM    2  C11 UNL     1      24.139   2.991  53.081  1.00  0.00     0.008 A 
HETATM    3  C12 UNL     1      24.726   3.009  51.723  1.00  0.00     0.137 A 
ENDROOT
BRANCH   3   4
HETATM    4  N3  UNL     1      24.829   4.332  51.135  1.00  0.00    -0.349 N 
HETATM    5  C13 UNL     1      25.666   4.540  49.999  1.00  0.00     0.222 C 
HETATM    6  O1  UNL     1      26.288   3.546  49.553  1.00  0.00    -0.273 OA
HETATM    7  H17 UNL     1      24.252   5.087  51.607  1.00  0.00     0.163 HD
BRANCH   5   8
HETATM    8  C14 UNL     1      25.661   5.946  49.522  1.00  0.00     0.082 C 
HETATM    9  C15 UNL     1      24.668   6.135  48.395  1.00  0.00     0.046 C 
HETATM   10  C16 UNL     1      24.685   7.593  48.080  1.00  0.00     0.048 C 
HETATM   11  C17 UNL     1      23.667   7.798  46.956  1.00  0.00     0.040 C 
HETATM   12  C18 UNL     1      24.137   8.345  49.263  1.00  0.00     0.040 C 
HETATM   13  N4  UNL     1      25.942   8.031  47.618  1.00  0.00    -0.278 N 
HETATM   14  C19 UNL     1      27.119   7.559  48.249  1.00  0.00     0.048 C 
HETATM   15  C20 UNL     1      27.725   8.575  49.214  1.00  0.00     0.040 C 
HETATM   16  C21 UNL     1      28.142   7.358  47.135  1.00  0.00     0.040 C 
HETATM   17  C22 UNL     1      27.016   6.263  48.960  1.00  0.00     0.046 C 
BRANCH  13  18
HETATM   18  O2  UNL     1      26.024   9.325  47.339  1.00  0.00    -0.291 OA
HETATM   19  H27 UNL     1      25.191   9.830  47.313  1.00  0.00     0.244 HD
ENDBRANCH  13  18
ENDBRANCH   5   8
ENDBRANCH   3   4
BRANCH   1  20
HETATM   20  C9  UNL     1      26.697   2.226  53.594  1.00  0.00     0.075 C 
HETATM   21  C5  UNL     1      26.757   0.730  53.823  1.00  0.00     0.277 C 
HETATM   22  C6  UNL     1      28.245   0.505  53.704  1.00  0.00     0.036 C 
HETATM   23  C7  UNL     1      29.195  -0.542  54.181  1.00  0.00     0.067 C 
HETATM   24  N2  UNL     1      28.817   1.429  53.042  1.00  0.00    -0.296 NA
HETATM   25  C8  UNL     1      27.839   2.409  52.611  1.00  0.00     0.160 C 
BRANCH  21  26
HETATM   26  N1  UNL     1      26.052   0.086  52.759  1.00  0.00     0.097 N 
HETATM   27  H7  UNL     1      26.712  -0.290  52.073  1.00  0.00     0.317 HD
BRANCH  26  28
HETATM   28  C4  UNL     1      25.155  -0.953  53.210  1.00  0.00     0.298 C 
BRANCH  28  29
HETATM   29  C3  UNL     1      23.785  -0.489  53.427  1.00  0.00     0.008 C 
HETATM   30  C2  UNL     1      22.584  -0.436  53.986  1.00  0.00    -0.058 C 
HETATM   31  C1  UNL     1      21.332   0.359  53.795  1.00  0.00     0.045 C 
BRANCH  30  32
HETATM   32  C23 UNL     1      22.438  -1.429  55.099  1.00  0.00     0.256 C 
HETATM   33  F1  UNL     1      23.468  -1.316  56.021  1.00  0.00    -0.251 F 
ENDBRANCH  30  32
ENDBRANCH  28  29
ENDBRANCH  26  28
ENDBRANCH  21  26
ENDBRANCH   1  20
TORSDOF 8
ENDMDL
MODEL 3
REMARK VINA RESULT:      -7.5      3.100      6.243
REMARK  8 active torsions:
REMARK  status: ('A' for Active; 'I' for Inactive)
REMARK    1  A    between atoms: C2_2  and  C23_29 
REMARK    2  A    between atoms: C3_3  and  C4_4 
REMARK    3  A    between atoms: C4_4  and  N1_5 
REMARK    4  A    between atoms: N1_5  and  C5_6 
REMARK    5  A    between atoms: C9_11  and  C10_12 
REMARK    6  A    between atoms: C12_14  and  N3_15 
REMARK       I    between atoms: N3_15  and  C13_16 
REMARK    7  A    between atoms: C13_16  and  C14_18 
REMARK    8  A    between atoms: N4_23  and  O2_24 
ROOT
HETATM    1  C10 UNL     1      20.836  -0.032  51.688  1.00  0.00    -0.047 A 
HETATM    2  C11 UNL     1      19.765   0.711  51.335  1.00  0.00     0.008 A 
HETATM    3  C12 UNL     1      20.980   0.749  50.491  1.00  0.00     0.137 A 
ENDROOT
BRANCH   3   4
HETATM    4  N3  UNL     1      21.668   2.026  50.492  1.00  0.00    -0.349 N 
HETATM    5  C13 UNL     1      22.328   2.477  49.310  1.00  0.00     0.222 C 
HETATM    6  O1  UNL     1      22.281   1.729  48.304  1.00  0.00    -0.273 OA
HETATM    7  H17 UNL     1      21.633   2.562  51.407  1.00  0.00     0.163 HD
BRANCH   5   8
HETATM    8  C14 UNL     1      22.983   3.799  49.478  1.00  0.00     0.082 C 
HETATM    9  C15 UNL     1      24.482   3.691  49.302  1.00  0.00     0.046 C 
HETATM   10  C16 UNL     1      25.003   5.085  49.390  1.00  0.00     0.048 C 
HETATM   11  C17 UNL     1      26.517   4.989  49.191  1.00  0.00     0.040 C 
HETATM   12  C18 UNL     1      24.489   5.865  48.210  1.00  0.00     0.040 C 
HETATM   13  N4  UNL     1      24.764   5.672  50.649  1.00  0.00    -0.278 N 
HETATM   14  C19 UNL     1      23.510   5.478  51.281  1.00  0.00     0.048 C 
HETATM   15  C20 UNL     1      22.584   6.683  51.147  1.00  0.00     0.040 C 
HETATM   16  C21 UNL     1      23.809   5.326  52.770  1.00  0.00     0.040 C 
HETATM   17  C22 UNL     1      22.747   4.272  50.883  1.00  0.00     0.046 C 
BRANCH  13  18
HETATM   18  O2  UNL     1      25.189   6.921  50.782  1.00  0.00    -0.291 OA
HETATM   19  H27 UNL     1      25.310   7.257  51.689  1.00  0.00     0.244 HD
ENDBRANCH  13  18
ENDBRANCH   5   8
ENDBRANCH   3   4
BRANCH   1  20
HETATM   20  C9  UNL     1      21.402  -0.993  52.679  1.00  0.00     0.075 C 
HETATM   21  C5  UNL     1      22.711  -0.519  53.276  1.00  0.00     0.277 C 
HETATM   22  C6  UNL     1      22.607  -1.126  54.654  1.00  0.00     0.036 C 
HETATM   23  C7  UNL     1      23.584  -1.505  55.716  1.00  0.00     0.067 C 
HETATM   24  N2  UNL     1      21.401  -1.370  54.980  1.00  0.00    -0.296 NA
HETATM   25  C8  UNL     1      20.508  -0.979  53.906  1.00  0.00     0.160 C 
BRANCH  21  26
HETATM   26  N1  UNL     1      22.682   0.909  53.339  1.00  0.00     0.097 N 
HETATM   27  H7  UNL     1      22.338   1.217  54.252  1.00  0.00     0.317 HD
BRANCH  26  28
HETATM   28  C4  UNL     1      23.958   1.523  53.053  1.00  0.00     0.298 C 
BRANCH  28  29
HETATM   29  C3  UNL     1      25.055   0.564  52.932  1.00  0.00     0.008 C 
HETATM   30  C2  UNL     1      26.152  -0.094  53.283  1.00  0.00    -0.058 C 
HETATM   31  C1  UNL     1      27.013  -1.163  52.691  1.00  0.00     0.045 C 
BRANCH  30  32
HETATM   32  C23 UNL     1      26.665   0.345  54.621  1.00  0.00     0.256 C 
HETATM   33  F1  UNL     1      27.937  -0.150  54.867  1.00  0.00    -0.251 F 
ENDBRANCH  30  32
ENDBRANCH  28  29
ENDBRANCH  26  28
ENDBRANCH  21  26
ENDBRANCH   1  20
TORSDOF 8
ENDMDL
MODEL 4
REMARK VINA RESULT:      -7.4      3.003      7.233
REMARK  8 active torsions:
REMARK  status: ('A' for Active; 'I' for Inactive)
REMARK    1  A    between atoms: C2_2  and  C23_29 
REMARK    2  A    between atoms: C3_3  and  C4_4 
REMARK    3  A    between atoms: C4_4  and  N1_5 
REMARK    4  A    between atoms: N1_5  and  C5_6 
REMARK    5  A    between atoms: C9_11  and  C10_12 
REMARK    6  A    between atoms: C12_14  and  N3_15 
REMARK       I    between atoms: N3_15  and  C13_16 
REMARK    7  A    between atoms: C13_16  and  C14_18 
REMARK    8  A    between atoms: N4_23  and  O2_24 
ROOT
HETATM    1  C10 UNL     1      25.608   2.614  53.145  1.00  0.00    -0.047 A 
HETATM    2  C11 UNL     1      24.382   3.131  53.376  1.00  0.00     0.008 A 
HETATM    3  C12 UNL     1      24.795   2.847  51.983  1.00  0.00     0.137 A 
ENDROOT
BRANCH   3   4
HETATM    4  N3  UNL     1      24.965   4.029  51.159  1.00  0.00    -0.349 N 
HETATM    5  C13 UNL     1      24.539   4.010  49.798  1.00  0.00     0.222 C 
HETATM    6  O1  UNL     1      24.026   2.949  49.369  1.00  0.00    -0.273 OA
HETATM    7  H17 UNL     1      25.412   4.861  51.642  1.00  0.00     0.163 HD
BRANCH   5   8
HETATM    8  C14 UNL     1      24.784   5.295  49.094  1.00  0.00     0.082 C 
HETATM    9  C15 UNL     1      25.503   6.280  49.992  1.00  0.00     0.046 C 
HETATM   10  C16 UNL     1      25.778   7.475  49.144  1.00  0.00     0.048 C 
HETATM   11  C17 UNL     1      26.524   8.469  50.038  1.00  0.00     0.040 C 
HETATM   12  C18 UNL     1      26.756   7.086  48.069  1.00  0.00     0.040 C 
HETATM   13  N4  UNL     1      24.598   8.097  48.688  1.00  0.00    -0.278 N 
HETATM   14  C19 UNL     1      23.521   7.297  48.233  1.00  0.00     0.048 C 
HETATM   15  C20 UNL     1      23.431   7.232  46.711  1.00  0.00     0.040 C 
HETATM   16  C21 UNL     1      22.250   7.992  48.712  1.00  0.00     0.040 C 
HETATM   17  C22 UNL     1      23.459   5.911  48.751  1.00  0.00     0.046 C 
BRANCH  13  18
HETATM   18  O2  UNL     1      24.780   9.158  47.913  1.00  0.00    -0.291 OA
HETATM   19  H27 UNL     1      24.353   9.148  47.037  1.00  0.00     0.244 HD
ENDBRANCH  13  18
ENDBRANCH   5   8
ENDBRANCH   3   4
BRANCH   1  20
HETATM   20  C9  UNL     1      26.887   2.146  53.753  1.00  0.00     0.075 C 
HETATM   21  C5  UNL     1      26.901   0.654  54.015  1.00  0.00     0.277 C 
HETATM   22  C6  UNL     1      28.369   0.364  53.812  1.00  0.00     0.036 C 
HETATM   23  C7  UNL     1      29.304  -0.711  54.257  1.00  0.00     0.067 C 
HETATM   24  N2  UNL     1      28.937   1.249  53.094  1.00  0.00    -0.296 NA
HETATM   25  C8  UNL     1      27.974   2.259  52.698  1.00  0.00     0.160 C 
BRANCH  21  26
HETATM   26  N1  UNL     1      26.108   0.016  53.010  1.00  0.00     0.097 N 
HETATM   27  H7  UNL     1      26.709  -0.469  52.339  1.00  0.00     0.317 HD
BRANCH  26  28
HETATM   28  C4  UNL     1      25.124  -0.894  53.549  1.00  0.00     0.298 C 
BRANCH  28  29
HETATM   29  C3  UNL     1      23.744  -0.489  53.284  1.00  0.00     0.008 C 
HETATM   30  C2  UNL     1      22.447  -0.335  53.512  1.00  0.00    -0.058 C 
HETATM   31  C1  UNL     1      21.278   0.248  52.785  1.00  0.00     0.045 C 
BRANCH  30  32
HETATM   32  C23 UNL     1      22.043  -0.887  54.846  1.00  0.00     0.256 C 
HETATM   33  F1  UNL     1      21.905  -2.266  54.806  1.00  0.00    -0.251 F 
ENDBRANCH  30  32
ENDBRANCH  28  29
ENDBRANCH  26  28
ENDBRANCH  21  26
ENDBRANCH   1  20
TORSDOF 8
ENDMDL
MODEL 5
REMARK VINA RESULT:      -7.0      3.060      6.803
REMARK  8 active torsions:
REMARK  status: ('A' for Active; 'I' for Inactive)
REMARK    1  A    between atoms: C2_2  and  C23_29 
REMARK    2  A    between atoms: C3_3  and  C4_4 
REMARK    3  A    between atoms: C4_4  and  N1_5 
REMARK    4  A    between atoms: N1_5  and  C5_6 
REMARK    5  A    between atoms: C9_11  and  C10_12 
REMARK    6  A    between atoms: C12_14  and  N3_15 
REMARK       I    between atoms: N3_15  and  C13_16 
REMARK    7  A    between atoms: C13_16  and  C14_18 
REMARK    8  A    between atoms: N4_23  and  O2_24 
ROOT
HETATM    1  C10 UNL     1      21.197  -0.285  52.046  1.00  0.00    -0.047 A 
HETATM    2  C11 UNL     1      19.999   0.316  51.878  1.00  0.00     0.008 A 
HETATM    3  C12 UNL     1      21.014   0.417  50.806  1.00  0.00     0.137 A 
ENDROOT
BRANCH   3   4
HETATM    4  N3  UNL     1      21.537   1.755  50.602  1.00  0.00    -0.349 N 
HETATM    5  C13 UNL     1      21.775   2.229  49.278  1.00  0.00     0.222 C 
HETATM    6  O1  UNL     1      21.515   1.449  48.332  1.00  0.00    -0.273 OA
HETATM    7  H17 UNL     1      21.714   2.314  51.486  1.00  0.00     0.163 HD
BRANCH   5   8
HETATM    8  C14 UNL     1      22.310   3.614  49.244  1.00  0.00     0.082 C 
HETATM    9  C15 UNL     1      22.305   4.166  47.835  1.00  0.00     0.046 C 
HETATM   10  C16 UNL     1      22.763   5.580  47.950  1.00  0.00     0.048 C 
HETATM   11  C17 UNL     1      22.740   6.153  46.532  1.00  0.00     0.040 C 
HETATM   12  C18 UNL     1      21.727   6.358  48.717  1.00  0.00     0.040 C 
HETATM   13  N4  UNL     1      24.079   5.683  48.443  1.00  0.00    -0.278 N 
HETATM   14  C19 UNL     1      24.489   4.850  49.513  1.00  0.00     0.048 C 
HETATM   15  C20 UNL     1      24.507   5.573  50.856  1.00  0.00     0.040 C 
HETATM   16  C21 UNL     1      25.934   4.460  49.212  1.00  0.00     0.040 C 
HETATM   17  C22 UNL     1      23.743   3.582  49.689  1.00  0.00     0.046 C 
BRANCH  13  18
HETATM   18  O2  UNL     1      24.536   6.920  48.586  1.00  0.00    -0.291 OA
HETATM   19  H27 UNL     1      24.013   7.638  48.184  1.00  0.00     0.244 HD
ENDBRANCH  13  18
ENDBRANCH   5   8
ENDBRANCH   3   4
BRANCH   1  20
HETATM   20  C9  UNL     1      22.051  -1.107  52.950  1.00  0.00     0.075 C 
HETATM   21  C5  UNL     1      23.281  -0.365  53.432  1.00  0.00     0.277 C 
HETATM   22  C6  UNL     1      23.447  -0.989  54.797  1.00  0.00     0.036 C 
HETATM   23  C7  UNL     1      24.584  -1.155  55.750  1.00  0.00     0.067 C 
HETATM   24  N2  UNL     1      22.361  -1.491  55.230  1.00  0.00    -0.296 NA
HETATM   25  C8  UNL     1      21.302  -1.295  54.258  1.00  0.00     0.160 C 
BRANCH  21  26
HETATM   26  N1  UNL     1      22.952   1.023  53.539  1.00  0.00     0.097 N 
HETATM   27  H7  UNL     1      22.745   1.265  54.511  1.00  0.00     0.317 HD
BRANCH  26  28
HETATM   28  C4  UNL     1      23.976   1.897  53.014  1.00  0.00     0.298 C 
BRANCH  28  29
HETATM   29  C3  UNL     1      25.331   1.513  53.405  1.00  0.00     0.008 C 
HETATM   30  C2  UNL     1      26.549   1.007  53.267  1.00  0.00    -0.058 C 
HETATM   31  C1  UNL     1      27.757   0.835  54.131  1.00  0.00     0.045 C 
BRANCH  30  32
HETATM   32  C23 UNL     1      26.781   0.468  51.888  1.00  0.00     0.256 C 
HETATM   33  F1  UNL     1      26.748   1.475  50.935  1.00  0.00    -0.251 F 
ENDBRANCH  30  32
ENDBRANCH  28  29
ENDBRANCH  26  28
ENDBRANCH  21  26
ENDBRANCH   1  20
TORSDOF 8
ENDMDL
MODEL 6
REMARK VINA RESULT:      -7.0      3.033      8.086
REMARK  8 active torsions:
REMARK  status: ('A' for Active; 'I' for Inactive)
REMARK    1  A    between atoms: C2_2  and  C23_29 
REMARK    2  A    between atoms: C3_3  and  C4_4 
REMARK    3  A    between atoms: C4_4  and  N1_5 
REMARK    4  A    between atoms: N1_5  and  C5_6 
REMARK    5  A    between atoms: C9_11  and  C10_12 
REMARK    6  A    between atoms: C12_14  and  N3_15 
REMARK       I    between atoms: N3_15  and  C13_16 
REMARK    7  A    between atoms: C13_16  and  C14_18 
REMARK    8  A    between atoms: N4_23  and  O2_24 
ROOT
HETATM    1  C10 UNL     1      21.983  -0.385  53.676  1.00  0.00    -0.047 A 
HETATM    2  C11 UNL     1      21.115   0.102  54.589  1.00  0.00     0.008 A 
HETATM    3  C12 UNL     1      20.628  -0.217  53.227  1.00  0.00     0.137 A 
ENDROOT
BRANCH   3   4
HETATM    4  N3  UNL     1      20.219   0.941  52.454  1.00  0.00    -0.349 N 
HETATM    5  C13 UNL     1      20.579   1.036  51.077  1.00  0.00     0.222 C 
HETATM    6  O1  UNL     1      21.247   0.093  50.590  1.00  0.00    -0.273 OA
HETATM    7  H17 UNL     1      19.658   1.668  52.984  1.00  0.00     0.163 HD
BRANCH   5   8
HETATM    8  C14 UNL     1      20.086   2.279  50.432  1.00  0.00     0.082 C 
HETATM    9  C15 UNL     1      20.844   3.490  50.931  1.00  0.00     0.046 C 
HETATM   10  C16 UNL     1      20.331   4.646  50.140  1.00  0.00     0.048 C 
HETATM   11  C17 UNL     1      21.108   5.872  50.623  1.00  0.00     0.040 C 
HETATM   12  C18 UNL     1      20.729   4.456  48.701  1.00  0.00     0.040 C 
HETATM   13  N4  UNL     1      18.959   4.883  50.359  1.00  0.00    -0.278 N 
HETATM   14  C19 UNL     1      18.066   3.785  50.433  1.00  0.00     0.048 C 
HETATM   15  C20 UNL     1      17.271   3.579  49.147  1.00  0.00     0.040 C 
HETATM   16  C21 UNL     1      17.051   4.141  51.516  1.00  0.00     0.040 C 
HETATM   17  C22 UNL     1      18.650   2.480  50.820  1.00  0.00     0.046 C 
BRANCH  13  18
HETATM   18  O2  UNL     1      18.440   5.888  49.667  1.00  0.00    -0.291 OA
HETATM   19  H27 UNL     1      18.335   5.762  48.707  1.00  0.00     0.244 HD
ENDBRANCH  13  18
ENDBRANCH   5   8
ENDBRANCH   3   4
BRANCH   1  20
HETATM   20  C9  UNL     1      23.392  -0.792  53.404  1.00  0.00     0.075 C 
HETATM   21  C5  UNL     1      24.234   0.339  52.851  1.00  0.00     0.277 C 
HETATM   22  C6  UNL     1      25.580  -0.029  53.427  1.00  0.00     0.036 C 
HETATM   23  C7  UNL     1      26.998   0.275  53.073  1.00  0.00     0.067 C 
HETATM   24  N2  UNL     1      25.475  -0.774  54.453  1.00  0.00    -0.296 NA
HETATM   25  C8  UNL     1      24.076  -1.028  54.739  1.00  0.00     0.160 C 
BRANCH  21  26
HETATM   26  N1  UNL     1      23.756   1.566  53.407  1.00  0.00     0.097 N 
HETATM   27  H7  UNL     1      23.693   1.494  54.425  1.00  0.00     0.317 HD
BRANCH  26  28
HETATM   28  C4  UNL     1      24.550   2.714  53.034  1.00  0.00     0.298 C 
BRANCH  28  29
HETATM   29  C3  UNL     1      24.448   3.062  51.618  1.00  0.00     0.008 C 
HETATM   30  C2  UNL     1      24.857   3.257  50.372  1.00  0.00    -0.058 C 
HETATM   31  C1  UNL     1      24.239   3.692  49.081  1.00  0.00     0.045 C 
BRANCH  30  32
HETATM   32  C23 UNL     1      26.318   2.965  50.208  1.00  0.00     0.256 C 
HETATM   33  F1  UNL     1      26.877   3.716  49.185  1.00  0.00    -0.251 F 
ENDBRANCH  30  32
ENDBRANCH  28  29
ENDBRANCH  26  28
ENDBRANCH  21  26
ENDBRANCH   1  20
TORSDOF 8
ENDMDL
MODEL 7
REMARK VINA RESULT:      -7.0      3.531      6.846
REMARK  8 active torsions:
REMARK  status: ('A' for Active; 'I' for Inactive)
REMARK    1  A    between atoms: C2_2  and  C23_29 
REMARK    2  A    between atoms: C3_3  and  C4_4 
REMARK    3  A    between atoms: C4_4  and  N1_5 
REMARK    4  A    between atoms: N1_5  and  C5_6 
REMARK    5  A    between atoms: C9_11  and  C10_12 
REMARK    6  A    between atoms: C12_14  and  N3_15 
REMARK       I    between atoms: N3_15  and  C13_16 
REMARK    7  A    between atoms: C13_16  and  C14_18 
REMARK    8  A    between atoms: N4_23  and  O2_24 
ROOT
HETATM    1  C10 UNL     1      23.378   7.199  50.149  1.00  0.00    -0.047 A 
HETATM    2  C11 UNL     1      22.245   7.733  49.645  1.00  0.00     0.008 A 
HETATM    3  C12 UNL     1      22.172   6.923  50.881  1.00  0.00     0.137 A 
ENDROOT
BRANCH   3   4
HETATM    4  N3  UNL     1      21.460   5.668  50.731  1.00  0.00    -0.349 N 
HETATM    5  C13 UNL     1      21.625   4.639  51.706  1.00  0.00     0.222 C 
HETATM    6  O1  UNL     1      22.395   4.875  52.667  1.00  0.00    -0.273 OA
HETATM    7  H17 UNL     1      20.840   5.595  49.874  1.00  0.00     0.163 HD
BRANCH   5   8
HETATM    8  C14 UNL     1      20.830   3.421  51.405  1.00  0.00     0.082 C 
HETATM    9  C15 UNL     1      19.358   3.652  51.672  1.00  0.00     0.046 C 
HETATM   10  C16 UNL     1      18.666   2.404  51.238  1.00  0.00     0.048 C 
HETATM   11  C17 UNL     1      17.174   2.636  51.483  1.00  0.00     0.040 C 
HETATM   12  C18 UNL     1      18.814   2.268  49.747  1.00  0.00     0.040 C 
HETATM   13  N4  UNL     1      19.063   1.278  51.988  1.00  0.00    -0.278 N 
HETATM   14  C19 UNL     1      20.432   1.103  52.309  1.00  0.00     0.048 C 
HETATM   15  C20 UNL     1      21.126   0.078  51.416  1.00  0.00     0.040 C 
HETATM   16  C21 UNL     1      20.462   0.535  53.725  1.00  0.00     0.040 C 
HETATM   17  C22 UNL     1      21.269   2.325  52.332  1.00  0.00     0.046 C 
BRANCH  13  18
HETATM   18  O2  UNL     1      18.495   0.133  51.635  1.00  0.00    -0.291 OA
HETATM   19  H27 UNL     1      17.529   0.136  51.501  1.00  0.00     0.244 HD
ENDBRANCH  13  18
ENDBRANCH   5   8
ENDBRANCH   3   4
BRANCH   1  20
HETATM   20  C9  UNL     1      24.853   7.049  49.987  1.00  0.00     0.075 C 
HETATM   21  C5  UNL     1      25.282   5.605  49.832  1.00  0.00     0.277 C 
HETATM   22  C6  UNL     1      26.483   5.782  48.934  1.00  0.00     0.036 C 
HETATM   23  C7  UNL     1      27.703   4.977  48.632  1.00  0.00     0.067 C 
HETATM   24  N2  UNL     1      26.439   6.877  48.286  1.00  0.00    -0.296 NA
HETATM   25  C8  UNL     1      25.232   7.606  48.626  1.00  0.00     0.160 C 
BRANCH  21  26
HETATM   26  N1  UNL     1      24.237   4.897  49.159  1.00  0.00     0.097 N 
HETATM   27  H7  UNL     1      24.168   5.207  48.187  1.00  0.00     0.317 HD
BRANCH  26  28
HETATM   28  C4  UNL     1      24.387   3.461  49.217  1.00  0.00     0.298 C 
BRANCH  28  29
HETATM   29  C3  UNL     1      24.488   2.937  50.578  1.00  0.00     0.008 C 
HETATM   30  C2  UNL     1      25.054   2.363  51.631  1.00  0.00    -0.058 C 
HETATM   31  C1  UNL     1      24.643   2.004  53.023  1.00  0.00     0.045 C 
BRANCH  30  32
HETATM   32  C23 UNL     1      26.475   1.972  51.361  1.00  0.00     0.256 C 
HETATM   33  F1  UNL     1      27.311   3.078  51.327  1.00  0.00    -0.251 F 
ENDBRANCH  30  32
ENDBRANCH  28  29
ENDBRANCH  26  28
ENDBRANCH  21  26
ENDBRANCH   1  20
TORSDOF 8
ENDMDL
MODEL 8
REMARK VINA RESULT:      -7.0      3.263      7.055
REMARK  8 active torsions:
REMARK  status: ('A' for Active; 'I' for Inactive)
REMARK    1  A    between atoms: C2_2  and  C23_29 
REMARK    2  A    between atoms: C3_3  and  C4_4 
REMARK    3  A    between atoms: C4_4  and  N1_5 
REMARK    4  A    between atoms: N1_5  and  C5_6 
REMARK    5  A    between atoms: C9_11  and  C10_12 
REMARK    6  A    between atoms: C12_14  and  N3_15 
REMARK       I    between atoms: N3_15  and  C13_16 
REMARK    7  A    between atoms: C13_16  and  C14_18 
REMARK    8  A    between atoms: N4_23  and  O2_24 
ROOT
HETATM    1  C10 UNL     1      24.868   1.537  51.977  1.00  0.00    -0.047 A 
HETATM    2  C11 UNL     1      26.122   1.675  51.496  1.00  0.00     0.008 A 
HETATM    3  C12 UNL     1      25.441   2.850  52.082  1.00  0.00     0.137 A 
ENDROOT
BRANCH   3   4
HETATM    4  N3  UNL     1      25.129   3.897  51.127  1.00  0.00    -0.349 N 
HETATM    5  C13 UNL     1      24.118   4.856  51.432  1.00  0.00     0.222 C 
HETATM    6  O1  UNL     1      23.535   4.747  52.537  1.00  0.00    -0.273 OA
HETATM    7  H17 UNL     1      25.695   3.879  50.230  1.00  0.00     0.163 HD
BRANCH   5   8
HETATM    8  C14 UNL     1      23.921   5.856  50.352  1.00  0.00     0.082 C 
HETATM    9  C15 UNL     1      23.334   5.213  49.114  1.00  0.00     0.046 C 
HETATM   10  C16 UNL     1      23.091   6.327  48.153  1.00  0.00     0.048 C 
HETATM   11  C17 UNL     1      22.477   5.688  46.906  1.00  0.00     0.040 C 
HETATM   12  C18 UNL     1      22.020   7.221  48.718  1.00  0.00     0.040 C 
HETATM   13  N4  UNL     1      24.280   6.979  47.771  1.00  0.00    -0.278 N 
HETATM   14  C19 UNL     1      25.266   7.259  48.749  1.00  0.00     0.048 C 
HETATM   15  C20 UNL     1      25.253   8.715  49.206  1.00  0.00     0.040 C 
HETATM   16  C21 UNL     1      26.612   7.032  48.067  1.00  0.00     0.040 C 
HETATM   17  C22 UNL     1      25.262   6.404  49.959  1.00  0.00     0.046 C 
BRANCH  13  18
HETATM   18  O2  UNL     1      24.125   7.993  46.930  1.00  0.00    -0.291 OA
HETATM   19  H27 UNL     1      24.920   8.509  46.701  1.00  0.00     0.244 HD
ENDBRANCH  13  18
ENDBRANCH   5   8
ENDBRANCH   3   4
BRANCH   1  20
HETATM   20  C9  UNL     1      23.727   0.605  52.205  1.00  0.00     0.075 C 
HETATM   21  C5  UNL     1      23.991  -0.385  53.322  1.00  0.00     0.277 C 
HETATM   22  C6  UNL     1      22.588  -0.565  53.851  1.00  0.00     0.036 C 
HETATM   23  C7  UNL     1      21.883  -1.624  54.633  1.00  0.00     0.067 C 
HETATM   24  N2  UNL     1      21.836   0.418  53.557  1.00  0.00    -0.296 NA
HETATM   25  C8  UNL     1      22.582   1.405  52.801  1.00  0.00     0.160 C 
BRANCH  21  26
HETATM   26  N1  UNL     1      24.829   0.248  54.292  1.00  0.00     0.097 N 
HETATM   27  H7  UNL     1      24.302   0.437  55.148  1.00  0.00     0.317 HD
BRANCH  26  28
HETATM   28  C4  UNL     1      26.024  -0.504  54.596  1.00  0.00     0.298 C 
BRANCH  28  29
HETATM   29  C3  UNL     1      27.243   0.303  54.584  1.00  0.00     0.008 C 
HETATM   30  C2  UNL     1      28.481   0.647  54.257  1.00  0.00    -0.058 C 
HETATM   31  C1  UNL     1      29.418   1.766  54.579  1.00  0.00     0.045 C 
BRANCH  30  32
HETATM   32  C23 UNL     1      29.108  -0.339  53.318  1.00  0.00     0.256 C 
HETATM   33  F1  UNL     1      29.165  -1.608  53.874  1.00  0.00    -0.251 F 
ENDBRANCH  30  32
ENDBRANCH  28  29
ENDBRANCH  26  28
ENDBRANCH  21  26
ENDBRANCH   1  20
TORSDOF 8
ENDMDL
MODEL 9
REMARK VINA RESULT:      -6.9      3.175      8.200
REMARK  8 active torsions:
REMARK  status: ('A' for Active; 'I' for Inactive)
REMARK    1  A    between atoms: C2_2  and  C23_29 
REMARK    2  A    between atoms: C3_3  and  C4_4 
REMARK    3  A    between atoms: C4_4  and  N1_5 
REMARK    4  A    between atoms: N1_5  and  C5_6 
REMARK    5  A    between atoms: C9_11  and  C10_12 
REMARK    6  A    between atoms: C12_14  and  N3_15 
REMARK       I    between atoms: N3_15  and  C13_16 
REMARK    7  A    between atoms: C13_16  and  C14_18 
REMARK    8  A    between atoms: N4_23  and  O2_24 
ROOT
HETATM    1  C10 UNL     1      22.164  -0.466  53.686  1.00  0.00    -0.047 A 
HETATM    2  C11 UNL     1      21.409  -0.255  54.786  1.00  0.00     0.008 A 
HETATM    3  C12 UNL     1      20.741  -0.483  53.486  1.00  0.00     0.137 A 
ENDROOT
BRANCH   3   4
HETATM    4  N3  UNL     1      20.029   0.671  52.969  1.00  0.00    -0.349 N 
HETATM    5  C13 UNL     1      20.092   0.978  51.578  1.00  0.00     0.222 C 
HETATM    6  O1  UNL     1      20.774   0.217  50.850  1.00  0.00    -0.273 OA
HETATM    7  H17 UNL     1      19.489   1.232  53.689  1.00  0.00     0.163 HD
BRANCH   5   8
HETATM    8  C14 UNL     1      19.312   2.188  51.214  1.00  0.00     0.082 C 
HETATM    9  C15 UNL     1      17.928   1.818  50.724  1.00  0.00     0.046 C 
HETATM   10  C16 UNL     1      17.220   3.110  50.493  1.00  0.00     0.048 C 
HETATM   11  C17 UNL     1      15.812   2.746  50.018  1.00  0.00     0.040 C 
HETATM   12  C18 UNL     1      17.035   3.799  51.818  1.00  0.00     0.040 C 
HETATM   13  N4  UNL     1      17.832   3.889  49.490  1.00  0.00    -0.278 N 
HETATM   14  C19 UNL     1      19.246   3.984  49.448  1.00  0.00     0.048 C 
HETATM   15  C20 UNL     1      19.771   5.294  50.028  1.00  0.00     0.040 C 
HETATM   16  C21 UNL     1      19.623   3.984  47.969  1.00  0.00     0.040 C 
HETATM   17  C22 UNL     1      20.004   2.875  50.072  1.00  0.00     0.046 C 
BRANCH  13  18
HETATM   18  O2  UNL     1      17.258   5.060  49.252  1.00  0.00    -0.291 OA
HETATM   19  H27 UNL     1      17.346   5.748  49.936  1.00  0.00     0.244 HD
ENDBRANCH  13  18
ENDBRANCH   5   8
ENDBRANCH   3   4
BRANCH   1  20
HETATM   20  C9  UNL     1      23.546  -0.584  53.138  1.00  0.00     0.075 C 
HETATM   21  C5  UNL     1      24.008   0.674  52.434  1.00  0.00     0.277 C 
HETATM   22  C6  UNL     1      25.487   0.614  52.730  1.00  0.00     0.036 C 
HETATM   23  C7  UNL     1      26.714   1.190  52.103  1.00  0.00     0.067 C 
HETATM   24  N2  UNL     1      25.742  -0.098  53.754  1.00  0.00    -0.296 NA
HETATM   25  C8  UNL     1      24.511  -0.624  54.311  1.00  0.00     0.160 C 
BRANCH  21  26
HETATM   26  N1  UNL     1      23.401   1.797  53.078  1.00  0.00     0.097 N 
HETATM   27  H7  UNL     1      23.703   1.852  54.054  1.00  0.00     0.317 HD
BRANCH  26  28
HETATM   28  C4  UNL     1      23.652   3.050  52.405  1.00  0.00     0.298 C 
BRANCH  28  29
HETATM   29  C3  UNL     1      23.485   2.980  50.955  1.00  0.00     0.008 C 
HETATM   30  C2  UNL     1      23.786   3.167  49.677  1.00  0.00    -0.058 C 
HETATM   31  C1  UNL     1      23.164   2.842  48.356  1.00  0.00     0.045 C 
BRANCH  30  32
HETATM   32  C23 UNL     1      25.087   3.890  49.506  1.00  0.00     0.256 C 
HETATM   33  F1  UNL     1      26.118   3.018  49.188  1.00  0.00    -0.251 F 
ENDBRANCH  30  32
ENDBRANCH  28  29
ENDBRANCH  26  28
ENDBRANCH  21  26
ENDBRANCH   1  20
TORSDOF 8
ENDMDL
