MODEL 1
REMARK VINA RESULT:      -8.6      0.000      0.000
REMARK  6 active torsions:
REMARK  status: ('A' for Active; 'I' for Inactive)
REMARK    1  A    between atoms: C2_2  and  C4_4 
REMARK    2  A    between atoms: C4_4  and  O1_5 
REMARK    3  A    between atoms: O1_5  and  C5_6 
REMARK    4  A    between atoms: C5_6  and  C6_7 
REMARK    5  A    between atoms: C8_9  and  C9_10 
REMARK    6  A    between atoms: C10_11  and  C12_14 
REMARK       I    between atoms: C12_14  and  N2_15 
ROOT
HETATM    1  C9  UNL     1      27.028  -0.722  52.783  1.00  0.00     0.039 C 
HETATM    2  C10 UNL     1      28.140  -0.653  53.464  1.00  0.00     0.112 C 
HETATM    3  C11 UNL     1      28.667   0.414  54.291  1.00  0.00     0.105 C 
HETATM    4  N1  UNL     1      29.075   1.279  54.945  1.00  0.00    -0.191 NA
ENDROOT
BRANCH   2   5
HETATM    5  C12 UNL     1      29.068  -1.803  53.443  1.00  0.00     0.260 C 
HETATM    6  N2  UNL     1      28.447  -3.031  53.084  1.00  0.00    -0.365 N 
HETATM    7  H14 UNL     1      28.461  -3.872  53.684  1.00  0.00     0.159 HD
HETATM    8  H15 UNL     1      27.987  -3.928  52.809  1.00  0.00     0.159 HD
HETATM    9  O2  UNL     1      30.274  -1.793  53.699  1.00  0.00    -0.267 OA
ENDBRANCH   2   5
BRANCH   1  10
HETATM   10  C8  UNL     1      25.889   0.123  52.531  1.00  0.00    -0.038 C 
HETATM   11  C7  UNL     1      24.649  -0.306  53.220  1.00  0.00     0.020 C 
HETATM   12  C6  UNL     1      23.318  -0.060  53.231  1.00  0.00    -0.034 C 
HETATM   13  C19 UNL     1      22.600   0.866  52.372  1.00  0.00     0.006 C 
HETATM   14  C18 UNL     1      22.869   2.043  51.817  1.00  0.00    -0.017 C 
HETATM   15  C15 UNL     1      24.089   2.885  51.885  1.00  0.00    -0.027 C 
HETATM   16  C14 UNL     1      25.258   2.345  51.136  1.00  0.00     0.041 C 
HETATM   17  C16 UNL     1      24.433   3.241  53.313  1.00  0.00     0.019 C 
HETATM   18  C17 UNL     1      23.709   4.196  51.203  1.00  0.00     0.019 C 
HETATM   19  C13 UNL     1      25.937   1.198  51.748  1.00  0.00    -0.014 C 
BRANCH  12  20
HETATM   20  C5  UNL     1      22.612  -0.895  54.228  1.00  0.00     0.206 C 
BRANCH  20  21
HETATM   21  O1  UNL     1      21.310  -0.686  54.459  1.00  0.00    -0.386 OA
BRANCH  21  22
HETATM   22  C4  UNL     1      20.435  -1.549  53.900  1.00  0.00     0.171 C 
BRANCH  22  23
HETATM   23  C2  UNL     1      19.112  -0.874  53.515  1.00  0.00     0.001 C 
HETATM   24  C1  UNL     1      18.060  -1.957  53.488  1.00  0.00     0.011 C 
HETATM   25  C3  UNL     1      19.177  -0.194  52.182  1.00  0.00     0.011 C 
ENDBRANCH  22  23
ENDBRANCH  21  22
ENDBRANCH  20  21
ENDBRANCH  12  20
ENDBRANCH   1  10
TORSDOF 6
ENDMDL
MODEL 2
REMARK VINA RESULT:      -8.2      1.912      2.993
REMARK  6 active torsions:
REMARK  status: ('A' for Active; 'I' for Inactive)
REMARK    1  A    between atoms: C2_2  and  C4_4 
REMARK    2  A    between atoms: C4_4  and  O1_5 
REMARK    3  A    between atoms: O1_5  and  C5_6 
REMARK    4  A    between atoms: C5_6  and  C6_7 
REMARK    5  A    between atoms: C8_9  and  C9_10 
REMARK    6  A    between atoms: C10_11  and  C12_14 
REMARK       I    between atoms: C12_14  and  N2_15 
ROOT
HETATM    1  C9  UNL     1      26.368   0.787  52.013  1.00  0.00     0.039 C 
HETATM    2  C10 UNL     1      27.291   0.761  52.937  1.00  0.00     0.112 C 
HETATM    3  C11 UNL     1      28.081   1.836  53.504  1.00  0.00     0.105 C 
HETATM    4  N1  UNL     1      28.705   2.707  53.943  1.00  0.00    -0.191 NA
ENDROOT
BRANCH   2   5
HETATM    5  C12 UNL     1      27.650  -0.533  53.556  1.00  0.00     0.260 C 
HETATM    6  N2  UNL     1      28.374  -0.402  54.772  1.00  0.00    -0.365 N 
HETATM    7  H14 UNL     1      29.307  -0.818  54.925  1.00  0.00     0.159 HD
HETATM    8  H15 UNL     1      28.898  -0.300  55.671  1.00  0.00     0.159 HD
HETATM    9  O2  UNL     1      27.391  -1.660  53.129  1.00  0.00    -0.267 OA
ENDBRANCH   2   5
BRANCH   1  10
HETATM   10  C8  UNL     1      25.735   1.778  51.182  1.00  0.00    -0.038 C 
HETATM   11  C7  UNL     1      24.254   1.709  51.173  1.00  0.00     0.020 C 
HETATM   12  C6  UNL     1      23.186   2.198  50.501  1.00  0.00    -0.034 C 
HETATM   13  C19 UNL     1      23.218   3.089  49.353  1.00  0.00     0.006 C 
HETATM   14  C18 UNL     1      23.998   4.086  48.952  1.00  0.00    -0.017 C 
HETATM   15  C15 UNL     1      25.201   4.684  49.583  1.00  0.00    -0.027 C 
HETATM   16  C14 UNL     1      26.413   3.818  49.551  1.00  0.00     0.041 C 
HETATM   17  C16 UNL     1      24.896   5.199  50.970  1.00  0.00     0.019 C 
HETATM   18  C17 UNL     1      25.527   5.913  48.739  1.00  0.00     0.019 C 
HETATM   19  C13 UNL     1      26.412   2.681  50.477  1.00  0.00    -0.014 C 
BRANCH  12  20
HETATM   20  C5  UNL     1      21.910   1.687  51.047  1.00  0.00     0.206 C 
BRANCH  20  21
HETATM   21  O1  UNL     1      21.820   0.406  51.425  1.00  0.00    -0.386 OA
BRANCH  21  22
HETATM   22  C4  UNL     1      21.434   0.160  52.694  1.00  0.00     0.171 C 
BRANCH  22  23
HETATM   23  C2  UNL     1      22.200  -1.013  53.322  1.00  0.00     0.001 C 
HETATM   24  C1  UNL     1      21.297  -1.611  54.375  1.00  0.00     0.011 C 
HETATM   25  C3  UNL     1      23.496  -0.592  53.941  1.00  0.00     0.011 C 
ENDBRANCH  22  23
ENDBRANCH  21  22
ENDBRANCH  20  21
ENDBRANCH  12  20
ENDBRANCH   1  10
TORSDOF 6
ENDMDL
MODEL 3
REMARK VINA RESULT:      -8.0      2.725      5.739
REMARK  6 active torsions:
REMARK  status: ('A' for Active; 'I' for Inactive)
REMARK    1  A    between atoms: C2_2  and  C4_4 
REMARK    2  A    between atoms: C4_4  and  O1_5 
REMARK    3  A    between atoms: O1_5  and  C5_6 
REMARK    4  A    between atoms: C5_6  and  C6_7 
REMARK    5  A    between atoms: C8_9  and  C9_10 
REMARK    6  A    between atoms: C10_11  and  C12_14 
REMARK       I    between atoms: C12_14  and  N2_15 
ROOT
HETATM    1  C9  UNL     1      26.198   2.019  53.360  1.00  0.00     0.039 C 
HETATM    2  C10 UNL     1      27.078   1.067  53.514  1.00  0.00     0.112 C 
HETATM    3  C11 UNL     1      26.943  -0.369  53.367  1.00  0.00     0.105 C 
HETATM    4  N1  UNL     1      26.814  -1.514  53.249  1.00  0.00    -0.191 NA
ENDROOT
BRANCH   2   5
HETATM    5  C12 UNL     1      28.460   1.423  53.901  1.00  0.00     0.260 C 
HETATM    6  N2  UNL     1      29.382   0.348  53.781  1.00  0.00    -0.365 N 
HETATM    7  H14 UNL     1      29.952  -0.002  54.568  1.00  0.00     0.159 HD
HETATM    8  H15 UNL     1      30.057  -0.444  53.680  1.00  0.00     0.159 HD
HETATM    9  O2  UNL     1      28.863   2.518  54.302  1.00  0.00    -0.267 OA
ENDBRANCH   2   5
BRANCH   1  10
HETATM   10  C8  UNL     1      24.805   2.122  53.007  1.00  0.00    -0.038 C 
HETATM   11  C7  UNL     1      24.423   3.424  52.409  1.00  0.00     0.020 C 
HETATM   12  C6  UNL     1      23.326   4.141  52.074  1.00  0.00    -0.034 C 
HETATM   13  C19 UNL     1      21.941   3.753  52.279  1.00  0.00     0.006 C 
HETATM   14  C18 UNL     1      21.267   2.609  52.259  1.00  0.00    -0.017 C 
HETATM   15  C15 UNL     1      21.728   1.222  52.003  1.00  0.00    -0.027 C 
HETATM   16  C14 UNL     1      22.556   0.632  53.092  1.00  0.00     0.041 C 
HETATM   17  C16 UNL     1      22.386   1.103  50.648  1.00  0.00     0.019 C 
HETATM   18  C17 UNL     1      20.455   0.384  51.928  1.00  0.00     0.019 C 
HETATM   19  C13 UNL     1      23.929   1.139  53.198  1.00  0.00    -0.014 C 
BRANCH  12  20
HETATM   20  C5  UNL     1      23.683   5.449  51.480  1.00  0.00     0.206 C 
BRANCH  20  21
HETATM   21  O1  UNL     1      24.157   5.497  50.230  1.00  0.00    -0.386 OA
BRANCH  21  22
HETATM   22  C4  UNL     1      25.401   5.992  50.058  1.00  0.00     0.171 C 
BRANCH  22  23
HETATM   23  C2  UNL     1      26.185   5.239  48.974  1.00  0.00     0.001 C 
HETATM   24  C1  UNL     1      26.586   3.910  49.568  1.00  0.00     0.011 C 
HETATM   25  C3  UNL     1      27.403   5.982  48.520  1.00  0.00     0.011 C 
ENDBRANCH  22  23
ENDBRANCH  21  22
ENDBRANCH  20  21
ENDBRANCH  12  20
ENDBRANCH   1  10
TORSDOF 6
ENDMDL
MODEL 4
REMARK VINA RESULT:      -8.0      3.214      6.266
REMARK  6 active torsions:
REMARK  status: ('A' for Active; 'I' for Inactive)
REMARK    1  A    between atoms: C2_2  and  C4_4 
REMARK    2  A    between atoms: C4_4  and  O1_5 
REMARK    3  A    between atoms: O1_5  and  C5_6 
REMARK    4  A    between atoms: C5_6  and  C6_7 
REMARK    5  A    between atoms: C8_9  and  C9_10 
REMARK    6  A    between atoms: C10_11  and  C12_14 
REMARK       I    between atoms: C12_14  and  N2_15 
ROOT
HETATM    1  C9  UNL     1      24.905   2.542  50.792  1.00  0.00     0.039 C 
HETATM    2  C10 UNL     1      25.037   3.830  50.624  1.00  0.00     0.112 C 
HETATM    3  C11 UNL     1      24.176   4.922  51.034  1.00  0.00     0.105 C 
HETATM    4  N1  UNL     1      23.473   5.781  51.365  1.00  0.00    -0.191 NA
ENDROOT
BRANCH   2   5
HETATM    5  C12 UNL     1      26.226   4.344  49.912  1.00  0.00     0.260 C 
HETATM    6  N2  UNL     1      26.383   5.753  50.006  1.00  0.00    -0.365 N 
HETATM    7  H14 UNL     1      26.436   6.375  49.182  1.00  0.00     0.159 HD
HETATM    8  H15 UNL     1      26.499   6.789  50.086  1.00  0.00     0.159 HD
HETATM    9  O2  UNL     1      27.053   3.688  49.273  1.00  0.00    -0.267 OA
ENDBRANCH   2   5
BRANCH   1  10
HETATM   10  C8  UNL     1      23.952   1.648  51.397  1.00  0.00    -0.038 C 
HETATM   11  C7  UNL     1      24.460   0.934  52.592  1.00  0.00     0.020 C 
HETATM   12  C6  UNL     1      24.139  -0.091  53.416  1.00  0.00    -0.034 C 
HETATM   13  C19 UNL     1      22.980  -0.961  53.307  1.00  0.00     0.006 C 
HETATM   14  C18 UNL     1      21.722  -0.813  52.910  1.00  0.00    -0.017 C 
HETATM   15  C15 UNL     1      21.005   0.382  52.398  1.00  0.00    -0.027 C 
HETATM   16  C14 UNL     1      21.412   0.812  51.031  1.00  0.00     0.041 C 
HETATM   17  C16 UNL     1      21.047   1.516  53.396  1.00  0.00     0.019 C 
HETATM   18  C17 UNL     1      19.542  -0.040  52.300  1.00  0.00     0.019 C 
HETATM   19  C13 UNL     1      22.719   1.470  50.929  1.00  0.00    -0.014 C 
BRANCH  12  20
HETATM   20  C5  UNL     1      25.152  -0.282  54.477  1.00  0.00     0.206 C 
BRANCH  20  21
HETATM   21  O1  UNL     1      26.171   0.580  54.580  1.00  0.00    -0.386 OA
BRANCH  21  22
HETATM   22  C4  UNL     1      27.420   0.072  54.528  1.00  0.00     0.171 C 
BRANCH  22  23
HETATM   23  C2  UNL     1      28.270   0.722  53.427  1.00  0.00     0.001 C 
HETATM   24  C1  UNL     1      29.650   0.116  53.526  1.00  0.00     0.011 C 
HETATM   25  C3  UNL     1      28.356   2.210  53.566  1.00  0.00     0.011 C 
ENDBRANCH  22  23
ENDBRANCH  21  22
ENDBRANCH  20  21
ENDBRANCH  12  20
ENDBRANCH   1  10
TORSDOF 6
ENDMDL
MODEL 5
REMARK VINA RESULT:      -8.0      2.302      4.451
REMARK  6 active torsions:
REMARK  status: ('A' for Active; 'I' for Inactive)
REMARK    1  A    between atoms: C2_2  and  C4_4 
REMARK    2  A    between atoms: C4_4  and  O1_5 
REMARK    3  A    between atoms: O1_5  and  C5_6 
REMARK    4  A    between atoms: C5_6  and  C6_7 
REMARK    5  A    between atoms: C8_9  and  C9_10 
REMARK    6  A    between atoms: C10_11  and  C12_14 
REMARK       I    between atoms: C12_14  and  N2_15 
ROOT
HETATM    1  C9  UNL     1      26.347  -0.241  52.965  1.00  0.00     0.039 C 
HETATM    2  C10 UNL     1      27.548   0.114  53.336  1.00  0.00     0.112 C 
HETATM    3  C11 UNL     1      28.052   1.400  53.774  1.00  0.00     0.105 C 
HETATM    4  N1  UNL     1      28.438   2.437  54.118  1.00  0.00    -0.191 NA
ENDROOT
BRANCH   2   5
HETATM    5  C12 UNL     1      28.627  -0.897  53.338  1.00  0.00     0.260 C 
HETATM    6  N2  UNL     1      29.929  -0.342  53.468  1.00  0.00    -0.365 N 
HETATM    7  H14 UNL     1      30.683  -0.496  52.780  1.00  0.00     0.159 HD
HETATM    8  H15 UNL     1      30.883   0.071  53.574  1.00  0.00     0.159 HD
HETATM    9  O2  UNL     1      28.502  -2.120  53.240  1.00  0.00    -0.267 OA
ENDBRANCH   2   5
BRANCH   1  10
HETATM   10  C8  UNL     1      25.059   0.387  52.817  1.00  0.00    -0.038 C 
HETATM   11  C7  UNL     1      25.063   1.587  51.946  1.00  0.00     0.020 C 
HETATM   12  C6  UNL     1      24.277   2.631  51.598  1.00  0.00    -0.034 C 
HETATM   13  C19 UNL     1      22.951   2.929  52.116  1.00  0.00     0.006 C 
HETATM   14  C18 UNL     1      21.912   2.209  52.520  1.00  0.00    -0.017 C 
HETATM   15  C15 UNL     1      21.726   0.738  52.593  1.00  0.00    -0.027 C 
HETATM   16  C14 UNL     1      22.517   0.065  53.661  1.00  0.00     0.041 C 
HETATM   17  C16 UNL     1      21.916   0.093  51.240  1.00  0.00     0.019 C 
HETATM   18  C17 UNL     1      20.257   0.537  52.953  1.00  0.00     0.019 C 
HETATM   19  C13 UNL     1      23.956  -0.064  53.408  1.00  0.00    -0.014 C 
BRANCH  12  20
HETATM   20  C5  UNL     1      24.939   3.517  50.616  1.00  0.00     0.206 C 
BRANCH  20  21
HETATM   21  O1  UNL     1      24.595   3.443  49.324  1.00  0.00    -0.386 OA
BRANCH  21  22
HETATM   22  C4  UNL     1      23.746   4.381  48.854  1.00  0.00     0.171 C 
BRANCH  22  23
HETATM   23  C2  UNL     1      22.487   3.768  48.225  1.00  0.00     0.001 C 
HETATM   24  C1  UNL     1      21.326   4.150  49.111  1.00  0.00     0.011 C 
HETATM   25  C3  UNL     1      22.568   2.278  48.104  1.00  0.00     0.011 C 
ENDBRANCH  22  23
ENDBRANCH  21  22
ENDBRANCH  20  21
ENDBRANCH  12  20
ENDBRANCH   1  10
TORSDOF 6
ENDMDL
MODEL 6
REMARK VINA RESULT:      -7.9      1.554      2.201
REMARK  6 active torsions:
REMARK  status: ('A' for Active; 'I' for Inactive)
REMARK    1  A    between atoms: C2_2  and  C4_4 
REMARK    2  A    between atoms: C4_4  and  O1_5 
REMARK    3  A    between atoms: O1_5  and  C5_6 
REMARK    4  A    between atoms: C5_6  and  C6_7 
REMARK    5  A    between atoms: C8_9  and  C9_10 
REMARK    6  A    between atoms: C10_11  and  C12_14 
REMARK       I    between atoms: C12_14  and  N2_15 
ROOT
HETATM    1  C9  UNL     1      27.236   1.568  52.790  1.00  0.00     0.039 C 
HETATM    2  C10 UNL     1      27.807   0.481  53.234  1.00  0.00     0.112 C 
HETATM    3  C11 UNL     1      27.437  -0.910  53.063  1.00  0.00     0.105 C 
HETATM    4  N1  UNL     1      27.123  -2.016  52.919  1.00  0.00    -0.191 NA
ENDROOT
BRANCH   2   5
HETATM    5  C12 UNL     1      29.033   0.597  54.052  1.00  0.00     0.260 C 
HETATM    6  N2  UNL     1      29.944  -0.480  53.872  1.00  0.00    -0.365 N 
HETATM    7  H14 UNL     1      30.274  -1.079  54.645  1.00  0.00     0.159 HD
HETATM    8  H15 UNL     1      30.614  -1.269  53.728  1.00  0.00     0.159 HD
HETATM    9  O2  UNL     1      29.321   1.501  54.840  1.00  0.00    -0.267 OA
ENDBRANCH   2   5
BRANCH   1  10
HETATM   10  C8  UNL     1      26.082   1.906  51.997  1.00  0.00    -0.038 C 
HETATM   11  C7  UNL     1      24.805   1.362  52.517  1.00  0.00     0.020 C 
HETATM   12  C6  UNL     1      23.515   1.185  52.150  1.00  0.00    -0.034 C 
HETATM   13  C19 UNL     1      22.922   1.532  50.870  1.00  0.00     0.006 C 
HETATM   14  C18 UNL     1      23.102   2.498  49.976  1.00  0.00    -0.017 C 
HETATM   15  C15 UNL     1      24.043   3.645  49.971  1.00  0.00    -0.027 C 
HETATM   16  C14 UNL     1      25.470   3.277  49.755  1.00  0.00     0.041 C 
HETATM   17  C16 UNL     1      23.851   4.518  51.190  1.00  0.00     0.019 C 
HETATM   18  C17 UNL     1      23.631   4.497  48.774  1.00  0.00     0.019 C 
HETATM   19  C13 UNL     1      26.147   2.641  50.890  1.00  0.00    -0.014 C 
BRANCH  12  20
HETATM   20  C5  UNL     1      22.722   0.534  53.217  1.00  0.00     0.206 C 
BRANCH  20  21
HETATM   21  O1  UNL     1      21.415   0.802  53.324  1.00  0.00    -0.386 OA
BRANCH  21  22
HETATM   22  C4  UNL     1      20.558  -0.231  53.189  1.00  0.00     0.171 C 
BRANCH  22  23
HETATM   23  C2  UNL     1      19.231   0.190  52.542  1.00  0.00     0.001 C 
HETATM   24  C1  UNL     1      18.250  -0.933  52.787  1.00  0.00     0.011 C 
HETATM   25  C3  UNL     1      19.359   0.442  51.072  1.00  0.00     0.011 C 
ENDBRANCH  22  23
ENDBRANCH  21  22
ENDBRANCH  20  21
ENDBRANCH  12  20
ENDBRANCH   1  10
TORSDOF 6
ENDMDL
MODEL 7
REMARK VINA RESULT:      -7.9      3.955      6.536
REMARK  6 active torsions:
REMARK  status: ('A' for Active; 'I' for Inactive)
REMARK    1  A    between atoms: C2_2  and  C4_4 
REMARK    2  A    between atoms: C4_4  and  O1_5 
REMARK    3  A    between atoms: O1_5  and  C5_6 
REMARK    4  A    between atoms: C5_6  and  C6_7 
REMARK    5  A    between atoms: C8_9  and  C9_10 
REMARK    6  A    between atoms: C10_11  and  C12_14 
REMARK       I    between atoms: C12_14  and  N2_15 
ROOT
HETATM    1  C9  UNL     1      26.448   3.988  49.663  1.00  0.00     0.039 C 
HETATM    2  C10 UNL     1      26.617   5.135  49.062  1.00  0.00     0.112 C 
HETATM    3  C11 UNL     1      25.654   6.159  48.710  1.00  0.00     0.105 C 
HETATM    4  N1  UNL     1      24.869   6.965  48.433  1.00  0.00    -0.191 NA
ENDROOT
BRANCH   2   5
HETATM    5  C12 UNL     1      27.977   5.530  48.638  1.00  0.00     0.260 C 
HETATM    6  N2  UNL     1      28.239   6.919  48.785  1.00  0.00    -0.365 N 
HETATM    7  H14 UNL     1      28.531   7.528  48.003  1.00  0.00     0.159 HD
HETATM    8  H15 UNL     1      28.430   7.940  48.905  1.00  0.00     0.159 HD
HETATM    9  O2  UNL     1      28.860   4.796  48.189  1.00  0.00    -0.267 OA
ENDBRANCH   2   5
BRANCH   1  10
HETATM   10  C8  UNL     1      25.351   3.238  50.219  1.00  0.00    -0.038 C 
HETATM   11  C7  UNL     1      25.537   2.848  51.637  1.00  0.00     0.020 C 
HETATM   12  C6  UNL     1      24.998   2.043  52.582  1.00  0.00    -0.034 C 
HETATM   13  C19 UNL     1      23.873   1.139  52.411  1.00  0.00     0.006 C 
HETATM   14  C18 UNL     1      22.750   1.151  51.702  1.00  0.00    -0.017 C 
HETATM   15  C15 UNL     1      22.213   2.167  50.762  1.00  0.00    -0.027 C 
HETATM   16  C14 UNL     1      22.947   2.267  49.470  1.00  0.00     0.041 C 
HETATM   17  C16 UNL     1      22.050   3.508  51.438  1.00  0.00     0.019 C 
HETATM   18  C17 UNL     1      20.804   1.692  50.422  1.00  0.00     0.019 C 
HETATM   19  C13 UNL     1      24.260   2.918  49.527  1.00  0.00    -0.014 C 
BRANCH  12  20
HETATM   20  C5  UNL     1      25.722   2.141  53.869  1.00  0.00     0.206 C 
BRANCH  20  21
HETATM   21  O1  UNL     1      27.025   1.838  53.917  1.00  0.00    -0.386 OA
BRANCH  21  22
HETATM   22  C4  UNL     1      27.355   0.581  54.282  1.00  0.00     0.171 C 
BRANCH  22  23
HETATM   23  C2  UNL     1      27.931  -0.234  53.117  1.00  0.00     0.001 C 
HETATM   24  C1  UNL     1      26.873  -1.236  52.720  1.00  0.00     0.011 C 
HETATM   25  C3  UNL     1      29.197  -0.947  53.479  1.00  0.00     0.011 C 
ENDBRANCH  22  23
ENDBRANCH  21  22
ENDBRANCH  20  21
ENDBRANCH  12  20
ENDBRANCH   1  10
TORSDOF 6
ENDMDL
MODEL 8
REMARK VINA RESULT:      -7.8      3.465      7.208
REMARK  6 active torsions:
REMARK  status: ('A' for Active; 'I' for Inactive)
REMARK    1  A    between atoms: C2_2  and  C4_4 
REMARK    2  A    between atoms: C4_4  and  O1_5 
REMARK    3  A    between atoms: O1_5  and  C5_6 
REMARK    4  A    between atoms: C5_6  and  C6_7 
REMARK    5  A    between atoms: C8_9  and  C9_10 
REMARK    6  A    between atoms: C10_11  and  C12_14 
REMARK       I    between atoms: C12_14  and  N2_15 
ROOT
HETATM    1  C9  UNL     1      22.107   0.447  52.608  1.00  0.00     0.039 C 
HETATM    2  C10 UNL     1      21.372  -0.322  53.366  1.00  0.00     0.112 C 
HETATM    3  C11 UNL     1      21.755  -1.244  54.417  1.00  0.00     0.105 C 
HETATM    4  N1  UNL     1      22.080  -1.979  55.251  1.00  0.00    -0.191 NA
ENDROOT
BRANCH   2   5
HETATM    5  C12 UNL     1      19.905  -0.313  53.189  1.00  0.00     0.260 C 
HETATM    6  N2  UNL     1      19.237  -1.339  53.911  1.00  0.00    -0.365 N 
HETATM    7  H14 UNL     1      18.626  -2.043  53.464  1.00  0.00     0.159 HD
HETATM    8  H15 UNL     1      18.750  -2.090  54.451  1.00  0.00     0.159 HD
HETATM    9  O2  UNL     1      19.242   0.468  52.502  1.00  0.00    -0.267 OA
ENDBRANCH   2   5
BRANCH   1  10
HETATM   10  C8  UNL     1      23.508   0.741  52.445  1.00  0.00    -0.038 C 
HETATM   11  C7  UNL     1      23.784   2.040  51.785  1.00  0.00     0.020 C 
HETATM   12  C6  UNL     1      24.801   2.735  51.225  1.00  0.00    -0.034 C 
HETATM   13  C19 UNL     1      26.174   2.286  51.066  1.00  0.00     0.006 C 
HETATM   14  C18 UNL     1      27.006   1.525  51.767  1.00  0.00    -0.017 C 
HETATM   15  C15 UNL     1      26.811   0.812  53.055  1.00  0.00    -0.027 C 
HETATM   16  C14 UNL     1      25.908  -0.371  52.977  1.00  0.00     0.041 C 
HETATM   17  C16 UNL     1      26.417   1.767  54.157  1.00  0.00     0.019 C 
HETATM   18  C17 UNL     1      28.190   0.278  53.431  1.00  0.00     0.019 C 
HETATM   19  C13 UNL     1      24.477  -0.077  52.847  1.00  0.00    -0.014 C 
BRANCH  12  20
HETATM   20  C5  UNL     1      24.357   4.055  50.725  1.00  0.00     0.206 C 
BRANCH  20  21
HETATM   21  O1  UNL     1      24.220   4.249  49.408  1.00  0.00    -0.386 OA
BRANCH  21  22
HETATM   22  C4  UNL     1      24.736   5.383  48.891  1.00  0.00     0.171 C 
BRANCH  22  23
HETATM   23  C2  UNL     1      26.131   5.697  49.448  1.00  0.00     0.001 C 
HETATM   24  C1  UNL     1      26.316   7.193  49.344  1.00  0.00     0.011 C 
HETATM   25  C3  UNL     1      27.223   4.996  48.701  1.00  0.00     0.011 C 
ENDBRANCH  22  23
ENDBRANCH  21  22
ENDBRANCH  20  21
ENDBRANCH  12  20
ENDBRANCH   1  10
TORSDOF 6
ENDMDL
MODEL 9
REMARK VINA RESULT:      -7.5      5.434      7.557
REMARK  6 active torsions:
REMARK  status: ('A' for Active; 'I' for Inactive)
REMARK    1  A    between atoms: C2_2  and  C4_4 
REMARK    2  A    between atoms: C4_4  and  O1_5 
REMARK    3  A    between atoms: O1_5  and  C5_6 
REMARK    4  A    between atoms: C5_6  and  C6_7 
REMARK    5  A    between atoms: C8_9  and  C9_10 
REMARK    6  A    between atoms: C10_11  and  C12_14 
REMARK       I    between atoms: C12_14  and  N2_15 
ROOT
HETATM    1  C9  UNL     1      29.222   5.631  48.098  1.00  0.00     0.039 C 
HETATM    2  C10 UNL     1      30.282   6.380  48.246  1.00  0.00     0.112 C 
HETATM    3  C11 UNL     1      30.421   7.707  48.812  1.00  0.00     0.105 C 
HETATM    4  N1  UNL     1      30.511   8.769  49.265  1.00  0.00    -0.191 NA
ENDROOT
BRANCH   2   5
HETATM    5  C12 UNL     1      31.592   5.869  47.788  1.00  0.00     0.260 C 
HETATM    6  N2  UNL     1      32.639   6.827  47.872  1.00  0.00    -0.365 N 
HETATM    7  H14 UNL     1      33.208   7.118  47.061  1.00  0.00     0.159 HD
HETATM    8  H15 UNL     1      33.407   7.532  47.946  1.00  0.00     0.159 HD
HETATM    9  O2  UNL     1      31.843   4.741  47.359  1.00  0.00    -0.267 OA
ENDBRANCH   2   5
BRANCH   1  10
HETATM   10  C8  UNL     1      27.815   5.725  48.387  1.00  0.00    -0.038 C 
HETATM   11  C7  UNL     1      27.270   4.573  49.145  1.00  0.00     0.020 C 
HETATM   12  C6  UNL     1      26.090   4.029  49.520  1.00  0.00    -0.034 C 
HETATM   13  C19 UNL     1      24.763   4.522  49.186  1.00  0.00     0.006 C 
HETATM   14  C18 UNL     1      24.218   5.719  49.004  1.00  0.00    -0.017 C 
HETATM   15  C15 UNL     1      24.818   7.074  49.082  1.00  0.00    -0.027 C 
HETATM   16  C14 UNL     1      25.747   7.407  47.966  1.00  0.00     0.041 C 
HETATM   17  C16 UNL     1      25.432   7.326  50.440  1.00  0.00     0.019 C 
HETATM   18  C17 UNL     1      23.642   8.040  48.966  1.00  0.00     0.019 C 
HETATM   19  C13 UNL     1      27.059   6.753  48.008  1.00  0.00    -0.014 C 
BRANCH  12  20
HETATM   20  C5  UNL     1      26.278   2.795  50.314  1.00  0.00     0.206 C 
BRANCH  20  21
HETATM   21  O1  UNL     1      27.196   2.772  51.289  1.00  0.00    -0.386 OA
BRANCH  21  22
HETATM   22  C4  UNL     1      26.911   2.048  52.391  1.00  0.00     0.171 C 
BRANCH  22  23
HETATM   23  C2  UNL     1      26.016   0.840  52.082  1.00  0.00     0.001 C 
HETATM   24  C1  UNL     1      24.894   0.858  53.093  1.00  0.00     0.011 C 
HETATM   25  C3  UNL     1      26.753  -0.461  52.163  1.00  0.00     0.011 C 
ENDBRANCH  22  23
ENDBRANCH  21  22
ENDBRANCH  20  21
ENDBRANCH  12  20
ENDBRANCH   1  10
TORSDOF 6
ENDMDL
