MODEL 1
REMARK VINA RESULT:      -8.9      0.000      0.000
REMARK  3 active torsions:
REMARK  status: ('A' for Active; 'I' for Inactive)
REMARK    1  A    between atoms: C2_2  and  C3_3 
REMARK       I    between atoms: C3_3  and  N1_5 
REMARK    2  A    between atoms: N1_5  and  C4_6 
REMARK    3  A    between atoms: C9_12  and  C10_13 
ROOT
HETATM    1  C10 UNL     1      19.242   0.118  52.484  1.00  0.00     0.166 C 
HETATM    2  C11 UNL     1      18.166  -0.848  52.812  1.00  0.00     0.063 C 
HETATM    3  N3  UNL     1      17.323  -1.597  53.087  1.00  0.00    -0.197 NA
ENDROOT
BRANCH   1   4
HETATM    4  C9  UNL     1      20.498  -0.271  53.208  1.00  0.00    -0.000 A 
HETATM    5  C8  UNL     1      20.401  -1.180  54.233  1.00  0.00     0.127 A 
HETATM    6  N2  UNL     1      21.537  -1.495  54.859  1.00  0.00    -0.260 NA
HETATM    7  C7  UNL     1      22.734  -0.979  54.540  1.00  0.00     0.070 A 
HETATM    8  C6  UNL     1      23.784  -1.437  55.306  1.00  0.00     0.035 A 
HETATM    9  C13 UNL     1      22.910  -0.056  53.520  1.00  0.00     0.033 A 
HETATM   10  C5  UNL     1      25.050  -0.920  54.997  1.00  0.00     0.033 A 
HETATM   11  C4  UNL     1      25.226   0.018  53.961  1.00  0.00     0.046 A 
HETATM   12  C14 UNL     1      24.158   0.449  53.223  1.00  0.00     0.011 A 
HETATM   13  C15 UNL     1      24.703   1.404  52.253  1.00  0.00    -0.051 C 
HETATM   14  C16 UNL     1      26.021   2.000  52.396  1.00  0.00     0.049 C 
HETATM   15  C17 UNL     1      23.901   1.721  51.216  1.00  0.00     0.000 C 
HETATM   16  C18 UNL     1      22.558   1.385  50.727  1.00  0.00     0.147 C 
HETATM   17  N4  UNL     1      21.549   1.170  51.734  1.00  0.00    -0.385 N 
HETATM   18  C12 UNL     1      21.722   0.275  52.860  1.00  0.00     0.050 A 
HETATM   19  H16 UNL     1      20.601   1.657  51.710  1.00  0.00     0.160 HD
BRANCH  11  20
HETATM   20  N1  UNL     1      26.614   0.303  53.916  1.00  0.00    -0.323 N 
HETATM   21  C3  UNL     1      27.877  -0.379  53.694  1.00  0.00     0.242 C 
HETATM   22  O1  UNL     1      28.006  -1.603  53.452  1.00  0.00    -0.269 OA
HETATM   23  H4  UNL     1      26.549   1.342  54.081  1.00  0.00     0.169 HD
BRANCH  21  24
HETATM   24  C2  UNL     1      29.092   0.414  53.757  1.00  0.00     0.048 C 
HETATM   25  C1  UNL     1      30.070  -0.456  53.562  1.00  0.00     0.037 C 
ENDBRANCH  21  24
ENDBRANCH  11  20
ENDBRANCH   1   4
TORSDOF 3
ENDMDL
MODEL 2
REMARK VINA RESULT:      -8.7      2.556      6.723
REMARK  3 active torsions:
REMARK  status: ('A' for Active; 'I' for Inactive)
REMARK    1  A    between atoms: C2_2  and  C3_3 
REMARK       I    between atoms: C3_3  and  N1_5 
REMARK    2  A    between atoms: N1_5  and  C4_6 
REMARK    3  A    between atoms: C9_12  and  C10_13 
ROOT
HETATM    1  C10 UNL     1      27.070   0.865  52.501  1.00  0.00     0.166 C 
HETATM    2  C11 UNL     1      27.736   1.787  53.452  1.00  0.00     0.063 C 
HETATM    3  N3  UNL     1      28.261   2.492  54.208  1.00  0.00    -0.197 NA
ENDROOT
BRANCH   1   4
HETATM    4  C9  UNL     1      25.821   0.318  53.128  1.00  0.00    -0.000 A 
HETATM    5  C8  UNL     1      25.943  -0.411  54.286  1.00  0.00     0.127 A 
HETATM    6  N2  UNL     1      24.813  -0.890  54.811  1.00  0.00    -0.260 NA
HETATM    7  C7  UNL     1      23.599  -0.696  54.273  1.00  0.00     0.070 A 
HETATM    8  C6  UNL     1      22.559  -1.270  54.971  1.00  0.00     0.035 A 
HETATM    9  C13 UNL     1      23.396   0.027  53.106  1.00  0.00     0.033 A 
HETATM   10  C5  UNL     1      21.275  -1.084  54.438  1.00  0.00     0.033 A 
HETATM   11  C4  UNL     1      21.073  -0.351  53.252  1.00  0.00     0.046 A 
HETATM   12  C14 UNL     1      22.132   0.203  52.587  1.00  0.00     0.011 A 
HETATM   13  C15 UNL     1      21.559   0.879  51.419  1.00  0.00    -0.051 C 
HETATM   14  C16 UNL     1      20.213   0.611  50.941  1.00  0.00     0.049 C 
HETATM   15  C17 UNL     1      22.362   1.761  50.788  1.00  0.00     0.000 C 
HETATM   16  C18 UNL     1      23.728   2.286  50.919  1.00  0.00     0.147 C 
HETATM   17  N4  UNL     1      24.729   1.353  51.371  1.00  0.00    -0.385 N 
HETATM   18  C12 UNL     1      24.579   0.531  52.554  1.00  0.00     0.050 A 
HETATM   19  H16 UNL     1      25.654   1.211  50.860  1.00  0.00     0.160 HD
BRANCH  11  20
HETATM   20  N1  UNL     1      19.674  -0.349  53.021  1.00  0.00    -0.323 N 
HETATM   21  C3  UNL     1      18.517  -1.199  53.234  1.00  0.00     0.242 C 
HETATM   22  O1  UNL     1      18.539  -2.332  53.773  1.00  0.00    -0.269 OA
HETATM   23  H4  UNL     1      19.604   0.613  52.596  1.00  0.00     0.169 HD
BRANCH  21  24
HETATM   24  C2  UNL     1      17.225  -0.705  52.790  1.00  0.00     0.048 C 
HETATM   25  C1  UNL     1      16.490  -1.792  52.622  1.00  0.00     0.037 C 
ENDBRANCH  21  24
ENDBRANCH  11  20
ENDBRANCH   1   4
TORSDOF 3
ENDMDL
MODEL 3
REMARK VINA RESULT:      -8.6      2.108      3.843
REMARK  3 active torsions:
REMARK  status: ('A' for Active; 'I' for Inactive)
REMARK    1  A    between atoms: C2_2  and  C3_3 
REMARK       I    between atoms: C3_3  and  N1_5 
REMARK    2  A    between atoms: N1_5  and  C4_6 
REMARK    3  A    between atoms: C9_12  and  C10_13 
ROOT
HETATM    1  C10 UNL     1      20.246   1.654  50.672  1.00  0.00     0.166 C 
HETATM    2  C11 UNL     1      19.490   2.714  51.382  1.00  0.00     0.063 C 
HETATM    3  N3  UNL     1      18.902   3.555  51.923  1.00  0.00    -0.197 NA
ENDROOT
BRANCH   1   4
HETATM    4  C9  UNL     1      21.710   1.988  50.691  1.00  0.00    -0.000 A 
HETATM    5  C8  UNL     1      22.155   2.996  49.870  1.00  0.00     0.127 A 
HETATM    6  N2  UNL     1      23.464   3.259  49.906  1.00  0.00    -0.260 NA
HETATM    7  C7  UNL     1      24.336   2.603  50.687  1.00  0.00     0.070 A 
HETATM    8  C6  UNL     1      25.642   3.029  50.580  1.00  0.00     0.035 A 
HETATM    9  C13 UNL     1      23.961   1.575  51.540  1.00  0.00     0.033 A 
HETATM   10  C5  UNL     1      26.580   2.366  51.384  1.00  0.00     0.033 A 
HETATM   11  C4  UNL     1      26.197   1.322  52.249  1.00  0.00     0.046 A 
HETATM   12  C14 UNL     1      24.890   0.926  52.326  1.00  0.00     0.011 A 
HETATM   13  C15 UNL     1      24.860  -0.163  53.307  1.00  0.00    -0.051 C 
HETATM   14  C16 UNL     1      26.059  -0.866  53.733  1.00  0.00     0.049 C 
HETATM   15  C17 UNL     1      23.645  -0.499  53.786  1.00  0.00     0.000 C 
HETATM   16  C18 UNL     1      22.247  -0.084  53.615  1.00  0.00     0.147 C 
HETATM   17  N4  UNL     1      21.860   0.321  52.287  1.00  0.00    -0.385 N 
HETATM   18  C12 UNL     1      22.591   1.297  51.505  1.00  0.00     0.050 A 
HETATM   19  H16 UNL     1      21.001  -0.074  51.794  1.00  0.00     0.160 HD
BRANCH  11  20
HETATM   20  N1  UNL     1      27.377   0.903  52.911  1.00  0.00    -0.323 N 
HETATM   21  C3  UNL     1      28.441   1.455  53.731  1.00  0.00     0.242 C 
HETATM   22  O1  UNL     1      28.539   2.656  54.078  1.00  0.00    -0.269 OA
HETATM   23  H4  UNL     1      27.316  -0.122  52.673  1.00  0.00     0.169 HD
BRANCH  21  24
HETATM   24  C2  UNL     1      29.481   0.549  54.188  1.00  0.00     0.048 C 
HETATM   25  C1  UNL     1      29.470  -0.441  53.311  1.00  0.00     0.037 C 
ENDBRANCH  21  24
ENDBRANCH  11  20
ENDBRANCH   1   4
TORSDOF 3
ENDMDL
MODEL 4
REMARK VINA RESULT:      -8.5      2.371      6.732
REMARK  3 active torsions:
REMARK  status: ('A' for Active; 'I' for Inactive)
REMARK    1  A    between atoms: C2_2  and  C3_3 
REMARK       I    between atoms: C3_3  and  N1_5 
REMARK    2  A    between atoms: N1_5  and  C4_6 
REMARK    3  A    between atoms: C9_12  and  C10_13 
ROOT
HETATM    1  C10 UNL     1      28.372   1.410  53.542  1.00  0.00     0.166 C 
HETATM    2  C11 UNL     1      29.387   0.330  53.520  1.00  0.00     0.063 C 
HETATM    3  N3  UNL     1      30.175  -0.521  53.487  1.00  0.00    -0.197 NA
ENDROOT
BRANCH   1   4
HETATM    4  C9  UNL     1      27.012   0.812  53.760  1.00  0.00    -0.000 A 
HETATM    5  C8  UNL     1      26.845  -0.045  54.821  1.00  0.00     0.127 A 
HETATM    6  N2  UNL     1      25.625  -0.565  54.980  1.00  0.00    -0.260 NA
HETATM    7  C7  UNL     1      24.587  -0.294  54.173  1.00  0.00     0.070 A 
HETATM    8  C6  UNL     1      23.412  -0.929  54.510  1.00  0.00     0.035 A 
HETATM    9  C13 UNL     1      24.680   0.559  53.083  1.00  0.00     0.033 A 
HETATM   10  C5  UNL     1      22.306  -0.667  53.690  1.00  0.00     0.033 A 
HETATM   11  C4  UNL     1      22.404   0.200  52.583  1.00  0.00     0.046 A 
HETATM   12  C14 UNL     1      23.589   0.811  52.280  1.00  0.00     0.011 A 
HETATM   13  C15 UNL     1      23.325   1.624  51.088  1.00  0.00    -0.051 C 
HETATM   14  C16 UNL     1      22.151   1.430  50.253  1.00  0.00     0.049 C 
HETATM   15  C17 UNL     1      24.249   2.560  50.790  1.00  0.00     0.000 C 
HETATM   16  C18 UNL     1      25.526   3.048  51.326  1.00  0.00     0.147 C 
HETATM   17  N4  UNL     1      26.393   2.056  51.911  1.00  0.00    -0.385 N 
HETATM   18  C12 UNL     1      25.956   1.107  52.915  1.00  0.00     0.050 A 
HETATM   19  H16 UNL     1      27.420   1.960  51.642  1.00  0.00     0.160 HD
BRANCH  11  20
HETATM   20  N1  UNL     1      21.112   0.247  52.002  1.00  0.00    -0.323 N 
HETATM   21  C3  UNL     1      19.735  -0.073  52.338  1.00  0.00     0.242 C 
HETATM   22  O1  UNL     1      19.349  -0.552  53.430  1.00  0.00    -0.269 OA
HETATM   23  H4  UNL     1      21.387   0.684  51.083  1.00  0.00     0.169 HD
BRANCH  21  24
HETATM   24  C2  UNL     1      18.719   0.181  51.331  1.00  0.00     0.048 C 
HETATM   25  C1  UNL     1      17.664  -0.505  51.740  1.00  0.00     0.037 C 
ENDBRANCH  21  24
ENDBRANCH  11  20
ENDBRANCH   1   4
TORSDOF 3
ENDMDL
MODEL 5
REMARK VINA RESULT:      -8.3      2.361      7.246
REMARK  3 active torsions:
REMARK  status: ('A' for Active; 'I' for Inactive)
REMARK    1  A    between atoms: C2_2  and  C3_3 
REMARK       I    between atoms: C3_3  and  N1_5 
REMARK    2  A    between atoms: N1_5  and  C4_6 
REMARK    3  A    between atoms: C9_12  and  C10_13 
ROOT
HETATM    1  C10 UNL     1      28.026   0.145  54.842  1.00  0.00     0.166 C 
HETATM    2  C11 UNL     1      29.232  -0.277  54.090  1.00  0.00     0.063 C 
HETATM    3  N3  UNL     1      30.179  -0.589  53.496  1.00  0.00    -0.197 NA
ENDROOT
BRANCH   1   4
HETATM    4  C9  UNL     1      26.951   0.548  53.875  1.00  0.00    -0.000 A 
HETATM    5  C8  UNL     1      27.315   1.278  52.769  1.00  0.00     0.127 A 
HETATM    6  N2  UNL     1      26.331   1.627  51.936  1.00  0.00    -0.260 NA
HETATM    7  C7  UNL     1      25.042   1.304  52.125  1.00  0.00     0.070 A 
HETATM    8  C6  UNL     1      24.184   1.756  51.148  1.00  0.00     0.035 A 
HETATM    9  C13 UNL     1      24.600   0.571  53.217  1.00  0.00     0.033 A 
HETATM   10  C5  UNL     1      22.829   1.434  51.313  1.00  0.00     0.033 A 
HETATM   11  C4  UNL     1      22.382   0.690  52.423  1.00  0.00     0.046 A 
HETATM   12  C14 UNL     1      23.266   0.260  53.374  1.00  0.00     0.011 A 
HETATM   13  C15 UNL     1      22.464  -0.468  54.363  1.00  0.00    -0.051 C 
HETATM   14  C16 UNL     1      21.018  -0.346  54.441  1.00  0.00     0.049 C 
HETATM   15  C17 UNL     1      23.148  -1.252  55.222  1.00  0.00     0.000 C 
HETATM   16  C18 UNL     1      24.542  -1.624  55.492  1.00  0.00     0.147 C 
HETATM   17  N4  UNL     1      25.527  -0.590  55.300  1.00  0.00    -0.385 N 
HETATM   18  C12 UNL     1      25.628   0.203  54.092  1.00  0.00     0.050 A 
HETATM   19  H16 UNL     1      26.254  -0.344  56.040  1.00  0.00     0.160 HD
BRANCH  11  20
HETATM   20  N1  UNL     1      20.983   0.536  52.259  1.00  0.00    -0.323 N 
HETATM   21  C3  UNL     1      19.989   0.511  51.200  1.00  0.00     0.242 C 
HETATM   22  O1  UNL     1      20.229   0.651  49.978  1.00  0.00    -0.269 OA
HETATM   23  H4  UNL     1      20.739   0.377  53.273  1.00  0.00     0.169 HD
BRANCH  21  24
HETATM   24  C2  UNL     1      18.602   0.307  51.582  1.00  0.00     0.048 C 
HETATM   25  C1  UNL     1      17.937   0.310  50.438  1.00  0.00     0.037 C 
ENDBRANCH  21  24
ENDBRANCH  11  20
ENDBRANCH   1   4
TORSDOF 3
ENDMDL
MODEL 6
REMARK VINA RESULT:      -8.1      2.938      6.729
REMARK  3 active torsions:
REMARK  status: ('A' for Active; 'I' for Inactive)
REMARK    1  A    between atoms: C2_2  and  C3_3 
REMARK       I    between atoms: C3_3  and  N1_5 
REMARK    2  A    between atoms: N1_5  and  C4_6 
REMARK    3  A    between atoms: C9_12  and  C10_13 
ROOT
HETATM    1  C10 UNL     1      28.106   0.212  53.263  1.00  0.00     0.166 C 
HETATM    2  C11 UNL     1      28.584  -1.191  53.292  1.00  0.00     0.063 C 
HETATM    3  N3  UNL     1      28.950  -2.292  53.297  1.00  0.00    -0.197 NA
ENDROOT
BRANCH   1   4
HETATM    4  C9  UNL     1      26.606   0.230  53.311  1.00  0.00    -0.000 A 
HETATM    5  C8  UNL     1      25.981  -0.510  54.285  1.00  0.00     0.127 A 
HETATM    6  N2  UNL     1      24.646  -0.478  54.292  1.00  0.00    -0.260 NA
HETATM    7  C7  UNL     1      23.911   0.225  53.416  1.00  0.00     0.070 A 
HETATM    8  C6  UNL     1      22.549   0.128  53.596  1.00  0.00     0.035 A 
HETATM    9  C13 UNL     1      24.471   0.993  52.406  1.00  0.00     0.033 A 
HETATM   10  C5  UNL     1      21.750   0.852  52.699  1.00  0.00     0.033 A 
HETATM   11  C4  UNL     1      22.322   1.631  51.673  1.00  0.00     0.046 A 
HETATM   12  C14 UNL     1      23.680   1.701  51.527  1.00  0.00     0.011 A 
HETATM   13  C15 UNL     1      23.912   2.584  50.380  1.00  0.00    -0.051 C 
HETATM   14  C16 UNL     1      22.867   2.923  49.428  1.00  0.00     0.049 C 
HETATM   15  C17 UNL     1      25.167   3.058  50.238  1.00  0.00     0.000 C 
HETATM   16  C18 UNL     1      26.461   2.953  50.924  1.00  0.00     0.147 C 
HETATM   17  N4  UNL     1      26.769   1.673  51.510  1.00  0.00    -0.385 N 
HETATM   18  C12 UNL     1      25.870   0.963  52.396  1.00  0.00     0.050 A 
HETATM   19  H16 UNL     1      27.689   1.165  51.331  1.00  0.00     0.160 HD
BRANCH  11  20
HETATM   20  N1  UNL     1      21.240   2.231  50.981  1.00  0.00    -0.323 N 
HETATM   21  C3  UNL     1      20.082   3.066  51.249  1.00  0.00     0.242 C 
HETATM   22  O1  UNL     1      19.750   3.503  52.377  1.00  0.00    -0.269 OA
HETATM   23  H4  UNL     1      21.501   1.915  50.010  1.00  0.00     0.169 HD
BRANCH  21  24
HETATM   24  C2  UNL     1      19.235   3.426  50.125  1.00  0.00     0.048 C 
HETATM   25  C1  UNL     1      19.366   4.738  50.015  1.00  0.00     0.037 C 
ENDBRANCH  21  24
ENDBRANCH  11  20
ENDBRANCH   1   4
TORSDOF 3
ENDMDL
MODEL 7
REMARK VINA RESULT:      -8.0      1.910      2.661
REMARK  3 active torsions:
REMARK  status: ('A' for Active; 'I' for Inactive)
REMARK    1  A    between atoms: C2_2  and  C3_3 
REMARK       I    between atoms: C3_3  and  N1_5 
REMARK    2  A    between atoms: N1_5  and  C4_6 
REMARK    3  A    between atoms: C9_12  and  C10_13 
ROOT
HETATM    1  C10 UNL     1      20.372   3.640  51.481  1.00  0.00     0.166 C 
HETATM    2  C11 UNL     1      19.695   3.133  50.264  1.00  0.00     0.063 C 
HETATM    3  N3  UNL     1      19.154   2.724  49.322  1.00  0.00    -0.197 NA
ENDROOT
BRANCH   1   4
HETATM    4  C9  UNL     1      21.231   2.554  52.063  1.00  0.00    -0.000 A 
HETATM    5  C8  UNL     1      20.613   1.533  52.742  1.00  0.00     0.127 A 
HETATM    6  N2  UNL     1      21.408   0.591  53.253  1.00  0.00    -0.260 NA
HETATM    7  C7  UNL     1      22.745   0.597  53.136  1.00  0.00     0.070 A 
HETATM    8  C6  UNL     1      23.383  -0.469  53.732  1.00  0.00     0.035 A 
HETATM    9  C13 UNL     1      23.439   1.594  52.466  1.00  0.00     0.033 A 
HETATM   10  C5  UNL     1      24.781  -0.495  53.625  1.00  0.00     0.033 A 
HETATM   11  C4  UNL     1      25.484   0.520  52.946  1.00  0.00     0.046 A 
HETATM   12  C14 UNL     1      24.814   1.563  52.367  1.00  0.00     0.011 A 
HETATM   13  C15 UNL     1      25.845   2.411  51.762  1.00  0.00    -0.051 C 
HETATM   14  C16 UNL     1      27.252   2.303  52.109  1.00  0.00     0.049 C 
HETATM   15  C17 UNL     1      25.414   3.325  50.868  1.00  0.00     0.000 C 
HETATM   16  C18 UNL     1      24.143   3.762  50.275  1.00  0.00     0.147 C 
HETATM   17  N4  UNL     1      22.993   3.738  51.144  1.00  0.00    -0.385 N 
HETATM   18  C12 UNL     1      22.609   2.583  51.928  1.00  0.00     0.050 A 
HETATM   19  H16 UNL     1      22.345   4.576  51.261  1.00  0.00     0.160 HD
BRANCH  11  20
HETATM   20  N1  UNL     1      26.855   0.168  53.017  1.00  0.00    -0.323 N 
HETATM   21  C3  UNL     1      27.842  -0.243  54.000  1.00  0.00     0.242 C 
HETATM   22  O1  UNL     1      27.624  -0.394  55.225  1.00  0.00    -0.269 OA
HETATM   23  H4  UNL     1      27.074   0.248  51.989  1.00  0.00     0.169 HD
BRANCH  21  24
HETATM   24  C2  UNL     1      29.193  -0.501  53.532  1.00  0.00     0.048 C 
HETATM   25  C1  UNL     1      29.204  -1.791  53.238  1.00  0.00     0.037 C 
ENDBRANCH  21  24
ENDBRANCH  11  20
ENDBRANCH   1   4
TORSDOF 3
ENDMDL
MODEL 8
REMARK VINA RESULT:      -7.8      3.496      6.653
REMARK  3 active torsions:
REMARK  status: ('A' for Active; 'I' for Inactive)
REMARK    1  A    between atoms: C2_2  and  C3_3 
REMARK       I    between atoms: C3_3  and  N1_5 
REMARK    2  A    between atoms: N1_5  and  C4_6 
REMARK    3  A    between atoms: C9_12  and  C10_13 
ROOT
HETATM    1  C10 UNL     1      25.257   6.133  48.772  1.00  0.00     0.166 C 
HETATM    2  C11 UNL     1      26.108   7.218  49.318  1.00  0.00     0.063 C 
HETATM    3  N3  UNL     1      26.789   8.058  49.739  1.00  0.00    -0.197 NA
ENDROOT
BRANCH   1   4
HETATM    4  C9  UNL     1      25.513   4.866  49.535  1.00  0.00    -0.000 A 
HETATM    5  C8  UNL     1      26.761   4.299  49.450  1.00  0.00     0.127 A 
HETATM    6  N2  UNL     1      26.949   3.168  50.134  1.00  0.00    -0.260 NA
HETATM    7  C7  UNL     1      26.001   2.580  50.881  1.00  0.00     0.070 A 
HETATM    8  C6  UNL     1      26.398   1.422  51.511  1.00  0.00     0.035 A 
HETATM    9  C13 UNL     1      24.719   3.093  51.014  1.00  0.00     0.033 A 
HETATM   10  C5  UNL     1      25.432   0.782  52.302  1.00  0.00     0.033 A 
HETATM   11  C4  UNL     1      24.130   1.305  52.435  1.00  0.00     0.046 A 
HETATM   12  C14 UNL     1      23.774   2.458  51.792  1.00  0.00     0.011 A 
HETATM   13  C15 UNL     1      22.373   2.698  52.150  1.00  0.00    -0.051 C 
HETATM   14  C16 UNL     1      21.525   1.668  52.726  1.00  0.00     0.049 C 
HETATM   15  C17 UNL     1      21.898   3.935  51.898  1.00  0.00     0.000 C 
HETATM   16  C18 UNL     1      22.384   5.201  51.333  1.00  0.00     0.147 C 
HETATM   17  N4  UNL     1      23.323   5.094  50.245  1.00  0.00    -0.385 N 
HETATM   18  C12 UNL     1      24.518   4.279  50.299  1.00  0.00     0.050 A 
HETATM   19  H16 UNL     1      23.197   5.618  49.325  1.00  0.00     0.160 HD
BRANCH  11  20
HETATM   20  N1  UNL     1      23.439   0.429  53.308  1.00  0.00    -0.323 N 
HETATM   21  C3  UNL     1      23.720  -0.586  54.308  1.00  0.00     0.242 C 
HETATM   22  O1  UNL     1      24.865  -0.958  54.660  1.00  0.00    -0.269 OA
HETATM   23  H4  UNL     1      22.459   0.736  53.069  1.00  0.00     0.169 HD
BRANCH  21  24
HETATM   24  C2  UNL     1      22.589  -1.227  54.957  1.00  0.00     0.048 C 
HETATM   25  C1  UNL     1      21.868  -1.717  53.962  1.00  0.00     0.037 C 
ENDBRANCH  21  24
ENDBRANCH  11  20
ENDBRANCH   1   4
TORSDOF 3
ENDMDL
MODEL 9
REMARK VINA RESULT:      -7.5      4.616      7.699
REMARK  3 active torsions:
REMARK  status: ('A' for Active; 'I' for Inactive)
REMARK    1  A    between atoms: C2_2  and  C3_3 
REMARK       I    between atoms: C3_3  and  N1_5 
REMARK    2  A    between atoms: N1_5  and  C4_6 
REMARK    3  A    between atoms: C9_12  and  C10_13 
ROOT
HETATM    1  C10 UNL     1      26.170   7.601  49.003  1.00  0.00     0.166 C 
HETATM    2  C11 UNL     1      26.711   8.719  49.813  1.00  0.00     0.063 C 
HETATM    3  N3  UNL     1      27.143   9.580  50.459  1.00  0.00    -0.197 NA
ENDROOT
BRANCH   1   4
HETATM    4  C9  UNL     1      25.100   6.893  49.781  1.00  0.00    -0.000 A 
HETATM    5  C8  UNL     1      23.947   7.582  50.071  1.00  0.00     0.127 A 
HETATM    6  N2  UNL     1      23.020   6.925  50.772  1.00  0.00    -0.260 NA
HETATM    7  C7  UNL     1      23.161   5.658  51.193  1.00  0.00     0.070 A 
HETATM    8  C6  UNL     1      22.088   5.161  51.899  1.00  0.00     0.035 A 
HETATM    9  C13 UNL     1      24.296   4.901  50.941  1.00  0.00     0.033 A 
HETATM   10  C5  UNL     1      22.201   3.838  52.353  1.00  0.00     0.033 A 
HETATM   11  C4  UNL     1      23.355   3.072  52.096  1.00  0.00     0.046 A 
HETATM   12  C14 UNL     1      24.401   3.602  51.391  1.00  0.00     0.011 A 
HETATM   13  C15 UNL     1      25.410   2.541  51.317  1.00  0.00    -0.051 C 
HETATM   14  C16 UNL     1      25.383   1.373  52.182  1.00  0.00     0.049 C 
HETATM   15  C17 UNL     1      26.390   2.715  50.407  1.00  0.00     0.000 C 
HETATM   16  C18 UNL     1      26.786   3.708  49.401  1.00  0.00     0.147 C 
HETATM   17  N4  UNL     1      26.546   5.089  49.739  1.00  0.00    -0.385 N 
HETATM   18  C12 UNL     1      25.268   5.586  50.205  1.00  0.00     0.050 A 
HETATM   19  H16 UNL     1      27.300   5.838  49.662  1.00  0.00     0.160 HD
BRANCH  11  20
HETATM   20  N1  UNL     1      23.121   1.798  52.672  1.00  0.00    -0.323 N 
HETATM   21  C3  UNL     1      22.221   0.668  52.529  1.00  0.00     0.242 C 
HETATM   22  O1  UNL     1      21.286   0.587  51.697  1.00  0.00    -0.269 OA
HETATM   23  H4  UNL     1      23.917   1.808  53.363  1.00  0.00     0.169 HD
BRANCH  21  24
HETATM   24  C2  UNL     1      22.413  -0.465  53.418  1.00  0.00     0.048 C 
HETATM   25  C1  UNL     1      21.570  -0.254  54.416  1.00  0.00     0.037 C 
ENDBRANCH  21  24
ENDBRANCH  11  20
ENDBRANCH   1   4
TORSDOF 3
ENDMDL
