MODEL 1
REMARK VINA RESULT:      -8.0      0.000      0.000
REMARK  5 active torsions:
REMARK  status: ('A' for Active; 'I' for Inactive)
REMARK    1  A    between atoms: C2_2  and  N1_3 
REMARK    2  A    between atoms: N1_3  and  C3_4 
REMARK    3  A    between atoms: N1_3  and  C9_10 
REMARK    4  A    between atoms: C13_16  and  O1_17 
REMARK    5  A    between atoms: C15_19  and  O2_20 
ROOT
HETATM    1  C9  UNL     1      24.769  -0.329  54.049  1.00  0.00     0.144 A 
HETATM    2  N2  UNL     1      25.013  -0.976  55.233  1.00  0.00    -0.223 NA
HETATM    3  C10 UNL     1      23.994  -1.535  55.938  1.00  0.00     0.236 A 
HETATM    4  N3  UNL     1      22.686  -1.515  55.569  1.00  0.00    -0.241 NA
HETATM    5  C11 UNL     1      22.445  -0.880  54.406  1.00  0.00     0.075 A 
HETATM    6  C12 UNL     1      21.169  -0.772  53.887  1.00  0.00     0.072 A 
HETATM    7  C13 UNL     1      20.887  -0.121  52.680  1.00  0.00     0.103 A 
HETATM    8  C15 UNL     1      21.940   0.437  51.983  1.00  0.00     0.100 A 
HETATM    9  C16 UNL     1      23.236   0.359  52.457  1.00  0.00     0.057 A 
HETATM   10  C17 UNL     1      23.446  -0.298  53.655  1.00  0.00     0.042 A 
ENDROOT
BRANCH   1  11
HETATM   11  N1  UNL     1      25.903   0.205  53.439  1.00  0.00    -0.331 N 
BRANCH  11  12
HETATM   12  C2  UNL     1      25.874   1.500  52.915  1.00  0.00     0.126 C 
HETATM   13  C1  UNL     1      26.504   1.663  51.532  1.00  0.00     0.027 C 
ENDBRANCH  11  12
BRANCH  11  14
HETATM   14  C3  UNL     1      27.082  -0.608  53.363  1.00  0.00     0.035 A 
HETATM   15  C4  UNL     1      27.141  -1.833  52.790  1.00  0.00     0.029 A 
HETATM   16  C5  UNL     1      28.278  -2.611  52.716  1.00  0.00     0.002 A 
HETATM   17  C6  UNL     1      29.453  -2.131  53.255  1.00  0.00     0.000 A 
HETATM   18  C7  UNL     1      29.448  -0.893  53.849  1.00  0.00     0.002 A 
HETATM   19  C8  UNL     1      28.296  -0.160  53.897  1.00  0.00     0.029 A 
ENDBRANCH  11  14
ENDBRANCH   1  11
BRANCH   8  20
HETATM   20  O2  UNL     1      21.692   1.094  50.777  1.00  0.00    -0.358 OA
HETATM   21  H16 UNL     1      22.015   0.790  49.877  1.00  0.00     0.217 HD
ENDBRANCH   8  20
BRANCH   7  22
HETATM   22  O1  UNL     1      19.619  -0.007  52.152  1.00  0.00    -0.353 OA
HETATM   23  C14 UNL     1      18.548  -0.699  52.761  1.00  0.00     0.210 C 
ENDBRANCH   7  22
TORSDOF 5
ENDMDL
MODEL 2
REMARK VINA RESULT:      -8.0      3.347      6.317
REMARK  5 active torsions:
REMARK  status: ('A' for Active; 'I' for Inactive)
REMARK    1  A    between atoms: C2_2  and  N1_3 
REMARK    2  A    between atoms: N1_3  and  C3_4 
REMARK    3  A    between atoms: N1_3  and  C9_10 
REMARK    4  A    between atoms: C13_16  and  O1_17 
REMARK    5  A    between atoms: C15_19  and  O2_20 
ROOT
HETATM    1  C9  UNL     1      23.742   1.470  52.727  1.00  0.00     0.144 A 
HETATM    2  N2  UNL     1      22.812   0.580  53.200  1.00  0.00    -0.223 NA
HETATM    3  C10 UNL     1      23.194  -0.482  53.957  1.00  0.00     0.236 A 
HETATM    4  N3  UNL     1      24.475  -0.768  54.311  1.00  0.00    -0.241 NA
HETATM    5  C11 UNL     1      25.389   0.105  53.848  1.00  0.00     0.075 A 
HETATM    6  C12 UNL     1      26.736  -0.039  54.119  1.00  0.00     0.072 A 
HETATM    7  C13 UNL     1      27.710   0.853  53.655  1.00  0.00     0.103 A 
HETATM    8  C15 UNL     1      27.295   1.924  52.889  1.00  0.00     0.100 A 
HETATM    9  C16 UNL     1      25.960   2.116  52.586  1.00  0.00     0.057 A 
HETATM   10  C17 UNL     1      25.050   1.198  53.076  1.00  0.00     0.042 A 
ENDROOT
BRANCH   1  11
HETATM   11  N1  UNL     1      23.212   2.503  51.956  1.00  0.00    -0.331 N 
BRANCH  11  12
HETATM   12  C2  UNL     1      23.080   3.785  52.497  1.00  0.00     0.126 C 
HETATM   13  C1  UNL     1      21.718   4.448  52.290  1.00  0.00     0.027 C 
ENDBRANCH  11  12
BRANCH  11  14
HETATM   14  C3  UNL     1      22.807   2.212  50.612  1.00  0.00     0.035 A 
HETATM   15  C4  UNL     1      21.865   1.301  50.268  1.00  0.00     0.029 A 
HETATM   16  C5  UNL     1      21.476   1.026  48.974  1.00  0.00     0.002 A 
HETATM   17  C6  UNL     1      22.071   1.711  47.936  1.00  0.00     0.000 A 
HETATM   18  C7  UNL     1      23.033   2.646  48.230  1.00  0.00     0.002 A 
HETATM   19  C8  UNL     1      23.384   2.883  49.529  1.00  0.00     0.029 A 
ENDBRANCH  11  14
ENDBRANCH   1  11
BRANCH   8  20
HETATM   20  O2  UNL     1      28.242   2.830  52.410  1.00  0.00    -0.358 OA
HETATM   21  H16 UNL     1      29.218   2.821  52.641  1.00  0.00     0.217 HD
ENDBRANCH   8  20
BRANCH   7  22
HETATM   22  O1  UNL     1      29.056   0.719  53.919  1.00  0.00    -0.353 OA
HETATM   23  C14 UNL     1      29.699  -0.509  53.647  1.00  0.00     0.210 C 
ENDBRANCH   7  22
TORSDOF 5
ENDMDL
MODEL 3
REMARK VINA RESULT:      -7.3      3.145      6.782
REMARK  5 active torsions:
REMARK  status: ('A' for Active; 'I' for Inactive)
REMARK    1  A    between atoms: C2_2  and  N1_3 
REMARK    2  A    between atoms: N1_3  and  C3_4 
REMARK    3  A    between atoms: N1_3  and  C9_10 
REMARK    4  A    between atoms: C13_16  and  O1_17 
REMARK    5  A    between atoms: C15_19  and  O2_20 
ROOT
HETATM    1  C9  UNL     1      24.363   3.086  51.600  1.00  0.00     0.144 A 
HETATM    2  N2  UNL     1      24.886   3.896  50.625  1.00  0.00    -0.223 NA
HETATM    3  C10 UNL     1      26.180   3.761  50.234  1.00  0.00     0.236 A 
HETATM    4  N3  UNL     1      27.057   2.853  50.739  1.00  0.00    -0.241 NA
HETATM    5  C11 UNL     1      26.546   2.056  51.696  1.00  0.00     0.075 A 
HETATM    6  C12 UNL     1      27.303   1.079  52.311  1.00  0.00     0.072 A 
HETATM    7  C13 UNL     1      26.799   0.232  53.306  1.00  0.00     0.103 A 
HETATM    8  C15 UNL     1      25.481   0.391  53.685  1.00  0.00     0.100 A 
HETATM    9  C16 UNL     1      24.678   1.354  53.103  1.00  0.00     0.057 A 
HETATM   10  C17 UNL     1      25.238   2.156  52.126  1.00  0.00     0.042 A 
ENDROOT
BRANCH   1  11
HETATM   11  N1  UNL     1      23.029   3.343  51.910  1.00  0.00    -0.331 N 
BRANCH  11  12
HETATM   12  C2  UNL     1      22.665   4.563  52.486  1.00  0.00     0.126 C 
HETATM   13  C1  UNL     1      21.825   5.484  51.600  1.00  0.00     0.027 C 
ENDBRANCH  11  12
BRANCH  11  14
HETATM   14  C3  UNL     1      22.056   2.328  51.628  1.00  0.00     0.035 A 
HETATM   15  C4  UNL     1      21.980   1.629  50.471  1.00  0.00     0.029 A 
HETATM   16  C5  UNL     1      21.044   0.651  50.205  1.00  0.00     0.002 A 
HETATM   17  C6  UNL     1      20.108   0.341  51.169  1.00  0.00     0.000 A 
HETATM   18  C7  UNL     1      20.141   1.021  52.362  1.00  0.00     0.002 A 
HETATM   19  C8  UNL     1      21.088   1.982  52.577  1.00  0.00     0.029 A 
ENDBRANCH  11  14
ENDBRANCH   1  11
BRANCH   8  20
HETATM   20  O2  UNL     1      24.949  -0.436  54.675  1.00  0.00    -0.358 OA
HETATM   21  H16 UNL     1      23.993  -0.429  54.981  1.00  0.00     0.217 HD
ENDBRANCH   8  20
BRANCH   7  22
HETATM   22  O1  UNL     1      27.546  -0.746  53.927  1.00  0.00    -0.353 OA
HETATM   23  C14 UNL     1      28.941  -0.573  54.063  1.00  0.00     0.210 C 
ENDBRANCH   7  22
TORSDOF 5
ENDMDL
MODEL 4
REMARK VINA RESULT:      -7.2      3.628      7.096
REMARK  5 active torsions:
REMARK  status: ('A' for Active; 'I' for Inactive)
REMARK    1  A    between atoms: C2_2  and  N1_3 
REMARK    2  A    between atoms: N1_3  and  C3_4 
REMARK    3  A    between atoms: N1_3  and  C9_10 
REMARK    4  A    between atoms: C13_16  and  O1_17 
REMARK    5  A    between atoms: C15_19  and  O2_20 
ROOT
HETATM    1  C9  UNL     1      21.885   2.272  51.371  1.00  0.00     0.144 A 
HETATM    2  N2  UNL     1      21.247   3.484  51.307  1.00  0.00    -0.223 NA
HETATM    3  C10 UNL     1      21.773   4.576  51.922  1.00  0.00     0.236 A 
HETATM    4  N3  UNL     1      22.931   4.588  52.634  1.00  0.00    -0.241 NA
HETATM    5  C11 UNL     1      23.559   3.399  52.698  1.00  0.00     0.075 A 
HETATM    6  C12 UNL     1      24.749   3.240  53.380  1.00  0.00     0.072 A 
HETATM    7  C13 UNL     1      25.428   2.017  53.462  1.00  0.00     0.103 A 
HETATM    8  C15 UNL     1      24.872   0.924  52.827  1.00  0.00     0.100 A 
HETATM    9  C16 UNL     1      23.682   1.027  52.131  1.00  0.00     0.057 A 
HETATM   10  C17 UNL     1      23.064   2.263  52.090  1.00  0.00     0.042 A 
ENDROOT
BRANCH   1  11
HETATM   11  N1  UNL     1      21.228   1.239  50.705  1.00  0.00    -0.331 N 
BRANCH  11  12
HETATM   12  C2  UNL     1      21.604   0.890  49.406  1.00  0.00     0.126 C 
HETATM   13  C1  UNL     1      21.177   1.869  48.312  1.00  0.00     0.027 C 
ENDBRANCH  11  12
BRANCH  11  14
HETATM   14  C3  UNL     1      20.164   0.559  51.385  1.00  0.00     0.035 A 
HETATM   15  C4  UNL     1      20.264  -0.002  52.614  1.00  0.00     0.029 A 
HETATM   16  C5  UNL     1      19.237  -0.653  53.265  1.00  0.00     0.002 A 
HETATM   17  C6  UNL     1      18.010  -0.755  52.645  1.00  0.00     0.000 A 
HETATM   18  C7  UNL     1      17.854  -0.203  51.397  1.00  0.00     0.002 A 
HETATM   19  C8  UNL     1      18.902   0.431  50.793  1.00  0.00     0.029 A 
ENDBRANCH  11  14
ENDBRANCH   1  11
BRANCH   8  20
HETATM   20  O2  UNL     1      25.523  -0.308  52.890  1.00  0.00    -0.358 OA
HETATM   21  H16 UNL     1      26.329  -0.507  53.454  1.00  0.00     0.217 HD
ENDBRANCH   8  20
BRANCH   7  22
HETATM   22  O1  UNL     1      26.615   1.847  54.140  1.00  0.00    -0.353 OA
HETATM   23  C14 UNL     1      27.825   2.257  53.536  1.00  0.00     0.210 C 
ENDBRANCH   7  22
TORSDOF 5
ENDMDL
MODEL 5
REMARK VINA RESULT:      -7.1      3.919      6.584
REMARK  5 active torsions:
REMARK  status: ('A' for Active; 'I' for Inactive)
REMARK    1  A    between atoms: C2_2  and  N1_3 
REMARK    2  A    between atoms: N1_3  and  C3_4 
REMARK    3  A    between atoms: N1_3  and  C9_10 
REMARK    4  A    between atoms: C13_16  and  O1_17 
REMARK    5  A    between atoms: C15_19  and  O2_20 
ROOT
HETATM    1  C9  UNL     1      23.797   2.069  51.200  1.00  0.00     0.144 A 
HETATM    2  N2  UNL     1      22.595   1.446  51.418  1.00  0.00    -0.223 NA
HETATM    3  C10 UNL     1      22.440   0.585  52.458  1.00  0.00     0.236 A 
HETATM    4  N3  UNL     1      23.410   0.260  53.353  1.00  0.00    -0.241 NA
HETATM    5  C11 UNL     1      24.591   0.871  53.141  1.00  0.00     0.075 A 
HETATM    6  C12 UNL     1      25.681   0.652  53.961  1.00  0.00     0.072 A 
HETATM    7  C13 UNL     1      26.921   1.274  53.769  1.00  0.00     0.103 A 
HETATM    8  C15 UNL     1      27.051   2.144  52.706  1.00  0.00     0.100 A 
HETATM    9  C16 UNL     1      25.993   2.399  51.853  1.00  0.00     0.057 A 
HETATM   10  C17 UNL     1      24.796   1.752  52.099  1.00  0.00     0.042 A 
ENDROOT
BRANCH   1  11
HETATM   11  N1  UNL     1      23.817   2.915  50.093  1.00  0.00    -0.331 N 
BRANCH  11  12
HETATM   12  C2  UNL     1      23.485   2.424  48.828  1.00  0.00     0.126 C 
HETATM   13  C1  UNL     1      22.234   3.032  48.194  1.00  0.00     0.027 C 
ENDBRANCH  11  12
BRANCH  11  14
HETATM   14  C3  UNL     1      24.190   4.285  50.290  1.00  0.00     0.035 A 
HETATM   15  C4  UNL     1      23.623   5.119  51.194  1.00  0.00     0.029 A 
HETATM   16  C5  UNL     1      23.986   6.437  51.382  1.00  0.00     0.002 A 
HETATM   17  C6  UNL     1      24.997   6.969  50.609  1.00  0.00     0.000 A 
HETATM   18  C7  UNL     1      25.606   6.165  49.676  1.00  0.00     0.002 A 
HETATM   19  C8  UNL     1      25.209   4.866  49.528  1.00  0.00     0.029 A 
ENDBRANCH  11  14
ENDBRANCH   1  11
BRANCH   8  20
HETATM   20  O2  UNL     1      28.274   2.779  52.486  1.00  0.00    -0.358 OA
HETATM   21  H16 UNL     1      28.493   3.721  52.756  1.00  0.00     0.217 HD
ENDBRANCH   8  20
BRANCH   7  22
HETATM   22  O1  UNL     1      28.015   1.063  54.581  1.00  0.00    -0.353 OA
HETATM   23  C14 UNL     1      28.735  -0.147  54.475  1.00  0.00     0.210 C 
ENDBRANCH   7  22
TORSDOF 5
ENDMDL
MODEL 6
REMARK VINA RESULT:      -7.1      4.815      6.941
REMARK  5 active torsions:
REMARK  status: ('A' for Active; 'I' for Inactive)
REMARK    1  A    between atoms: C2_2  and  N1_3 
REMARK    2  A    between atoms: N1_3  and  C3_4 
REMARK    3  A    between atoms: N1_3  and  C9_10 
REMARK    4  A    between atoms: C13_16  and  O1_17 
REMARK    5  A    between atoms: C15_19  and  O2_20 
ROOT
HETATM    1  C9  UNL     1      23.658   4.439  49.267  1.00  0.00     0.144 A 
HETATM    2  N2  UNL     1      23.004   4.135  48.101  1.00  0.00    -0.223 NA
HETATM    3  C10 UNL     1      22.357   2.949  47.961  1.00  0.00     0.236 A 
HETATM    4  N3  UNL     1      22.290   1.979  48.911  1.00  0.00    -0.241 NA
HETATM    5  C11 UNL     1      22.931   2.275  50.057  1.00  0.00     0.075 A 
HETATM    6  C12 UNL     1      22.958   1.399  51.124  1.00  0.00     0.072 A 
HETATM    7  C13 UNL     1      23.614   1.680  52.329  1.00  0.00     0.103 A 
HETATM    8  C15 UNL     1      24.263   2.893  52.446  1.00  0.00     0.100 A 
HETATM    9  C16 UNL     1      24.269   3.807  51.409  1.00  0.00     0.057 A 
HETATM   10  C17 UNL     1      23.602   3.467  50.246  1.00  0.00     0.042 A 
ENDROOT
BRANCH   1  11
HETATM   11  N1  UNL     1      24.287   5.683  49.268  1.00  0.00    -0.331 N 
BRANCH  11  12
HETATM   12  C2  UNL     1      23.572   6.831  49.619  1.00  0.00     0.126 C 
HETATM   13  C1  UNL     1      23.824   7.358  51.031  1.00  0.00     0.027 C 
ENDBRANCH  11  12
BRANCH  11  14
HETATM   14  C3  UNL     1      25.671   5.747  48.898  1.00  0.00     0.035 A 
HETATM   15  C4  UNL     1      26.553   4.727  49.021  1.00  0.00     0.029 A 
HETATM   16  C5  UNL     1      27.883   4.792  48.661  1.00  0.00     0.002 A 
HETATM   17  C6  UNL     1      28.377   5.967  48.134  1.00  0.00     0.000 A 
HETATM   18  C7  UNL     1      27.524   7.033  47.988  1.00  0.00     0.002 A 
HETATM   19  C8  UNL     1      26.214   6.919  48.360  1.00  0.00     0.029 A 
ENDBRANCH  11  14
ENDBRANCH   1  11
BRANCH   8  20
HETATM   20  O2  UNL     1      24.927   3.203  53.634  1.00  0.00    -0.358 OA
HETATM   21  H16 UNL     1      24.573   3.808  54.352  1.00  0.00     0.217 HD
ENDBRANCH   8  20
BRANCH   7  22
HETATM   22  O1  UNL     1      23.648   0.814  53.401  1.00  0.00    -0.353 OA
HETATM   23  C14 UNL     1      24.490  -0.319  53.351  1.00  0.00     0.210 C 
ENDBRANCH   7  22
TORSDOF 5
ENDMDL
MODEL 7
REMARK VINA RESULT:      -7.0      3.764      5.543
REMARK  5 active torsions:
REMARK  status: ('A' for Active; 'I' for Inactive)
REMARK    1  A    between atoms: C2_2  and  N1_3 
REMARK    2  A    between atoms: N1_3  and  C3_4 
REMARK    3  A    between atoms: N1_3  and  C9_10 
REMARK    4  A    between atoms: C13_16  and  O1_17 
REMARK    5  A    between atoms: C15_19  and  O2_20 
ROOT
HETATM    1  C9  UNL     1      22.812   1.684  51.626  1.00  0.00     0.144 A 
HETATM    2  N2  UNL     1      22.289   0.980  50.571  1.00  0.00    -0.223 NA
HETATM    3  C10 UNL     1      21.909   1.619  49.434  1.00  0.00     0.236 A 
HETATM    4  N3  UNL     1      21.998   2.960  49.225  1.00  0.00    -0.241 NA
HETATM    5  C11 UNL     1      22.512   3.652  50.259  1.00  0.00     0.075 A 
HETATM    6  C12 UNL     1      22.673   5.023  50.208  1.00  0.00     0.072 A 
HETATM    7  C13 UNL     1      23.206   5.771  51.265  1.00  0.00     0.103 A 
HETATM    8  C15 UNL     1      23.585   5.097  52.409  1.00  0.00     0.100 A 
HETATM    9  C16 UNL     1      23.445   3.726  52.514  1.00  0.00     0.057 A 
HETATM   10  C17 UNL     1      22.912   3.048  51.433  1.00  0.00     0.042 A 
ENDROOT
BRANCH   1  11
HETATM   11  N1  UNL     1      23.148   0.903  52.730  1.00  0.00    -0.331 N 
BRANCH  11  12
HETATM   12  C2  UNL     1      22.164   0.522  53.646  1.00  0.00     0.126 C 
HETATM   13  C1  UNL     1      21.618  -0.895  53.473  1.00  0.00     0.027 C 
ENDBRANCH  11  12
BRANCH  11  14
HETATM   14  C3  UNL     1      24.518   0.515  52.898  1.00  0.00     0.035 A 
HETATM   15  C4  UNL     1      25.010  -0.143  53.975  1.00  0.00     0.029 A 
HETATM   16  C5  UNL     1      26.328  -0.517  54.132  1.00  0.00     0.002 A 
HETATM   17  C6  UNL     1      27.232  -0.214  53.136  1.00  0.00     0.000 A 
HETATM   18  C7  UNL     1      26.786   0.452  52.021  1.00  0.00     0.002 A 
HETATM   19  C8  UNL     1      25.470   0.802  51.913  1.00  0.00     0.029 A 
ENDBRANCH  11  14
ENDBRANCH   1  11
BRANCH   8  20
HETATM   20  O2  UNL     1      24.119   5.813  53.481  1.00  0.00    -0.358 OA
HETATM   21  H16 UNL     1      24.854   6.493  53.412  1.00  0.00     0.217 HD
ENDBRANCH   8  20
BRANCH   7  22
HETATM   22  O1  UNL     1      23.372   7.139  51.227  1.00  0.00    -0.353 OA
HETATM   23  C14 UNL     1      24.394   7.692  50.424  1.00  0.00     0.210 C 
ENDBRANCH   7  22
TORSDOF 5
ENDMDL
MODEL 8
REMARK VINA RESULT:      -7.0      4.123      6.864
REMARK  5 active torsions:
REMARK  status: ('A' for Active; 'I' for Inactive)
REMARK    1  A    between atoms: C2_2  and  N1_3 
REMARK    2  A    between atoms: N1_3  and  C3_4 
REMARK    3  A    between atoms: N1_3  and  C9_10 
REMARK    4  A    between atoms: C13_16  and  O1_17 
REMARK    5  A    between atoms: C15_19  and  O2_20 
ROOT
HETATM    1  C9  UNL     1      21.840   2.324  50.919  1.00  0.00     0.144 A 
HETATM    2  N2  UNL     1      21.538   1.472  49.887  1.00  0.00    -0.223 NA
HETATM    3  C10 UNL     1      22.089   1.651  48.659  1.00  0.00     0.236 A 
HETATM    4  N3  UNL     1      22.958   2.644  48.330  1.00  0.00    -0.241 NA
HETATM    5  C11 UNL     1      23.257   3.481  49.341  1.00  0.00     0.075 A 
HETATM    6  C12 UNL     1      24.126   4.542  49.176  1.00  0.00     0.072 A 
HETATM    7  C13 UNL     1      24.459   5.427  50.209  1.00  0.00     0.103 A 
HETATM    8  C15 UNL     1      23.885   5.222  51.448  1.00  0.00     0.100 A 
HETATM    9  C16 UNL     1      23.008   4.177  51.669  1.00  0.00     0.057 A 
HETATM   10  C17 UNL     1      22.722   3.340  50.606  1.00  0.00     0.042 A 
ENDROOT
BRANCH   1  11
HETATM   11  N1  UNL     1      21.195   2.029  52.118  1.00  0.00    -0.331 N 
BRANCH  11  12
HETATM   12  C2  UNL     1      20.047   2.734  52.489  1.00  0.00     0.126 C 
HETATM   13  C1  UNL     1      18.811   2.477  51.627  1.00  0.00     0.027 C 
ENDBRANCH  11  12
BRANCH  11  14
HETATM   14  C3  UNL     1      21.743   0.999  52.951  1.00  0.00     0.035 A 
HETATM   15  C4  UNL     1      23.019   0.551  52.890  1.00  0.00     0.029 A 
HETATM   16  C5  UNL     1      23.543  -0.439  53.695  1.00  0.00     0.002 A 
HETATM   17  C6  UNL     1      22.733  -1.032  54.640  1.00  0.00     0.000 A 
HETATM   18  C7  UNL     1      21.429  -0.615  54.745  1.00  0.00     0.002 A 
HETATM   19  C8  UNL     1      20.956   0.370  53.923  1.00  0.00     0.029 A 
ENDBRANCH  11  14
ENDBRANCH   1  11
BRANCH   8  20
HETATM   20  O2  UNL     1      24.195   6.087  52.497  1.00  0.00    -0.358 OA
HETATM   21  H16 UNL     1      24.556   7.018  52.391  1.00  0.00     0.217 HD
ENDBRANCH   8  20
BRANCH   7  22
HETATM   22  O1  UNL     1      25.324   6.488  50.055  1.00  0.00    -0.353 OA
HETATM   23  C14 UNL     1      25.077   7.446  49.046  1.00  0.00     0.210 C 
ENDBRANCH   7  22
TORSDOF 5
ENDMDL
MODEL 9
REMARK VINA RESULT:      -6.8      3.450      5.729
REMARK  5 active torsions:
REMARK  status: ('A' for Active; 'I' for Inactive)
REMARK    1  A    between atoms: C2_2  and  N1_3 
REMARK    2  A    between atoms: N1_3  and  C3_4 
REMARK    3  A    between atoms: N1_3  and  C9_10 
REMARK    4  A    between atoms: C13_16  and  O1_17 
REMARK    5  A    between atoms: C15_19  and  O2_20 
ROOT
HETATM    1  C9  UNL     1      23.571   2.643  51.934  1.00  0.00     0.144 A 
HETATM    2  N2  UNL     1      23.795   3.703  52.774  1.00  0.00    -0.223 NA
HETATM    3  C10 UNL     1      23.404   4.957  52.424  1.00  0.00     0.236 A 
HETATM    4  N3  UNL     1      22.779   5.284  51.262  1.00  0.00    -0.241 NA
HETATM    5  C11 UNL     1      22.558   4.244  50.436  1.00  0.00     0.075 A 
HETATM    6  C12 UNL     1      21.931   4.405  49.216  1.00  0.00     0.072 A 
HETATM    7  C13 UNL     1      21.683   3.343  48.337  1.00  0.00     0.103 A 
HETATM    8  C15 UNL     1      22.090   2.080  48.717  1.00  0.00     0.100 A 
HETATM    9  C16 UNL     1      22.723   1.862  49.926  1.00  0.00     0.057 A 
HETATM   10  C17 UNL     1      22.937   2.954  50.748  1.00  0.00     0.042 A 
ENDROOT
BRANCH   1  11
HETATM   11  N1  UNL     1      24.033   1.419  52.414  1.00  0.00    -0.331 N 
BRANCH  11  12
HETATM   12  C2  UNL     1      25.329   0.991  52.113  1.00  0.00     0.126 C 
HETATM   13  C1  UNL     1      26.420   1.477  53.066  1.00  0.00     0.027 C 
ENDBRANCH  11  12
BRANCH  11  14
HETATM   14  C3  UNL     1      23.147   0.620  53.210  1.00  0.00     0.035 A 
HETATM   15  C4  UNL     1      23.506  -0.501  53.878  1.00  0.00     0.029 A 
HETATM   16  C5  UNL     1      22.651  -1.265  54.645  1.00  0.00     0.002 A 
HETATM   17  C6  UNL     1      21.331  -0.882  54.758  1.00  0.00     0.000 A 
HETATM   18  C7  UNL     1      20.914   0.249  54.099  1.00  0.00     0.002 A 
HETATM   19  C8  UNL     1      21.800   0.972  53.352  1.00  0.00     0.029 A 
ENDBRANCH  11  14
ENDBRANCH   1  11
BRANCH   8  20
HETATM   20  O2  UNL     1      21.859   1.000  47.863  1.00  0.00    -0.358 OA
HETATM   21  H16 UNL     1      22.355   0.129  47.887  1.00  0.00     0.217 HD
ENDBRANCH   8  20
BRANCH   7  22
HETATM   22  O1  UNL     1      21.059   3.491  47.118  1.00  0.00    -0.353 OA
HETATM   23  C14 UNL     1      21.792   3.992  46.018  1.00  0.00     0.210 C 
ENDBRANCH   7  22
TORSDOF 5
ENDMDL
