MODEL 1
REMARK VINA RESULT:      -8.7      0.000      0.000
REMARK  9 active torsions:
REMARK  status: ('A' for Active; 'I' for Inactive)
REMARK    1  A    between atoms: C2_2  and  C3_5 
REMARK    2  A    between atoms: C7_9  and  N1_10 
REMARK    3  A    between atoms: N1_10  and  C8_11 
REMARK    4  A    between atoms: C12_17  and  C13_18 
REMARK    5  A    between atoms: C13_18  and  C14_19 
REMARK    6  A    between atoms: C13_18  and  O2_22 
REMARK    7  A    between atoms: C14_19  and  C15_20 
REMARK    8  A    between atoms: C15_20  and  O1_21 
REMARK    9  A    between atoms: O2_22  and  C16_23 
ROOT
HETATM    1  C8  UNL     1      26.803   0.134  53.446  1.00  0.00     0.137 A 
HETATM    2  N2  UNL     1      27.591  -0.299  54.380  1.00  0.00    -0.224 NA
HETATM    3  C9  UNL     1      28.662   0.550  54.769  1.00  0.00     0.229 A 
HETATM    4  N3  UNL     1      28.973   1.709  54.321  1.00  0.00    -0.278 NA
HETATM    5  C10 UNL     1      28.204   2.321  53.291  1.00  0.00     0.192 A 
HETATM    6  C11 UNL     1      27.099   1.454  52.898  1.00  0.00     0.006 A 
HETATM    7  C12 UNL     1      26.243   1.876  51.948  1.00  0.00     0.017 C 
ENDROOT
BRANCH   1   8
HETATM    8  N1  UNL     1      25.734  -0.704  53.052  1.00  0.00    -0.340 N 
HETATM    9  H7  UNL     1      25.920  -1.306  52.218  1.00  0.00     0.167 HD
BRANCH   8  10
HETATM   10  C7  UNL     1      24.478  -0.775  53.705  1.00  0.00     0.034 A 
HETATM   11  C6  UNL     1      24.220  -1.227  54.976  1.00  0.00     0.029 A 
HETATM   12  C5  UNL     1      22.960  -1.252  55.530  1.00  0.00     0.003 A 
HETATM   13  C4  UNL     1      21.861  -0.816  54.823  1.00  0.00     0.013 A 
HETATM   14  C3  UNL     1      22.082  -0.360  53.553  1.00  0.00     0.015 A 
HETATM   15  C22 UNL     1      23.353  -0.347  53.030  1.00  0.00     0.042 A 
BRANCH  14  16
HETATM   16  C2  UNL     1      20.932   0.117  52.761  1.00  0.00     0.267 C 
HETATM   17  C1  UNL     1      21.257   0.202  51.285  1.00  0.00     0.096 C 
HETATM   18  F1  UNL     1      20.616   1.383  53.225  1.00  0.00    -0.201 F 
HETATM   19  F2  UNL     1      19.840  -0.689  52.981  1.00  0.00    -0.201 F 
ENDBRANCH  14  16
ENDBRANCH   8  10
ENDBRANCH   1   8
BRANCH   7  20
HETATM   20  C13 UNL     1      26.306   3.165  51.226  1.00  0.00     0.147 C 
BRANCH  20  21
HETATM   21  C14 UNL     1      26.699   2.916  49.816  1.00  0.00     0.062 C 
BRANCH  21  22
HETATM   22  C15 UNL     1      26.905   4.208  49.072  1.00  0.00     0.167 C 
BRANCH  22  23
HETATM   23  O1  UNL     1      28.083   4.865  49.373  1.00  0.00    -0.401 OA
HETATM   24  H17 UNL     1      28.014   5.832  49.354  1.00  0.00     0.209 HD
ENDBRANCH  22  23
ENDBRANCH  21  22
ENDBRANCH  20  21
BRANCH  20  25
HETATM   25  O2  UNL     1      25.116   3.875  51.222  1.00  0.00    -0.372 OA
BRANCH  25  26
HETATM   26  C16 UNL     1      23.996   3.069  51.312  1.00  0.00     0.156 C 
HETATM   27  C17 UNL     1      23.047   3.422  52.388  1.00  0.00     0.056 C 
HETATM   28  C18 UNL     1      21.879   4.270  52.010  1.00  0.00     0.118 C 
HETATM   29  N4  UNL     1      21.133   3.742  50.876  1.00  0.00    -0.403 N 
HETATM   30  C19 UNL     1      21.897   3.414  49.696  1.00  0.00     0.116 A 
HETATM   31  H23 UNL     1      20.084   3.575  50.828  1.00  0.00     0.154 HD
HETATM   32  C20 UNL     1      22.802   3.079  48.759  1.00  0.00    -0.005 A 
HETATM   33  C21 UNL     1      23.295   3.096  50.002  1.00  0.00    -0.006 A 
ENDBRANCH  25  26
ENDBRANCH  20  25
ENDBRANCH   7  20
TORSDOF 9
ENDMDL
MODEL 2
REMARK VINA RESULT:      -8.2      4.065      7.065
REMARK  9 active torsions:
REMARK  status: ('A' for Active; 'I' for Inactive)
REMARK    1  A    between atoms: C2_2  and  C3_5 
REMARK    2  A    between atoms: C7_9  and  N1_10 
REMARK    3  A    between atoms: N1_10  and  C8_11 
REMARK    4  A    between atoms: C12_17  and  C13_18 
REMARK    5  A    between atoms: C13_18  and  C14_19 
REMARK    6  A    between atoms: C13_18  and  O2_22 
REMARK    7  A    between atoms: C14_19  and  C15_20 
REMARK    8  A    between atoms: C15_20  and  O1_21 
REMARK    9  A    between atoms: O2_22  and  C16_23 
ROOT
HETATM    1  C8  UNL     1      26.408   2.602  51.293  1.00  0.00     0.137 A 
HETATM    2  N2  UNL     1      27.561   2.483  51.875  1.00  0.00    -0.224 NA
HETATM    3  C9  UNL     1      27.557   2.191  53.267  1.00  0.00     0.229 A 
HETATM    4  N3  UNL     1      26.558   2.026  54.050  1.00  0.00    -0.278 NA
HETATM    5  C10 UNL     1      25.225   2.127  53.562  1.00  0.00     0.192 A 
HETATM    6  C11 UNL     1      25.228   2.417  52.132  1.00  0.00     0.006 A 
HETATM    7  C12 UNL     1      24.052   2.525  51.484  1.00  0.00     0.017 C 
ENDROOT
BRANCH   1   8
HETATM    8  N1  UNL     1      26.402   2.892  49.909  1.00  0.00    -0.340 N 
HETATM    9  H7  UNL     1      26.416   2.060  49.277  1.00  0.00     0.167 HD
BRANCH   8  10
HETATM   10  C7  UNL     1      26.372   4.197  49.355  1.00  0.00     0.034 A 
HETATM   11  C6  UNL     1      25.279   5.014  49.199  1.00  0.00     0.029 A 
HETATM   12  C5  UNL     1      25.349   6.276  48.653  1.00  0.00     0.003 A 
HETATM   13  C4  UNL     1      26.547   6.801  48.223  1.00  0.00     0.013 A 
HETATM   14  C3  UNL     1      27.656   6.014  48.363  1.00  0.00     0.015 A 
HETATM   15  C22 UNL     1      27.552   4.759  48.913  1.00  0.00     0.042 A 
BRANCH  14  16
HETATM   16  C2  UNL     1      28.960   6.539  47.915  1.00  0.00     0.267 C 
HETATM   17  C1  UNL     1      30.039   5.476  47.943  1.00  0.00     0.096 C 
HETATM   18  F1  UNL     1      29.310   7.557  48.787  1.00  0.00    -0.201 F 
HETATM   19  F2  UNL     1      28.842   7.089  46.661  1.00  0.00    -0.201 F 
ENDBRANCH  14  16
ENDBRANCH   8  10
ENDBRANCH   1   8
BRANCH   7  20
HETATM   20  C13 UNL     1      22.709   2.386  52.085  1.00  0.00     0.147 C 
BRANCH  20  21
HETATM   21  C14 UNL     1      22.148   3.736  52.345  1.00  0.00     0.062 C 
BRANCH  21  22
HETATM   22  C15 UNL     1      20.813   3.909  51.671  1.00  0.00     0.167 C 
BRANCH  22  23
HETATM   23  O1  UNL     1      19.730   3.492  52.421  1.00  0.00    -0.401 OA
HETATM   24  H17 UNL     1      19.661   3.917  53.290  1.00  0.00     0.209 HD
ENDBRANCH  22  23
ENDBRANCH  21  22
ENDBRANCH  20  21
BRANCH  20  25
HETATM   25  O2  UNL     1      21.804   1.687  51.302  1.00  0.00    -0.372 OA
BRANCH  25  26
HETATM   26  C16 UNL     1      21.544   0.412  51.768  1.00  0.00     0.156 C 
HETATM   27  C17 UNL     1      22.002   0.136  53.145  1.00  0.00     0.056 C 
HETATM   28  C18 UNL     1      20.991   0.275  54.235  1.00  0.00     0.118 C 
HETATM   29  N4  UNL     1      19.771  -0.479  53.981  1.00  0.00    -0.403 N 
HETATM   30  C19 UNL     1      19.137  -0.271  52.701  1.00  0.00     0.116 A 
HETATM   31  H23 UNL     1      19.298  -1.164  54.642  1.00  0.00     0.154 HD
HETATM   32  C20 UNL     1      18.779  -0.012  51.430  1.00  0.00    -0.005 A 
HETATM   33  C21 UNL     1      20.082   0.166  51.670  1.00  0.00    -0.006 A 
ENDBRANCH  25  26
ENDBRANCH  20  25
ENDBRANCH   7  20
TORSDOF 9
ENDMDL
MODEL 3
REMARK VINA RESULT:      -8.1      2.801      5.432
REMARK  9 active torsions:
REMARK  status: ('A' for Active; 'I' for Inactive)
REMARK    1  A    between atoms: C2_2  and  C3_5 
REMARK    2  A    between atoms: C7_9  and  N1_10 
REMARK    3  A    between atoms: N1_10  and  C8_11 
REMARK    4  A    between atoms: C12_17  and  C13_18 
REMARK    5  A    between atoms: C13_18  and  C14_19 
REMARK    6  A    between atoms: C13_18  and  O2_22 
REMARK    7  A    between atoms: C14_19  and  C15_20 
REMARK    8  A    between atoms: C15_20  and  O1_21 
REMARK    9  A    between atoms: O2_22  and  C16_23 
ROOT
HETATM    1  C8  UNL     1      25.667   1.904  53.575  1.00  0.00     0.137 A 
HETATM    2  N2  UNL     1      26.896   1.800  53.975  1.00  0.00    -0.224 NA
HETATM    3  C9  UNL     1      27.350   0.503  54.343  1.00  0.00     0.229 A 
HETATM    4  N3  UNL     1      26.708  -0.604  54.338  1.00  0.00    -0.278 NA
HETATM    5  C10 UNL     1      25.346  -0.655  53.925  1.00  0.00     0.192 A 
HETATM    6  C11 UNL     1      24.882   0.674  53.539  1.00  0.00     0.006 A 
HETATM    7  C12 UNL     1      23.620   0.822  53.095  1.00  0.00     0.017 C 
ENDROOT
BRANCH   1   8
HETATM    8  N1  UNL     1      25.206   3.189  53.208  1.00  0.00    -0.340 N 
HETATM    9  H7  UNL     1      25.229   3.907  53.967  1.00  0.00     0.167 HD
BRANCH   8  10
HETATM   10  C7  UNL     1      24.742   3.545  51.916  1.00  0.00     0.034 A 
HETATM   11  C6  UNL     1      25.144   3.025  50.711  1.00  0.00     0.029 A 
HETATM   12  C5  UNL     1      24.628   3.431  49.501  1.00  0.00     0.003 A 
HETATM   13  C4  UNL     1      23.657   4.405  49.430  1.00  0.00     0.013 A 
HETATM   14  C3  UNL     1      23.233   4.944  50.613  1.00  0.00     0.015 A 
HETATM   15  C22 UNL     1      23.768   4.516  51.804  1.00  0.00     0.042 A 
BRANCH  14  16
HETATM   16  C2  UNL     1      22.193   5.990  50.582  1.00  0.00     0.267 C 
HETATM   17  C1  UNL     1      22.785   7.374  50.411  1.00  0.00     0.096 C 
HETATM   18  F1  UNL     1      21.525   5.935  51.795  1.00  0.00    -0.201 F 
HETATM   19  F2  UNL     1      21.278   5.718  49.593  1.00  0.00    -0.201 F 
ENDBRANCH  14  16
ENDBRANCH   8  10
ENDBRANCH   1   8
BRANCH   7  20
HETATM   20  C13 UNL     1      22.611  -0.250  52.959  1.00  0.00     0.147 C 
BRANCH  20  21
HETATM   21  C14 UNL     1      21.828  -0.347  54.217  1.00  0.00     0.062 C 
BRANCH  21  22
HETATM   22  C15 UNL     1      21.853  -1.748  54.766  1.00  0.00     0.167 C 
BRANCH  22  23
HETATM   23  O1  UNL     1      22.760  -1.952  55.788  1.00  0.00    -0.401 OA
HETATM   24  H17 UNL     1      23.431  -1.256  55.868  1.00  0.00     0.209 HD
ENDBRANCH  22  23
ENDBRANCH  21  22
ENDBRANCH  20  21
BRANCH  20  25
HETATM   25  O2  UNL     1      21.722  -0.066  51.912  1.00  0.00    -0.372 OA
BRANCH  25  26
HETATM   26  C16 UNL     1      21.923   1.115  51.222  1.00  0.00     0.156 C 
HETATM   27  C17 UNL     1      21.801   1.019  49.753  1.00  0.00     0.056 C 
HETATM   28  C18 UNL     1      20.485   1.395  49.156  1.00  0.00     0.118 C 
HETATM   29  N4  UNL     1      20.018   2.706  49.586  1.00  0.00    -0.403 N 
HETATM   30  C19 UNL     1      19.994   2.951  51.008  1.00  0.00     0.116 A 
HETATM   31  H23 UNL     1      19.692   3.500  48.958  1.00  0.00     0.154 HD
HETATM   32  C20 UNL     1      20.154   3.002  52.342  1.00  0.00    -0.005 A 
HETATM   33  C21 UNL     1      20.962   2.126  51.736  1.00  0.00    -0.006 A 
ENDBRANCH  25  26
ENDBRANCH  20  25
ENDBRANCH   7  20
TORSDOF 9
ENDMDL
MODEL 4
REMARK VINA RESULT:      -8.0      3.535      6.575
REMARK  9 active torsions:
REMARK  status: ('A' for Active; 'I' for Inactive)
REMARK    1  A    between atoms: C2_2  and  C3_5 
REMARK    2  A    between atoms: C7_9  and  N1_10 
REMARK    3  A    between atoms: N1_10  and  C8_11 
REMARK    4  A    between atoms: C12_17  and  C13_18 
REMARK    5  A    between atoms: C13_18  and  C14_19 
REMARK    6  A    between atoms: C13_18  and  O2_22 
REMARK    7  A    between atoms: C14_19  and  C15_20 
REMARK    8  A    between atoms: C15_20  and  O1_21 
REMARK    9  A    between atoms: O2_22  and  C16_23 
ROOT
HETATM    1  C8  UNL     1      26.378   2.654  51.303  1.00  0.00     0.137 A 
HETATM    2  N2  UNL     1      27.536   2.494  51.866  1.00  0.00    -0.224 NA
HETATM    3  C9  UNL     1      27.543   2.103  53.233  1.00  0.00     0.229 A 
HETATM    4  N3  UNL     1      26.550   1.882  54.010  1.00  0.00    -0.278 NA
HETATM    5  C10 UNL     1      25.213   2.016  53.541  1.00  0.00     0.192 A 
HETATM    6  C11 UNL     1      25.205   2.408  52.135  1.00  0.00     0.006 A 
HETATM    7  C12 UNL     1      24.024   2.562  51.506  1.00  0.00     0.017 C 
ENDROOT
BRANCH   1   8
HETATM    8  N1  UNL     1      26.362   3.042  49.943  1.00  0.00    -0.340 N 
HETATM    9  H7  UNL     1      26.138   2.281  49.263  1.00  0.00     0.167 HD
BRANCH   8  10
HETATM   10  C7  UNL     1      26.614   4.356  49.473  1.00  0.00     0.034 A 
HETATM   11  C6  UNL     1      27.643   4.771  48.665  1.00  0.00     0.029 A 
HETATM   12  C5  UNL     1      27.804   6.074  48.253  1.00  0.00     0.003 A 
HETATM   13  C4  UNL     1      26.922   7.059  48.639  1.00  0.00     0.013 A 
HETATM   14  C3  UNL     1      25.885   6.680  49.445  1.00  0.00     0.015 A 
HETATM   15  C22 UNL     1      25.752   5.370  49.838  1.00  0.00     0.042 A 
BRANCH  14  16
HETATM   16  C2  UNL     1      24.916   7.703  49.881  1.00  0.00     0.267 C 
HETATM   17  C1  UNL     1      23.974   7.176  50.944  1.00  0.00     0.096 C 
HETATM   18  F1  UNL     1      24.177   8.065  48.767  1.00  0.00    -0.201 F 
HETATM   19  F2  UNL     1      25.578   8.824  50.321  1.00  0.00    -0.201 F 
ENDBRANCH  14  16
ENDBRANCH   8  10
ENDBRANCH   1   8
BRANCH   7  20
HETATM   20  C13 UNL     1      22.685   2.379  52.106  1.00  0.00     0.147 C 
BRANCH  20  21
HETATM   21  C14 UNL     1      22.089   3.710  52.383  1.00  0.00     0.062 C 
BRANCH  21  22
HETATM   22  C15 UNL     1      20.775   3.878  51.668  1.00  0.00     0.167 C 
BRANCH  22  23
HETATM   23  O1  UNL     1      19.668   3.494  52.400  1.00  0.00    -0.401 OA
HETATM   24  H17 UNL     1      18.827   3.836  52.058  1.00  0.00     0.209 HD
ENDBRANCH  22  23
ENDBRANCH  21  22
ENDBRANCH  20  21
BRANCH  20  25
HETATM   25  O2  UNL     1      21.799   1.667  51.314  1.00  0.00    -0.372 OA
BRANCH  25  26
HETATM   26  C16 UNL     1      21.543   0.392  51.784  1.00  0.00     0.156 C 
HETATM   27  C17 UNL     1      22.011   0.120  53.159  1.00  0.00     0.056 C 
HETATM   28  C18 UNL     1      21.008   0.261  54.256  1.00  0.00     0.118 C 
HETATM   29  N4  UNL     1      19.787  -0.494  54.012  1.00  0.00    -0.403 N 
HETATM   30  C19 UNL     1      19.143  -0.289  52.737  1.00  0.00     0.116 A 
HETATM   31  H23 UNL     1      19.320  -1.178  54.679  1.00  0.00     0.154 HD
HETATM   32  C20 UNL     1      18.776  -0.034  51.468  1.00  0.00    -0.005 A 
HETATM   33  C21 UNL     1      20.081   0.146  51.698  1.00  0.00    -0.006 A 
ENDBRANCH  25  26
ENDBRANCH  20  25
ENDBRANCH   7  20
TORSDOF 9
ENDMDL
MODEL 5
REMARK VINA RESULT:      -7.8      3.321      7.467
REMARK  9 active torsions:
REMARK  status: ('A' for Active; 'I' for Inactive)
REMARK    1  A    between atoms: C2_2  and  C3_5 
REMARK    2  A    between atoms: C7_9  and  N1_10 
REMARK    3  A    between atoms: N1_10  and  C8_11 
REMARK    4  A    between atoms: C12_17  and  C13_18 
REMARK    5  A    between atoms: C13_18  and  C14_19 
REMARK    6  A    between atoms: C13_18  and  O2_22 
REMARK    7  A    between atoms: C14_19  and  C15_20 
REMARK    8  A    between atoms: C15_20  and  O1_21 
REMARK    9  A    between atoms: O2_22  and  C16_23 
ROOT
HETATM    1  C8  UNL     1      21.863   2.733  50.555  1.00  0.00     0.137 A 
HETATM    2  N2  UNL     1      20.946   3.597  50.250  1.00  0.00    -0.224 NA
HETATM    3  C9  UNL     1      19.904   3.798  51.197  1.00  0.00     0.229 A 
HETATM    4  N3  UNL     1      19.734   3.237  52.335  1.00  0.00    -0.278 NA
HETATM    5  C10 UNL     1      20.655   2.263  52.812  1.00  0.00     0.192 A 
HETATM    6  C11 UNL     1      21.729   2.063  51.845  1.00  0.00     0.006 A 
HETATM    7  C12 UNL     1      22.715   1.191  52.133  1.00  0.00     0.017 C 
ENDROOT
BRANCH   1   8
HETATM    8  N1  UNL     1      22.902   2.526  49.619  1.00  0.00    -0.340 N 
HETATM    9  H7  UNL     1      22.762   1.724  48.964  1.00  0.00     0.167 HD
BRANCH   8  10
HETATM   10  C7  UNL     1      24.073   3.319  49.521  1.00  0.00     0.034 A 
HETATM   11  C6  UNL     1      25.354   2.966  49.866  1.00  0.00     0.029 A 
HETATM   12  C5  UNL     1      26.436   3.807  49.728  1.00  0.00     0.003 A 
HETATM   13  C4  UNL     1      26.289   5.080  49.226  1.00  0.00     0.013 A 
HETATM   14  C3  UNL     1      25.026   5.466  48.872  1.00  0.00     0.015 A 
HETATM   15  C22 UNL     1      23.968   4.601  49.022  1.00  0.00     0.042 A 
BRANCH  14  16
HETATM   16  C2  UNL     1      24.824   6.823  48.329  1.00  0.00     0.267 C 
HETATM   17  C1  UNL     1      23.580   6.911  47.470  1.00  0.00     0.096 C 
HETATM   18  F1  UNL     1      25.931   7.117  47.549  1.00  0.00    -0.201 F 
HETATM   19  F2  UNL     1      24.784   7.740  49.352  1.00  0.00    -0.201 F 
ENDBRANCH  14  16
ENDBRANCH   8  10
ENDBRANCH   1   8
BRANCH   7  20
HETATM   20  C13 UNL     1      22.829   0.378  53.363  1.00  0.00     0.147 C 
BRANCH  20  21
HETATM   21  C14 UNL     1      22.281  -0.977  53.104  1.00  0.00     0.062 C 
BRANCH  21  22
HETATM   22  C15 UNL     1      21.658  -1.557  54.345  1.00  0.00     0.167 C 
BRANCH  22  23
HETATM   23  O1  UNL     1      22.488  -1.582  55.450  1.00  0.00    -0.401 OA
HETATM   24  H17 UNL     1      22.362  -2.354  56.025  1.00  0.00     0.209 HD
ENDBRANCH  22  23
ENDBRANCH  21  22
ENDBRANCH  20  21
BRANCH  20  25
HETATM   25  O2  UNL     1      24.125   0.236  53.833  1.00  0.00    -0.372 OA
BRANCH  25  26
HETATM   26  C16 UNL     1      25.086   0.647  52.929  1.00  0.00     0.156 C 
HETATM   27  C17 UNL     1      25.851   1.849  53.321  1.00  0.00     0.056 C 
HETATM   28  C18 UNL     1      27.176   1.625  53.972  1.00  0.00     0.118 C 
HETATM   29  N4  UNL     1      28.044   0.738  53.209  1.00  0.00    -0.403 N 
HETATM   30  C19 UNL     1      27.481  -0.528  52.806  1.00  0.00     0.116 A 
HETATM   31  H23 UNL     1      29.050   0.927  52.922  1.00  0.00     0.154 HD
HETATM   32  C20 UNL     1      26.734  -1.587  52.445  1.00  0.00    -0.005 A 
HETATM   33  C21 UNL     1      26.020  -0.483  52.692  1.00  0.00    -0.006 A 
ENDBRANCH  25  26
ENDBRANCH  20  25
ENDBRANCH   7  20
TORSDOF 9
ENDMDL
MODEL 6
REMARK VINA RESULT:      -7.7      3.805      7.679
REMARK  9 active torsions:
REMARK  status: ('A' for Active; 'I' for Inactive)
REMARK    1  A    between atoms: C2_2  and  C3_5 
REMARK    2  A    between atoms: C7_9  and  N1_10 
REMARK    3  A    between atoms: N1_10  and  C8_11 
REMARK    4  A    between atoms: C12_17  and  C13_18 
REMARK    5  A    between atoms: C13_18  and  C14_19 
REMARK    6  A    between atoms: C13_18  and  O2_22 
REMARK    7  A    between atoms: C14_19  and  C15_20 
REMARK    8  A    between atoms: C15_20  and  O1_21 
REMARK    9  A    between atoms: O2_22  and  C16_23 
ROOT
HETATM    1  C8  UNL     1      23.187   4.579  52.005  1.00  0.00     0.137 A 
HETATM    2  N2  UNL     1      21.944   4.401  52.328  1.00  0.00    -0.224 NA
HETATM    3  C9  UNL     1      21.428   3.081  52.214  1.00  0.00     0.229 A 
HETATM    4  N3  UNL     1      22.025   2.016  51.828  1.00  0.00    -0.278 NA
HETATM    5  C10 UNL     1      23.394   2.048  51.438  1.00  0.00     0.192 A 
HETATM    6  C11 UNL     1      23.926   3.401  51.564  1.00  0.00     0.006 A 
HETATM    7  C12 UNL     1      25.219   3.625  51.261  1.00  0.00     0.017 C 
ENDROOT
BRANCH   1   8
HETATM    8  N1  UNL     1      23.709   5.889  52.115  1.00  0.00    -0.340 N 
HETATM    9  H7  UNL     1      24.175   6.111  53.024  1.00  0.00     0.167 HD
BRANCH   8  10
HETATM   10  C7  UNL     1      23.642   6.875  51.099  1.00  0.00     0.034 A 
HETATM   11  C6  UNL     1      22.516   7.433  50.547  1.00  0.00     0.029 A 
HETATM   12  C5  UNL     1      22.551   8.395  49.563  1.00  0.00     0.003 A 
HETATM   13  C4  UNL     1      23.747   8.863  49.065  1.00  0.00     0.013 A 
HETATM   14  C3  UNL     1      24.889   8.328  49.592  1.00  0.00     0.015 A 
HETATM   15  C22 UNL     1      24.819   7.370  50.574  1.00  0.00     0.042 A 
BRANCH  14  16
HETATM   16  C2  UNL     1      26.192   8.801  49.087  1.00  0.00     0.267 C 
HETATM   17  C1  UNL     1      27.196   8.999  50.204  1.00  0.00     0.096 C 
HETATM   18  F1  UNL     1      25.969  10.018  48.463  1.00  0.00    -0.201 F 
HETATM   19  F2  UNL     1      26.675   7.932  48.138  1.00  0.00    -0.201 F 
ENDBRANCH  14  16
ENDBRANCH   8  10
ENDBRANCH   1   8
BRANCH   7  20
HETATM   20  C13 UNL     1      26.193   2.618  50.789  1.00  0.00     0.147 C 
BRANCH  20  21
HETATM   21  C14 UNL     1      26.664   2.993  49.432  1.00  0.00     0.062 C 
BRANCH  21  22
HETATM   22  C15 UNL     1      26.756   4.488  49.282  1.00  0.00     0.167 C 
BRANCH  22  23
HETATM   23  O1  UNL     1      28.043   4.990  49.293  1.00  0.00    -0.401 OA
HETATM   24  H17 UNL     1      28.532   4.812  50.112  1.00  0.00     0.209 HD
ENDBRANCH  22  23
ENDBRANCH  21  22
ENDBRANCH  20  21
BRANCH  20  25
HETATM   25  O2  UNL     1      27.303   2.473  51.606  1.00  0.00    -0.372 OA
BRANCH  25  26
HETATM   26  C16 UNL     1      27.020   1.863  52.814  1.00  0.00     0.156 C 
HETATM   27  C17 UNL     1      26.516   0.477  52.721  1.00  0.00     0.056 C 
HETATM   28  C18 UNL     1      27.515  -0.619  52.892  1.00  0.00     0.118 C 
HETATM   29  N4  UNL     1      28.309  -0.484  54.105  1.00  0.00    -0.403 N 
HETATM   30  C19 UNL     1      28.948   0.792  54.321  1.00  0.00     0.116 A 
HETATM   31  H23 UNL     1      28.468  -1.230  54.846  1.00  0.00     0.154 HD
HETATM   32  C20 UNL     1      29.356   2.072  54.377  1.00  0.00    -0.005 A 
HETATM   33  C21 UNL     1      28.248   1.891  53.651  1.00  0.00    -0.006 A 
ENDBRANCH  25  26
ENDBRANCH  20  25
ENDBRANCH   7  20
TORSDOF 9
ENDMDL
MODEL 7
REMARK VINA RESULT:      -7.5      3.526      6.167
REMARK  9 active torsions:
REMARK  status: ('A' for Active; 'I' for Inactive)
REMARK    1  A    between atoms: C2_2  and  C3_5 
REMARK    2  A    between atoms: C7_9  and  N1_10 
REMARK    3  A    between atoms: N1_10  and  C8_11 
REMARK    4  A    between atoms: C12_17  and  C13_18 
REMARK    5  A    between atoms: C13_18  and  C14_19 
REMARK    6  A    between atoms: C13_18  and  O2_22 
REMARK    7  A    between atoms: C14_19  and  C15_20 
REMARK    8  A    between atoms: C15_20  and  O1_21 
REMARK    9  A    between atoms: O2_22  and  C16_23 
ROOT
HETATM    1  C8  UNL     1      25.040   3.357  50.552  1.00  0.00     0.137 A 
HETATM    2  N2  UNL     1      25.551   4.548  50.599  1.00  0.00    -0.224 NA
HETATM    3  C9  UNL     1      24.666   5.642  50.394  1.00  0.00     0.229 A 
HETATM    4  N3  UNL     1      23.407   5.623  50.163  1.00  0.00    -0.278 NA
HETATM    5  C10 UNL     1      22.699   4.391  50.080  1.00  0.00     0.192 A 
HETATM    6  C11 UNL     1      23.606   3.269  50.300  1.00  0.00     0.006 A 
HETATM    7  C12 UNL     1      23.112   2.016  50.283  1.00  0.00     0.017 C 
ENDROOT
BRANCH   1   8
HETATM    8  N1  UNL     1      25.914   2.264  50.754  1.00  0.00    -0.340 N 
HETATM    9  H7  UNL     1      26.481   1.984  49.923  1.00  0.00     0.167 HD
BRANCH   8  10
HETATM   10  C7  UNL     1      26.060   1.560  51.977  1.00  0.00     0.034 A 
HETATM   11  C6  UNL     1      25.086   0.902  52.684  1.00  0.00     0.029 A 
HETATM   12  C5  UNL     1      25.326   0.237  53.866  1.00  0.00     0.003 A 
HETATM   13  C4  UNL     1      26.587   0.195  54.417  1.00  0.00     0.013 A 
HETATM   14  C3  UNL     1      27.582   0.841  53.738  1.00  0.00     0.015 A 
HETATM   15  C22 UNL     1      27.309   1.495  52.560  1.00  0.00     0.042 A 
BRANCH  14  16
HETATM   16  C2  UNL     1      28.949   0.820  54.293  1.00  0.00     0.267 C 
HETATM   17  C1  UNL     1      29.884  -0.038  53.468  1.00  0.00     0.096 C 
HETATM   18  F1  UNL     1      28.861   0.289  55.570  1.00  0.00    -0.201 F 
HETATM   19  F2  UNL     1      29.430   2.102  54.412  1.00  0.00    -0.201 F 
ENDBRANCH  14  16
ENDBRANCH   8  10
ENDBRANCH   1   8
BRANCH   7  20
HETATM   20  C13 UNL     1      21.702   1.637  50.050  1.00  0.00     0.147 C 
BRANCH  20  21
HETATM   21  C14 UNL     1      21.493   1.404  48.599  1.00  0.00     0.062 C 
BRANCH  21  22
HETATM   22  C15 UNL     1      20.340   2.220  48.077  1.00  0.00     0.167 C 
BRANCH  22  23
HETATM   23  O1  UNL     1      19.140   2.003  48.726  1.00  0.00    -0.401 OA
HETATM   24  H17 UNL     1      18.784   2.786  49.175  1.00  0.00     0.209 HD
ENDBRANCH  22  23
ENDBRANCH  21  22
ENDBRANCH  20  21
BRANCH  20  25
HETATM   25  O2  UNL     1      21.298   0.500  50.732  1.00  0.00    -0.372 OA
BRANCH  25  26
HETATM   26  C16 UNL     1      20.803   0.764  51.996  1.00  0.00     0.156 C 
HETATM   27  C17 UNL     1      19.330   0.790  52.105  1.00  0.00     0.056 C 
HETATM   28  C18 UNL     1      18.663  -0.460  52.574  1.00  0.00     0.118 C 
HETATM   29  N4  UNL     1      19.222  -0.973  53.817  1.00  0.00    -0.403 N 
HETATM   30  C19 UNL     1      20.654  -1.141  53.862  1.00  0.00     0.116 A 
HETATM   31  H23 UNL     1      18.682  -1.239  54.694  1.00  0.00     0.154 HD
HETATM   32  C20 UNL     1      21.992  -1.117  53.725  1.00  0.00    -0.005 A 
HETATM   33  C21 UNL     1      21.354  -0.247  52.934  1.00  0.00    -0.006 A 
ENDBRANCH  25  26
ENDBRANCH  20  25
ENDBRANCH   7  20
TORSDOF 9
ENDMDL
MODEL 8
REMARK VINA RESULT:      -7.4      3.314      5.791
REMARK  9 active torsions:
REMARK  status: ('A' for Active; 'I' for Inactive)
REMARK    1  A    between atoms: C2_2  and  C3_5 
REMARK    2  A    between atoms: C7_9  and  N1_10 
REMARK    3  A    between atoms: N1_10  and  C8_11 
REMARK    4  A    between atoms: C12_17  and  C13_18 
REMARK    5  A    between atoms: C13_18  and  C14_19 
REMARK    6  A    between atoms: C13_18  and  O2_22 
REMARK    7  A    between atoms: C14_19  and  C15_20 
REMARK    8  A    between atoms: C15_20  and  O1_21 
REMARK    9  A    between atoms: O2_22  and  C16_23 
ROOT
HETATM    1  C8  UNL     1      22.874   0.939  52.692  1.00  0.00     0.137 A 
HETATM    2  N2  UNL     1      22.079   0.128  53.317  1.00  0.00    -0.224 NA
HETATM    3  C9  UNL     1      20.842  -0.181  52.687  1.00  0.00     0.229 A 
HETATM    4  N3  UNL     1      20.386   0.235  51.566  1.00  0.00    -0.278 NA
HETATM    5  C10 UNL     1      21.141   1.134  50.760  1.00  0.00     0.192 A 
HETATM    6  C11 UNL     1      22.415   1.444  51.402  1.00  0.00     0.006 A 
HETATM    7  C12 UNL     1      23.280   2.263  50.775  1.00  0.00     0.017 C 
ENDROOT
BRANCH   1   8
HETATM    8  N1  UNL     1      24.106   1.253  53.311  1.00  0.00    -0.340 N 
HETATM    9  H7  UNL     1      24.109   2.123  53.889  1.00  0.00     0.167 HD
BRANCH   8  10
HETATM   10  C7  UNL     1      25.288   0.477  53.200  1.00  0.00     0.034 A 
HETATM   11  C6  UNL     1      25.409  -0.798  52.706  1.00  0.00     0.029 A 
HETATM   12  C5  UNL     1      26.607  -1.471  52.631  1.00  0.00     0.003 A 
HETATM   13  C4  UNL     1      27.780  -0.890  53.060  1.00  0.00     0.013 A 
HETATM   14  C3  UNL     1      27.696   0.380  53.558  1.00  0.00     0.015 A 
HETATM   15  C22 UNL     1      26.484   1.025  53.618  1.00  0.00     0.042 A 
BRANCH  14  16
HETATM   16  C2  UNL     1      28.929   1.040  54.028  1.00  0.00     0.267 C 
HETATM   17  C1  UNL     1      28.949   2.515  53.685  1.00  0.00     0.096 C 
HETATM   18  F1  UNL     1      29.991   0.417  53.393  1.00  0.00    -0.201 F 
HETATM   19  F2  UNL     1      29.084   0.845  55.380  1.00  0.00    -0.201 F 
ENDBRANCH  14  16
ENDBRANCH   8  10
ENDBRANCH   1   8
BRANCH   7  20
HETATM   20  C13 UNL     1      23.072   2.915  49.464  1.00  0.00     0.147 C 
BRANCH  20  21
HETATM   21  C14 UNL     1      22.174   4.084  49.638  1.00  0.00     0.062 C 
BRANCH  21  22
HETATM   22  C15 UNL     1      21.436   4.397  48.364  1.00  0.00     0.167 C 
BRANCH  22  23
HETATM   23  O1  UNL     1      22.187   4.256  47.213  1.00  0.00    -0.401 OA
HETATM   24  H17 UNL     1      23.142   4.365  47.345  1.00  0.00     0.209 HD
ENDBRANCH  22  23
ENDBRANCH  21  22
ENDBRANCH  20  21
BRANCH  20  25
HETATM   25  O2  UNL     1      24.237   3.353  48.855  1.00  0.00    -0.372 OA
BRANCH  25  26
HETATM   26  C16 UNL     1      25.019   4.149  49.672  1.00  0.00     0.156 C 
HETATM   27  C17 UNL     1      26.419   3.707  49.832  1.00  0.00     0.056 C 
HETATM   28  C18 UNL     1      27.438   4.354  48.953  1.00  0.00     0.118 C 
HETATM   29  N4  UNL     1      27.391   5.809  49.001  1.00  0.00    -0.403 N 
HETATM   30  C19 UNL     1      26.103   6.422  48.784  1.00  0.00     0.116 A 
HETATM   31  H23 UNL     1      28.209   6.465  49.177  1.00  0.00     0.154 HD
HETATM   32  C20 UNL     1      24.810   6.773  48.667  1.00  0.00    -0.005 A 
HETATM   33  C21 UNL     1      24.991   5.536  49.141  1.00  0.00    -0.006 A 
ENDBRANCH  25  26
ENDBRANCH  20  25
ENDBRANCH   7  20
TORSDOF 9
ENDMDL
MODEL 9
REMARK VINA RESULT:      -7.4      3.095      7.056
REMARK  9 active torsions:
REMARK  status: ('A' for Active; 'I' for Inactive)
REMARK    1  A    between atoms: C2_2  and  C3_5 
REMARK    2  A    between atoms: C7_9  and  N1_10 
REMARK    3  A    between atoms: N1_10  and  C8_11 
REMARK    4  A    between atoms: C12_17  and  C13_18 
REMARK    5  A    between atoms: C13_18  and  C14_19 
REMARK    6  A    between atoms: C13_18  and  O2_22 
REMARK    7  A    between atoms: C14_19  and  C15_20 
REMARK    8  A    between atoms: C15_20  and  O1_21 
REMARK    9  A    between atoms: O2_22  and  C16_23 
ROOT
HETATM    1  C8  UNL     1      22.062   2.824  52.309  1.00  0.00     0.137 A 
HETATM    2  N2  UNL     1      20.801   2.562  52.454  1.00  0.00    -0.224 NA
HETATM    3  C9  UNL     1      20.451   1.223  52.783  1.00  0.00     0.229 A 
HETATM    4  N3  UNL     1      21.217   0.214  52.961  1.00  0.00    -0.278 NA
HETATM    5  C10 UNL     1      22.630   0.340  52.835  1.00  0.00     0.192 A 
HETATM    6  C11 UNL     1      22.990   1.715  52.506  1.00  0.00     0.006 A 
HETATM    7  C12 UNL     1      24.291   2.036  52.371  1.00  0.00     0.017 C 
ENDROOT
BRANCH   1   8
HETATM    8  N1  UNL     1      22.419   4.153  51.982  1.00  0.00    -0.340 N 
HETATM    9  H7  UNL     1      22.455   4.819  52.786  1.00  0.00     0.167 HD
BRANCH   8  10
HETATM   10  C7  UNL     1      22.726   4.610  50.675  1.00  0.00     0.034 A 
HETATM   11  C6  UNL     1      21.917   4.577  49.566  1.00  0.00     0.029 A 
HETATM   12  C5  UNL     1      22.302   5.054  48.333  1.00  0.00     0.003 A 
HETATM   13  C4  UNL     1      23.550   5.602  48.139  1.00  0.00     0.013 A 
HETATM   14  C3  UNL     1      24.382   5.651  49.222  1.00  0.00     0.015 A 
HETATM   15  C22 UNL     1      23.966   5.167  50.440  1.00  0.00     0.042 A 
BRANCH  14  16
HETATM   16  C2  UNL     1      25.728   6.231  49.058  1.00  0.00     0.267 C 
HETATM   17  C1  UNL     1      26.784   5.165  48.849  1.00  0.00     0.096 C 
HETATM   18  F1  UNL     1      26.016   6.927  50.220  1.00  0.00    -0.201 F 
HETATM   19  F2  UNL     1      25.729   7.136  48.023  1.00  0.00    -0.201 F 
ENDBRANCH  14  16
ENDBRANCH   8  10
ENDBRANCH   1   8
BRANCH   7  20
HETATM   20  C13 UNL     1      25.437   1.113  52.514  1.00  0.00     0.147 C 
BRANCH  20  21
HETATM   21  C14 UNL     1      26.358   1.296  51.364  1.00  0.00     0.062 C 
BRANCH  21  22
HETATM   22  C15 UNL     1      26.919   2.693  51.334  1.00  0.00     0.167 C 
BRANCH  22  23
HETATM   23  O1  UNL     1      27.987   2.903  52.184  1.00  0.00    -0.401 OA
HETATM   24  H17 UNL     1      28.439   3.752  52.052  1.00  0.00     0.209 HD
ENDBRANCH  22  23
ENDBRANCH  21  22
ENDBRANCH  20  21
BRANCH  20  25
HETATM   25  O2  UNL     1      26.165   1.286  53.681  1.00  0.00    -0.372 OA
BRANCH  25  26
HETATM   26  C16 UNL     1      26.561   0.096  54.263  1.00  0.00     0.156 C 
HETATM   27  C17 UNL     1      25.941  -1.121  53.699  1.00  0.00     0.056 C 
HETATM   28  C18 UNL     1      26.724  -1.864  52.667  1.00  0.00     0.118 C 
HETATM   29  N4  UNL     1      28.080  -2.177  53.095  1.00  0.00    -0.403 N 
HETATM   30  C19 UNL     1      28.867  -1.080  53.604  1.00  0.00     0.116 A 
HETATM   31  H23 UNL     1      28.550  -3.130  53.068  1.00  0.00     0.154 HD
HETATM   32  C20 UNL     1      29.376   0.046  54.136  1.00  0.00    -0.005 A 
HETATM   33  C21 UNL     1      28.040  -0.005  54.161  1.00  0.00    -0.006 A 
ENDBRANCH  25  26
ENDBRANCH  20  25
ENDBRANCH   7  20
TORSDOF 9
ENDMDL
