MODEL 1
REMARK VINA RESULT:      -9.4      0.000      0.000
REMARK  3 active torsions:
REMARK  status: ('A' for Active; 'I' for Inactive)
REMARK    1  A    between atoms: C6_7  and  C7_8 
REMARK    2  A    between atoms: C7_8  and  C8_9 
REMARK    3  A    between atoms: C8_9  and  C9_10 
ROOT
HETATM    1  C1  UNL     1      24.166   2.025  53.456  1.00  0.00     0.033 C 
HETATM    2  C2  UNL     1      24.626   0.701  52.994  1.00  0.00     0.085 C 
HETATM    3  N1  UNL     1      23.458   0.146  52.679  1.00  0.00    -0.413 N 
HETATM    4  C3  UNL     1      22.928   0.984  51.618  1.00  0.00     0.142 C 
HETATM    5  C4  UNL     1      23.718   1.926  50.897  1.00  0.00     0.006 C 
HETATM    6  C5  UNL     1      24.860   2.577  50.715  1.00  0.00    -0.004 C 
HETATM    7  C6  UNL     1      25.012   3.516  49.662  1.00  0.00    -0.032 C 
HETATM    8  C14 UNL     1      26.461   3.688  49.509  1.00  0.00     0.159 C 
HETATM    9  N2  UNL     1      27.010   3.459  50.830  1.00  0.00    -0.385 N 
HETATM   10  C15 UNL     1      26.125   2.540  51.453  1.00  0.00     0.042 C 
HETATM   11  C16 UNL     1      26.537   1.816  52.528  1.00  0.00    -0.042 C 
HETATM   12  C17 UNL     1      27.901   2.264  52.752  1.00  0.00     0.043 C 
HETATM   13  C18 UNL     1      28.554   1.358  53.824  1.00  0.00     0.064 C 
HETATM   14  C19 UNL     1      28.249  -0.082  53.486  1.00  0.00     0.039 A 
HETATM   15  N3  UNL     1      29.193  -0.968  53.381  1.00  0.00    -0.274 NA
HETATM   16  C20 UNL     1      28.971  -2.363  53.061  1.00  0.00     0.270 A 
HETATM   17  N4  UNL     1      27.581  -2.645  52.872  1.00  0.00    -0.381 N 
HETATM   18  C21 UNL     1      26.516  -1.709  52.978  1.00  0.00     0.094 A 
HETATM   19  C22 UNL     1      26.831  -0.459  53.277  1.00  0.00    -0.009 A 
HETATM   20  C23 UNL     1      25.955   0.726  53.456  1.00  0.00     0.075 C 
HETATM   21  H5  UNL     1      23.231  -0.840  52.652  1.00  0.00     0.153 HD
HETATM   22  H23 UNL     1      27.854   3.838  51.310  1.00  0.00     0.160 HD
HETATM   23  H30 UNL     1      27.292  -3.618  52.633  1.00  0.00     0.160 HD
ENDROOT
BRANCH   7  24
HETATM   24  C7  UNL     1      24.033   4.067  49.015  1.00  0.00    -0.015 C 
BRANCH  24  25
HETATM   25  C8  UNL     1      23.614   5.430  49.424  1.00  0.00     0.059 C 
BRANCH  25  26
HETATM   26  C9  UNL     1      22.247   5.387  50.110  1.00  0.00     0.124 C 
HETATM   27  C10 UNL     1      22.374   5.402  51.592  1.00  0.00     0.032 C 
HETATM   28  C11 UNL     1      21.519   4.390  52.301  1.00  0.00     0.004 C 
HETATM   29  C12 UNL     1      20.293   3.964  51.573  1.00  0.00     0.026 C 
HETATM   30  C13 UNL     1      20.233   4.428  50.140  1.00  0.00     0.168 C 
HETATM   31  O1  UNL     1      21.523   4.322  49.615  1.00  0.00    -0.386 OA
ENDBRANCH  25  26
ENDBRANCH  24  25
ENDBRANCH   7  24
TORSDOF 3
ENDMDL
MODEL 2
REMARK VINA RESULT:      -9.0      2.017      4.134
REMARK  3 active torsions:
REMARK  status: ('A' for Active; 'I' for Inactive)
REMARK    1  A    between atoms: C6_7  and  C7_8 
REMARK    2  A    between atoms: C7_8  and  C8_9 
REMARK    3  A    between atoms: C8_9  and  C9_10 
ROOT
HETATM    1  C1  UNL     1      24.353   1.808  50.794  1.00  0.00     0.033 C 
HETATM    2  C2  UNL     1      25.238   2.352  51.843  1.00  0.00     0.085 C 
HETATM    3  N1  UNL     1      24.832   3.619  51.856  1.00  0.00    -0.413 N 
HETATM    4  C3  UNL     1      23.435   3.553  52.247  1.00  0.00     0.142 C 
HETATM    5  C4  UNL     1      22.838   2.395  52.824  1.00  0.00     0.006 C 
HETATM    6  C5  UNL     1      22.904   1.121  53.188  1.00  0.00    -0.004 C 
HETATM    7  C6  UNL     1      21.801   0.473  53.800  1.00  0.00    -0.032 C 
HETATM    8  C14 UNL     1      22.363  -0.727  54.432  1.00  0.00     0.159 C 
HETATM    9  N2  UNL     1      23.499  -1.089  53.609  1.00  0.00    -0.385 N 
HETATM   10  C15 UNL     1      23.979   0.134  53.068  1.00  0.00     0.042 C 
HETATM   11  C16 UNL     1      25.246   0.213  52.578  1.00  0.00    -0.042 C 
HETATM   12  C17 UNL     1      25.778  -1.127  52.758  1.00  0.00     0.043 C 
HETATM   13  C18 UNL     1      27.291  -1.111  52.430  1.00  0.00     0.064 C 
HETATM   14  C19 UNL     1      27.918   0.078  53.118  1.00  0.00     0.039 A 
HETATM   15  N3  UNL     1      28.951  -0.055  53.895  1.00  0.00    -0.274 NA
HETATM   16  C20 UNL     1      29.602   1.040  54.583  1.00  0.00     0.270 A 
HETATM   17  N4  UNL     1      28.963   2.290  54.305  1.00  0.00    -0.381 N 
HETATM   18  C21 UNL     1      27.834   2.482  53.463  1.00  0.00     0.094 A 
HETATM   19  C22 UNL     1      27.318   1.413  52.880  1.00  0.00    -0.009 A 
HETATM   20  C23 UNL     1      26.160   1.294  51.960  1.00  0.00     0.075 C 
HETATM   21  H5  UNL     1      25.360   4.432  52.147  1.00  0.00     0.153 HD
HETATM   22  H23 UNL     1      23.939  -2.009  53.393  1.00  0.00     0.160 HD
HETATM   23  H30 UNL     1      29.338   3.157  54.746  1.00  0.00     0.160 HD
ENDROOT
BRANCH   7  24
HETATM   24  C7  UNL     1      20.578   0.904  53.769  1.00  0.00    -0.015 C 
BRANCH  24  25
HETATM   25  C8  UNL     1      19.676   0.350  52.730  1.00  0.00     0.059 C 
BRANCH  25  26
HETATM   26  C9  UNL     1      19.282   1.436  51.727  1.00  0.00     0.124 C 
HETATM   27  C10 UNL     1      20.040   1.313  50.454  1.00  0.00     0.032 C 
HETATM   28  C11 UNL     1      20.607   2.605  49.939  1.00  0.00     0.004 C 
HETATM   29  C12 UNL     1      19.886   3.836  50.365  1.00  0.00     0.026 C 
HETATM   30  C13 UNL     1      18.857   3.608  51.441  1.00  0.00     0.168 C 
HETATM   31  O1  UNL     1      19.388   2.672  52.332  1.00  0.00    -0.386 OA
ENDBRANCH  25  26
ENDBRANCH  24  25
ENDBRANCH   7  24
TORSDOF 3
ENDMDL
MODEL 3
REMARK VINA RESULT:      -9.0      1.614      2.752
REMARK  3 active torsions:
REMARK  status: ('A' for Active; 'I' for Inactive)
REMARK    1  A    between atoms: C6_7  and  C7_8 
REMARK    2  A    between atoms: C7_8  and  C8_9 
REMARK    3  A    between atoms: C8_9  and  C9_10 
ROOT
HETATM    1  C1  UNL     1      24.223   2.091  53.458  1.00  0.00     0.033 C 
HETATM    2  C2  UNL     1      24.642   0.761  52.972  1.00  0.00     0.085 C 
HETATM    3  N1  UNL     1      23.459   0.258  52.625  1.00  0.00    -0.413 N 
HETATM    4  C3  UNL     1      22.978   1.140  51.577  1.00  0.00     0.142 C 
HETATM    5  C4  UNL     1      23.812   2.068  50.891  1.00  0.00     0.006 C 
HETATM    6  C5  UNL     1      24.980   2.681  50.742  1.00  0.00    -0.004 C 
HETATM    7  C6  UNL     1      25.183   3.637  49.714  1.00  0.00    -0.032 C 
HETATM    8  C14 UNL     1      26.640   3.759  49.586  1.00  0.00     0.159 C 
HETATM    9  N2  UNL     1      27.159   3.479  50.910  1.00  0.00    -0.385 N 
HETATM   10  C15 UNL     1      26.231   2.579  51.497  1.00  0.00     0.042 C 
HETATM   11  C16 UNL     1      26.599   1.816  52.561  1.00  0.00    -0.042 C 
HETATM   12  C17 UNL     1      27.975   2.208  52.815  1.00  0.00     0.043 C 
HETATM   13  C18 UNL     1      28.577   1.253  53.876  1.00  0.00     0.064 C 
HETATM   14  C19 UNL     1      28.225  -0.166  53.499  1.00  0.00     0.039 A 
HETATM   15  N3  UNL     1      29.137  -1.084  53.386  1.00  0.00    -0.274 NA
HETATM   16  C20 UNL     1      28.870  -2.461  53.030  1.00  0.00     0.270 A 
HETATM   17  N4  UNL     1      27.474  -2.687  52.813  1.00  0.00    -0.381 N 
HETATM   18  C21 UNL     1      26.443  -1.716  52.925  1.00  0.00     0.094 A 
HETATM   19  C22 UNL     1      26.798  -0.486  53.259  1.00  0.00    -0.009 A 
HETATM   20  C23 UNL     1      25.963   0.727  53.453  1.00  0.00     0.075 C 
HETATM   21  H5  UNL     1      23.197  -0.718  52.571  1.00  0.00     0.153 HD
HETATM   22  H23 UNL     1      28.008   3.816  51.411  1.00  0.00     0.160 HD
HETATM   23  H30 UNL     1      27.154  -3.643  52.547  1.00  0.00     0.160 HD
ENDROOT
BRANCH   7  24
HETATM   24  C7  UNL     1      24.235   4.239  49.065  1.00  0.00    -0.015 C 
BRANCH  24  25
HETATM   25  C8  UNL     1      23.596   5.414  49.707  1.00  0.00     0.059 C 
BRANCH  25  26
HETATM   26  C9  UNL     1      24.421   6.678  49.453  1.00  0.00     0.124 C 
HETATM   27  C10 UNL     1      24.954   6.719  48.065  1.00  0.00     0.032 C 
HETATM   28  C11 UNL     1      26.404   7.095  47.965  1.00  0.00     0.004 C 
HETATM   29  C12 UNL     1      26.931   7.921  49.085  1.00  0.00     0.026 C 
HETATM   30  C13 UNL     1      25.994   8.040  50.259  1.00  0.00     0.168 C 
HETATM   31  O1  UNL     1      25.386   6.794  50.433  1.00  0.00    -0.386 OA
ENDBRANCH  25  26
ENDBRANCH  24  25
ENDBRANCH   7  24
TORSDOF 3
ENDMDL
MODEL 4
REMARK VINA RESULT:      -8.7      3.006      6.504
REMARK  3 active torsions:
REMARK  status: ('A' for Active; 'I' for Inactive)
REMARK    1  A    between atoms: C6_7  and  C7_8 
REMARK    2  A    between atoms: C7_8  and  C8_9 
REMARK    3  A    between atoms: C8_9  and  C9_10 
ROOT
HETATM    1  C1  UNL     1      23.091   4.131  49.641  1.00  0.00     0.033 C 
HETATM    2  C2  UNL     1      23.518   5.401  50.259  1.00  0.00     0.085 C 
HETATM    3  N1  UNL     1      22.426   5.699  50.958  1.00  0.00    -0.413 N 
HETATM    4  C3  UNL     1      22.287   4.606  51.904  1.00  0.00     0.142 C 
HETATM    5  C4  UNL     1      23.332   3.681  52.190  1.00  0.00     0.006 C 
HETATM    6  C5  UNL     1      24.541   3.192  51.947  1.00  0.00    -0.004 C 
HETATM    7  C6  UNL     1      25.063   2.110  52.700  1.00  0.00    -0.032 C 
HETATM    8  C14 UNL     1      26.511   2.139  52.461  1.00  0.00     0.159 C 
HETATM    9  N2  UNL     1      26.662   2.693  51.130  1.00  0.00    -0.385 N 
HETATM   10  C15 UNL     1      25.553   3.563  50.955  1.00  0.00     0.042 C 
HETATM   11  C16 UNL     1      25.588   4.529  49.998  1.00  0.00    -0.042 C 
HETATM   12  C17 UNL     1      26.883   4.348  49.362  1.00  0.00     0.043 C 
HETATM   13  C18 UNL     1      27.130   5.528  48.391  1.00  0.00     0.064 C 
HETATM   14  C19 UNL     1      26.780   6.815  49.099  1.00  0.00     0.039 A 
HETATM   15  N3  UNL     1      27.622   7.802  49.169  1.00  0.00    -0.274 NA
HETATM   16  C20 UNL     1      27.352   9.061  49.830  1.00  0.00     0.270 A 
HETATM   17  N4  UNL     1      26.041   9.083  50.403  1.00  0.00    -0.381 N 
HETATM   18  C21 UNL     1      25.088   8.029  50.352  1.00  0.00     0.094 A 
HETATM   19  C22 UNL     1      25.438   6.922  49.720  1.00  0.00    -0.009 A 
HETATM   20  C23 UNL     1      24.672   5.668  49.499  1.00  0.00     0.075 C 
HETATM   21  H5  UNL     1      22.115   6.615  51.255  1.00  0.00     0.153 HD
HETATM   22  H23 UNL     1      27.382   2.545  50.391  1.00  0.00     0.160 HD
HETATM   23  H30 UNL     1      25.728   9.938  50.912  1.00  0.00     0.160 HD
ENDROOT
BRANCH   7  24
HETATM   24  C7  UNL     1      24.353   1.303  53.425  1.00  0.00    -0.015 C 
BRANCH  24  25
HETATM   25  C8  UNL     1      24.409  -0.145  53.105  1.00  0.00     0.059 C 
BRANCH  25  26
HETATM   26  C9  UNL     1      23.010  -0.760  53.159  1.00  0.00     0.124 C 
HETATM   27  C10 UNL     1      22.061  -0.051  52.260  1.00  0.00     0.032 C 
HETATM   28  C11 UNL     1      20.732   0.268  52.883  1.00  0.00     0.004 C 
HETATM   29  C12 UNL     1      20.315  -0.627  53.997  1.00  0.00     0.026 C 
HETATM   30  C13 UNL     1      21.400  -1.554  54.483  1.00  0.00     0.168 C 
HETATM   31  O1  UNL     1      22.597  -0.834  54.473  1.00  0.00    -0.386 OA
ENDBRANCH  25  26
ENDBRANCH  24  25
ENDBRANCH   7  24
TORSDOF 3
ENDMDL
MODEL 5
REMARK VINA RESULT:      -8.4      3.639      7.155
REMARK  3 active torsions:
REMARK  status: ('A' for Active; 'I' for Inactive)
REMARK    1  A    between atoms: C6_7  and  C7_8 
REMARK    2  A    between atoms: C7_8  and  C8_9 
REMARK    3  A    between atoms: C8_9  and  C9_10 
ROOT
HETATM    1  C1  UNL     1      24.719   6.939  47.914  1.00  0.00     0.033 C 
HETATM    2  C2  UNL     1      25.500   7.796  48.827  1.00  0.00     0.085 C 
HETATM    3  N1  UNL     1      24.513   8.479  49.404  1.00  0.00    -0.413 N 
HETATM    4  C3  UNL     1      23.719   7.471  50.084  1.00  0.00     0.142 C 
HETATM    5  C4  UNL     1      24.180   6.146  50.330  1.00  0.00     0.006 C 
HETATM    6  C5  UNL     1      25.088   5.191  50.174  1.00  0.00    -0.004 C 
HETATM    7  C6  UNL     1      24.920   3.913  50.766  1.00  0.00    -0.032 C 
HETATM    8  C14 UNL     1      26.257   3.306  50.751  1.00  0.00     0.159 C 
HETATM    9  N2  UNL     1      26.917   3.875  49.594  1.00  0.00    -0.385 N 
HETATM   10  C15 UNL     1      26.352   5.168  49.434  1.00  0.00     0.042 C 
HETATM   11  C16 UNL     1      27.003   6.112  48.703  1.00  0.00    -0.042 C 
HETATM   12  C17 UNL     1      28.202   5.434  48.241  1.00  0.00     0.043 C 
HETATM   13  C18 UNL     1      29.135   6.472  47.569  1.00  0.00     0.064 C 
HETATM   14  C19 UNL     1      29.219   7.688  48.460  1.00  0.00     0.039 A 
HETATM   15  N3  UNL     1      30.363   8.168  48.846  1.00  0.00    -0.274 NA
HETATM   16  C20 UNL     1      30.516   9.329  49.697  1.00  0.00     0.270 A 
HETATM   17  N4  UNL     1      29.249   9.882  50.065  1.00  0.00    -0.381 N 
HETATM   18  C21 UNL     1      27.975   9.392  49.668  1.00  0.00     0.094 A 
HETATM   19  C22 UNL     1      27.950   8.325  48.886  1.00  0.00    -0.009 A 
HETATM   20  C23 UNL     1      26.793   7.592  48.312  1.00  0.00     0.075 C 
HETATM   21  H5  UNL     1      24.565   9.396  49.828  1.00  0.00     0.153 HD
HETATM   22  H23 UNL     1      27.648   3.499  48.954  1.00  0.00     0.160 HD
HETATM   23  H30 UNL     1      29.226  10.722  50.682  1.00  0.00     0.160 HD
ENDROOT
BRANCH   7  24
HETATM   24  C7  UNL     1      23.795   3.442  51.205  1.00  0.00    -0.015 C 
BRANCH  24  25
HETATM   25  C8  UNL     1      23.578   1.977  51.121  1.00  0.00     0.059 C 
BRANCH  25  26
HETATM   26  C9  UNL     1      23.223   1.408  52.496  1.00  0.00     0.124 C 
HETATM   27  C10 UNL     1      24.410   0.822  53.173  1.00  0.00     0.032 C 
HETATM   28  C11 UNL     1      24.174  -0.528  53.787  1.00  0.00     0.004 C 
HETATM   29  C12 UNL     1      22.766  -0.820  54.171  1.00  0.00     0.026 C 
HETATM   30  C13 UNL     1      21.765   0.184  53.659  1.00  0.00     0.168 C 
HETATM   31  O1  UNL     1      22.159   0.539  52.366  1.00  0.00    -0.386 OA
ENDBRANCH  25  26
ENDBRANCH  24  25
ENDBRANCH   7  24
TORSDOF 3
ENDMDL
MODEL 6
REMARK VINA RESULT:      -8.1      1.772      2.506
REMARK  3 active torsions:
REMARK  status: ('A' for Active; 'I' for Inactive)
REMARK    1  A    between atoms: C6_7  and  C7_8 
REMARK    2  A    between atoms: C7_8  and  C8_9 
REMARK    3  A    between atoms: C8_9  and  C9_10 
ROOT
HETATM    1  C1  UNL     1      24.210   1.836  53.753  1.00  0.00     0.033 C 
HETATM    2  C2  UNL     1      24.668   0.528  53.245  1.00  0.00     0.085 C 
HETATM    3  N1  UNL     1      23.495  -0.053  53.008  1.00  0.00    -0.413 N 
HETATM    4  C3  UNL     1      22.869   0.781  51.997  1.00  0.00     0.142 C 
HETATM    5  C4  UNL     1      23.581   1.749  51.232  1.00  0.00     0.006 C 
HETATM    6  C5  UNL     1      24.690   2.431  50.975  1.00  0.00    -0.004 C 
HETATM    7  C6  UNL     1      24.742   3.382  49.924  1.00  0.00    -0.032 C 
HETATM    8  C14 UNL     1      26.172   3.593  49.668  1.00  0.00     0.159 C 
HETATM    9  N2  UNL     1      26.820   3.366  50.944  1.00  0.00    -0.385 N 
HETATM   10  C15 UNL     1      26.005   2.419  51.619  1.00  0.00     0.042 C 
HETATM   11  C16 UNL     1      26.512   1.697  52.654  1.00  0.00    -0.042 C 
HETATM   12  C17 UNL     1      27.877   2.177  52.783  1.00  0.00     0.043 C 
HETATM   13  C18 UNL     1      28.628   1.279  53.796  1.00  0.00     0.064 C 
HETATM   14  C19 UNL     1      28.336  -0.165  53.466  1.00  0.00     0.039 A 
HETATM   15  N3  UNL     1      29.291  -1.026  53.283  1.00  0.00    -0.274 NA
HETATM   16  C20 UNL     1      29.082  -2.423  52.965  1.00  0.00     0.270 A 
HETATM   17  N4  UNL     1      27.690  -2.739  52.873  1.00  0.00    -0.381 N 
HETATM   18  C21 UNL     1      26.612  -1.832  53.066  1.00  0.00     0.094 A 
HETATM   19  C22 UNL     1      26.916  -0.577  53.355  1.00  0.00    -0.009 A 
HETATM   20  C23 UNL     1      26.026   0.584  53.609  1.00  0.00     0.075 C 
HETATM   21  H5  UNL     1      23.291  -1.044  52.987  1.00  0.00     0.153 HD
HETATM   22  H23 UNL     1      27.687   3.763  51.366  1.00  0.00     0.160 HD
HETATM   23  H30 UNL     1      27.409  -3.717  52.645  1.00  0.00     0.160 HD
ENDROOT
BRANCH   7  24
HETATM   24  C7  UNL     1      23.705   3.914  49.355  1.00  0.00    -0.015 C 
BRANCH  24  25
HETATM   25  C8  UNL     1      23.190   3.273  48.120  1.00  0.00     0.059 C 
BRANCH  25  26
HETATM   26  C9  UNL     1      22.203   4.200  47.407  1.00  0.00     0.124 C 
HETATM   27  C10 UNL     1      21.639   3.570  46.185  1.00  0.00     0.032 C 
HETATM   28  C11 UNL     1      21.628   4.458  44.973  1.00  0.00     0.004 C 
HETATM   29  C12 UNL     1      21.591   5.920  45.251  1.00  0.00     0.026 C 
HETATM   30  C13 UNL     1      21.818   6.280  46.697  1.00  0.00     0.168 C 
HETATM   31  O1  UNL     1      22.806   5.422  47.188  1.00  0.00    -0.386 OA
ENDBRANCH  25  26
ENDBRANCH  24  25
ENDBRANCH   7  24
TORSDOF 3
ENDMDL
MODEL 7
REMARK VINA RESULT:      -7.7      2.813      7.411
REMARK  3 active torsions:
REMARK  status: ('A' for Active; 'I' for Inactive)
REMARK    1  A    between atoms: C6_7  and  C7_8 
REMARK    2  A    between atoms: C7_8  and  C8_9 
REMARK    3  A    between atoms: C8_9  and  C9_10 
ROOT
HETATM    1  C1  UNL     1      22.258   1.785  49.871  1.00  0.00     0.033 C 
HETATM    2  C2  UNL     1      21.754   3.033  50.476  1.00  0.00     0.085 C 
HETATM    3  N1  UNL     1      20.739   2.552  51.190  1.00  0.00    -0.413 N 
HETATM    4  C3  UNL     1      21.357   1.649  52.144  1.00  0.00     0.142 C 
HETATM    5  C4  UNL     1      22.755   1.638  52.419  1.00  0.00     0.006 C 
HETATM    6  C5  UNL     1      23.987   2.058  52.160  1.00  0.00    -0.004 C 
HETATM    7  C6  UNL     1      25.095   1.592  52.912  1.00  0.00    -0.032 C 
HETATM    8  C14 UNL     1      26.169   2.560  52.651  1.00  0.00     0.159 C 
HETATM    9  N2  UNL     1      25.910   3.058  51.315  1.00  0.00    -0.385 N 
HETATM   10  C15 UNL     1      24.501   2.987  51.152  1.00  0.00     0.042 C 
HETATM   11  C16 UNL     1      23.887   3.726  50.189  1.00  0.00    -0.042 C 
HETATM   12  C17 UNL     1      24.979   4.429  49.535  1.00  0.00     0.043 C 
HETATM   13  C18 UNL     1      24.385   5.469  48.554  1.00  0.00     0.064 C 
HETATM   14  C19 UNL     1      23.283   6.221  49.260  1.00  0.00     0.039 A 
HETATM   15  N3  UNL     1      23.273   7.520  49.312  1.00  0.00    -0.274 NA
HETATM   16  C20 UNL     1      22.250   8.303  49.970  1.00  0.00     0.270 A 
HETATM   17  N4  UNL     1      21.249   7.469  50.562  1.00  0.00    -0.381 N 
HETATM   18  C21 UNL     1      21.219   6.049  50.532  1.00  0.00     0.094 A 
HETATM   19  C22 UNL     1      22.204   5.432  49.900  1.00  0.00    -0.009 A 
HETATM   20  C23 UNL     1      22.445   3.981  49.698  1.00  0.00     0.075 C 
HETATM   21  H5  UNL     1      19.906   3.045  51.486  1.00  0.00     0.153 HD
HETATM   22  H23 UNL     1      26.545   3.408  50.567  1.00  0.00     0.160 HD
HETATM   23  H30 UNL     1      20.456   7.917  51.071  1.00  0.00     0.160 HD
ENDROOT
BRANCH   7  24
HETATM   24  C7  UNL     1      25.094   0.528  53.652  1.00  0.00    -0.015 C 
BRANCH  24  25
HETATM   25  C8  UNL     1      25.669  -0.714  53.079  1.00  0.00     0.059 C 
BRANCH  25  26
HETATM   26  C9  UNL     1      27.046  -0.995  53.684  1.00  0.00     0.124 C 
HETATM   27  C10 UNL     1      27.393  -0.013  54.745  1.00  0.00     0.032 C 
HETATM   28  C11 UNL     1      28.783   0.546  54.647  1.00  0.00     0.004 C 
HETATM   29  C12 UNL     1      29.776  -0.322  53.958  1.00  0.00     0.026 C 
HETATM   30  C13 UNL     1      29.174  -1.511  53.253  1.00  0.00     0.168 C 
HETATM   31  O1  UNL     1      27.977  -1.085  52.670  1.00  0.00    -0.386 OA
ENDBRANCH  25  26
ENDBRANCH  24  25
ENDBRANCH   7  24
TORSDOF 3
ENDMDL
MODEL 8
REMARK VINA RESULT:      -7.7      2.875      7.770
REMARK  3 active torsions:
REMARK  status: ('A' for Active; 'I' for Inactive)
REMARK    1  A    between atoms: C6_7  and  C7_8 
REMARK    2  A    between atoms: C7_8  and  C8_9 
REMARK    3  A    between atoms: C8_9  and  C9_10 
ROOT
HETATM    1  C1  UNL     1      22.975   4.748  52.224  1.00  0.00     0.033 C 
HETATM    2  C2  UNL     1      22.686   4.375  50.826  1.00  0.00     0.085 C 
HETATM    3  N1  UNL     1      23.863   4.645  50.265  1.00  0.00    -0.413 N 
HETATM    4  C3  UNL     1      24.798   3.753  50.927  1.00  0.00     0.142 C 
HETATM    5  C4  UNL     1      24.392   2.631  51.705  1.00  0.00     0.006 C 
HETATM    6  C5  UNL     1      23.439   1.905  52.277  1.00  0.00    -0.004 C 
HETATM    7  C6  UNL     1      23.750   0.735  53.016  1.00  0.00    -0.032 C 
HETATM    8  C14 UNL     1      22.485  -0.005  53.111  1.00  0.00     0.159 C 
HETATM    9  N2  UNL     1      21.452   1.011  53.092  1.00  0.00    -0.385 N 
HETATM   10  C15 UNL     1      21.986   2.079  52.323  1.00  0.00     0.042 C 
HETATM   11  C16 UNL     1      21.157   3.011  51.781  1.00  0.00    -0.042 C 
HETATM   12  C17 UNL     1      19.832   2.598  52.214  1.00  0.00     0.043 C 
HETATM   13  C18 UNL     1      18.777   3.464  51.483  1.00  0.00     0.064 C 
HETATM   14  C19 UNL     1      19.136   3.524  50.018  1.00  0.00     0.039 A 
HETATM   15  N3  UNL     1      18.278   3.207  49.095  1.00  0.00    -0.274 NA
HETATM   16  C20 UNL     1      18.556   3.243  47.675  1.00  0.00     0.270 A 
HETATM   17  N4  UNL     1      19.897   3.668  47.412  1.00  0.00    -0.381 N 
HETATM   18  C21 UNL     1      20.868   4.024  48.387  1.00  0.00     0.094 A 
HETATM   19  C22 UNL     1      20.507   3.958  49.658  1.00  0.00    -0.009 A 
HETATM   20  C23 UNL     1      21.285   4.263  50.886  1.00  0.00     0.075 C 
HETATM   21  H5  UNL     1      24.045   4.878  49.297  1.00  0.00     0.153 HD
HETATM   22  H23 UNL     1      20.502   1.047  53.520  1.00  0.00     0.160 HD
HETATM   23  H30 UNL     1      20.220   3.732  46.422  1.00  0.00     0.160 HD
ENDROOT
BRANCH   7  24
HETATM   24  C7  UNL     1      24.924   0.443  53.481  1.00  0.00    -0.015 C 
BRANCH  24  25
HETATM   25  C8  UNL     1      25.894  -0.195  52.557  1.00  0.00     0.059 C 
BRANCH  25  26
HETATM   26  C9  UNL     1      27.287   0.413  52.739  1.00  0.00     0.124 C 
HETATM   27  C10 UNL     1      28.264  -0.588  53.242  1.00  0.00     0.032 C 
HETATM   28  C11 UNL     1      29.124  -0.106  54.375  1.00  0.00     0.004 C 
HETATM   29  C12 UNL     1      29.331   1.367  54.440  1.00  0.00     0.026 C 
HETATM   30  C13 UNL     1      28.446   2.157  53.510  1.00  0.00     0.168 C 
HETATM   31  O1  UNL     1      27.188   1.548  53.518  1.00  0.00    -0.386 OA
ENDBRANCH  25  26
ENDBRANCH  24  25
ENDBRANCH   7  24
TORSDOF 3
ENDMDL
MODEL 9
REMARK VINA RESULT:      -7.6      2.038      2.863
REMARK  3 active torsions:
REMARK  status: ('A' for Active; 'I' for Inactive)
REMARK    1  A    between atoms: C6_7  and  C7_8 
REMARK    2  A    between atoms: C7_8  and  C8_9 
REMARK    3  A    between atoms: C8_9  and  C9_10 
ROOT
HETATM    1  C1  UNL     1      21.970   1.609  53.034  1.00  0.00     0.033 C 
HETATM    2  C2  UNL     1      22.845   0.432  52.868  1.00  0.00     0.085 C 
HETATM    3  N1  UNL     1      21.935  -0.539  52.893  1.00  0.00    -0.413 N 
HETATM    4  C3  UNL     1      21.086  -0.276  51.745  1.00  0.00     0.142 C 
HETATM    5  C4  UNL     1      21.449   0.611  50.691  1.00  0.00     0.006 C 
HETATM    6  C5  UNL     1      22.272   1.513  50.171  1.00  0.00    -0.004 C 
HETATM    7  C6  UNL     1      22.023   2.090  48.900  1.00  0.00    -0.032 C 
HETATM    8  C14 UNL     1      23.306   2.670  48.484  1.00  0.00     0.159 C 
HETATM    9  N2  UNL     1      23.970   3.037  49.718  1.00  0.00    -0.385 N 
HETATM   10  C15 UNL     1      23.505   2.110  50.688  1.00  0.00     0.042 C 
HETATM   11  C16 UNL     1      24.205   1.916  51.838  1.00  0.00    -0.042 C 
HETATM   12  C17 UNL     1      25.331   2.828  51.723  1.00  0.00     0.043 C 
HETATM   13  C18 UNL     1      26.320   2.547  52.881  1.00  0.00     0.064 C 
HETATM   14  C19 UNL     1      26.530   1.055  52.982  1.00  0.00     0.039 A 
HETATM   15  N3  UNL     1      27.720   0.535  52.966  1.00  0.00    -0.274 NA
HETATM   16  C20 UNL     1      27.993  -0.884  53.059  1.00  0.00     0.270 A 
HETATM   17  N4  UNL     1      26.786  -1.645  53.167  1.00  0.00    -0.381 N 
HETATM   18  C21 UNL     1      25.465  -1.120  53.189  1.00  0.00     0.094 A 
HETATM   19  C22 UNL     1      25.330   0.192  53.099  1.00  0.00    -0.009 A 
HETATM   20  C23 UNL     1      24.101   1.025  53.096  1.00  0.00     0.075 C 
HETATM   21  H5  UNL     1      22.073  -1.506  53.159  1.00  0.00     0.153 HD
HETATM   22  H23 UNL     1      24.649   3.795  49.946  1.00  0.00     0.160 HD
HETATM   23  H30 UNL     1      26.850  -2.684  53.238  1.00  0.00     0.160 HD
ENDROOT
BRANCH   7  24
HETATM   24  C7  UNL     1      20.879   2.073  48.290  1.00  0.00    -0.015 C 
BRANCH  24  25
HETATM   25  C8  UNL     1      20.095   3.332  48.256  1.00  0.00     0.059 C 
BRANCH  25  26
HETATM   26  C9  UNL     1      18.898   3.244  49.205  1.00  0.00     0.124 C 
HETATM   27  C10 UNL     1      19.199   3.850  50.529  1.00  0.00     0.032 C 
HETATM   28  C11 UNL     1      18.775   3.018  51.706  1.00  0.00     0.004 C 
HETATM   29  C12 UNL     1      17.646   2.081  51.454  1.00  0.00     0.026 C 
HETATM   30  C13 UNL     1      17.274   1.938  50.000  1.00  0.00     0.168 C 
HETATM   31  O1  UNL     1      18.462   1.937  49.266  1.00  0.00    -0.386 OA
ENDBRANCH  25  26
ENDBRANCH  24  25
ENDBRANCH   7  24
TORSDOF 3
ENDMDL
