MODEL 1
REMARK VINA RESULT:      -7.4      0.000      0.000
REMARK  5 active torsions:
REMARK  status: ('A' for Active; 'I' for Inactive)
REMARK    1  A    between atoms: C1_2  and  C2_3 
REMARK    2  A    between atoms: C4_7  and  N4_8 
REMARK    3  A    between atoms: N4_8  and  C5_9 
REMARK    4  A    between atoms: C11_17  and  C12_18 
REMARK    5  A    between atoms: N5_19  and  C13_20 
ROOT
HETATM    1  C2  UNL     1      21.272  -0.624  53.680  1.00  0.00     0.090 A 
HETATM    2  N2  UNL     1      21.489  -1.213  54.865  1.00  0.00    -0.240 NA
HETATM    3  C3  UNL     1      22.744  -1.323  55.329  1.00  0.00     0.236 A 
HETATM    4  N3  UNL     1      23.743  -0.840  54.591  1.00  0.00    -0.223 NA
HETATM    5  C4  UNL     1      23.610  -0.243  53.403  1.00  0.00     0.143 A 
HETATM    6  C11 UNL     1      22.329  -0.120  52.909  1.00  0.00     0.058 A 
ENDROOT
BRANCH   5   7
HETATM    7  N4  UNL     1      24.707   0.233  52.697  1.00  0.00    -0.340 N 
HETATM    8  H4  UNL     1      24.554   0.830  51.865  1.00  0.00     0.167 HD
BRANCH   7   9
HETATM    9  C5  UNL     1      26.075   0.032  52.934  1.00  0.00     0.035 A 
HETATM   10  C6  UNL     1      26.737  -1.152  52.796  1.00  0.00     0.032 A 
HETATM   11  C7  UNL     1      28.073  -1.344  53.028  1.00  0.00     0.046 A 
HETATM   12  C8  UNL     1      28.850  -0.285  53.436  1.00  0.00     0.138 A 
HETATM   13  F1  UNL     1      30.176  -0.394  53.685  1.00  0.00    -0.204 F 
HETATM   14  C9  UNL     1      28.272   0.935  53.599  1.00  0.00     0.074 A 
HETATM   15 CL1  UNL     1      29.220   2.300  54.113  1.00  0.00    -0.081 Cl
HETATM   16  C10 UNL     1      26.928   1.057  53.348  1.00  0.00     0.056 A 
ENDBRANCH   7   9
ENDBRANCH   5   7
BRANCH   6  17
HETATM   17  C12 UNL     1      21.997   0.512  51.619  1.00  0.00     0.137 C 
HETATM   18  N5  UNL     1      22.498   1.433  50.921  1.00  0.00    -0.233 NA
BRANCH  18  19
HETATM   19  C13 UNL     1      21.961   1.848  49.688  1.00  0.00     0.376 C 
HETATM   20  O1  UNL     1      21.435   0.948  48.983  1.00  0.00    -0.281 OA
ENDBRANCH  18  19
ENDBRANCH   6  17
BRANCH   1  21
HETATM   21  C1  UNL     1      19.884  -0.548  53.254  1.00  0.00     0.139 C 
HETATM   22  N1  UNL     1      19.020  -1.258  53.862  1.00  0.00    -0.310 NA
HETATM   23  H1  UNL     1      19.260  -1.892  54.649  1.00  0.00     0.186 HD
ENDBRANCH   1  21
TORSDOF 5
ENDMDL
MODEL 2
REMARK VINA RESULT:      -7.2      2.449      3.992
REMARK  5 active torsions:
REMARK  status: ('A' for Active; 'I' for Inactive)
REMARK    1  A    between atoms: C1_2  and  C2_3 
REMARK    2  A    between atoms: C4_7  and  N4_8 
REMARK    3  A    between atoms: N4_8  and  C5_9 
REMARK    4  A    between atoms: C11_17  and  C12_18 
REMARK    5  A    between atoms: N5_19  and  C13_20 
ROOT
HETATM    1  C2  UNL     1      22.673   1.613  50.887  1.00  0.00     0.090 A 
HETATM    2  N2  UNL     1      23.210   2.420  49.960  1.00  0.00    -0.240 NA
HETATM    3  C3  UNL     1      24.449   2.905  50.141  1.00  0.00     0.236 A 
HETATM    4  N3  UNL     1      25.112   2.567  51.246  1.00  0.00    -0.223 NA
HETATM    5  C4  UNL     1      24.648   1.772  52.215  1.00  0.00     0.143 A 
HETATM    6  C11 UNL     1      23.378   1.263  52.047  1.00  0.00     0.058 A 
ENDROOT
BRANCH   5   7
HETATM    7  N4  UNL     1      25.407   1.469  53.338  1.00  0.00    -0.340 N 
HETATM    8  H4  UNL     1      25.011   1.642  54.279  1.00  0.00     0.167 HD
BRANCH   7   9
HETATM    9  C5  UNL     1      26.701   0.936  53.422  1.00  0.00     0.035 A 
HETATM   10  C6  UNL     1      27.829   1.636  53.733  1.00  0.00     0.032 A 
HETATM   11  C7  UNL     1      29.091   1.111  53.814  1.00  0.00     0.046 A 
HETATM   12  C8  UNL     1      29.286  -0.228  53.569  1.00  0.00     0.138 A 
HETATM   13  F1  UNL     1      30.500  -0.823  53.629  1.00  0.00    -0.204 F 
HETATM   14  C9  UNL     1      28.215  -1.005  53.252  1.00  0.00     0.074 A 
HETATM   15 CL1  UNL     1      28.419  -2.703  52.935  1.00  0.00    -0.081 Cl
HETATM   16  C10 UNL     1      26.978  -0.413  53.189  1.00  0.00     0.056 A 
ENDBRANCH   7   9
ENDBRANCH   5   7
BRANCH   6  17
HETATM   17  C12 UNL     1      22.711   0.371  53.013  1.00  0.00     0.137 C 
HETATM   18  N5  UNL     1      23.042  -0.666  53.646  1.00  0.00    -0.233 NA
BRANCH  18  19
HETATM   19  C13 UNL     1      22.180  -1.339  54.533  1.00  0.00     0.376 C 
HETATM   20  O1  UNL     1      22.699  -1.752  55.602  1.00  0.00    -0.281 OA
ENDBRANCH  18  19
ENDBRANCH   6  17
BRANCH   1  21
HETATM   21  C1  UNL     1      21.329   1.134  50.610  1.00  0.00     0.139 C 
HETATM   22  N1  UNL     1      20.927   1.111  49.403  1.00  0.00    -0.310 NA
HETATM   23  H1  UNL     1      21.513   1.421  48.604  1.00  0.00     0.186 HD
ENDBRANCH   1  21
TORSDOF 5
ENDMDL
MODEL 3
REMARK VINA RESULT:      -7.1      4.282      6.660
REMARK  5 active torsions:
REMARK  status: ('A' for Active; 'I' for Inactive)
REMARK    1  A    between atoms: C1_2  and  C2_3 
REMARK    2  A    between atoms: C4_7  and  N4_8 
REMARK    3  A    between atoms: N4_8  and  C5_9 
REMARK    4  A    between atoms: C11_17  and  C12_18 
REMARK    5  A    between atoms: N5_19  and  C13_20 
ROOT
HETATM    1  C2  UNL     1      27.441   1.562  53.762  1.00  0.00     0.090 A 
HETATM    2  N2  UNL     1      27.536   0.705  54.789  1.00  0.00    -0.240 NA
HETATM    3  C3  UNL     1      26.540  -0.166  55.019  1.00  0.00     0.236 A 
HETATM    4  N3  UNL     1      25.478  -0.150  54.214  1.00  0.00    -0.223 NA
HETATM    5  C4  UNL     1      25.308   0.671  53.173  1.00  0.00     0.143 A 
HETATM    6  C11 UNL     1      26.319   1.572  52.920  1.00  0.00     0.058 A 
ENDROOT
BRANCH   5   7
HETATM    7  N4  UNL     1      24.168   0.622  52.382  1.00  0.00    -0.340 N 
HETATM    8  H4  UNL     1      24.236   0.864  51.378  1.00  0.00     0.167 HD
BRANCH   7   9
HETATM    9  C5  UNL     1      22.854   0.278  52.733  1.00  0.00     0.035 A 
HETATM   10  C6  UNL     1      22.469  -0.282  53.916  1.00  0.00     0.032 A 
HETATM   11  C7  UNL     1      21.185  -0.616  54.254  1.00  0.00     0.046 A 
HETATM   12  C8  UNL     1      20.166  -0.387  53.359  1.00  0.00     0.138 A 
HETATM   13  F1  UNL     1      18.872  -0.689  53.618  1.00  0.00    -0.204 F 
HETATM   14  C9  UNL     1      20.458   0.169  52.153  1.00  0.00     0.074 A 
HETATM   15 CL1  UNL     1      19.199   0.475  50.993  1.00  0.00    -0.081 Cl
HETATM   16  C10 UNL     1      21.767   0.481  51.879  1.00  0.00     0.056 A 
ENDBRANCH   7   9
ENDBRANCH   5   7
BRANCH   6  17
HETATM   17  C12 UNL     1      26.299   2.550  51.816  1.00  0.00     0.137 C 
HETATM   18  N5  UNL     1      26.407   2.483  50.563  1.00  0.00    -0.233 NA
BRANCH  18  19
HETATM   19  C13 UNL     1      26.349   3.609  49.721  1.00  0.00     0.376 C 
HETATM   20  O1  UNL     1      27.447   4.003  49.249  1.00  0.00    -0.281 OA
ENDBRANCH  18  19
ENDBRANCH   6  17
BRANCH   1  21
HETATM   21  C1  UNL     1      28.563   2.469  53.586  1.00  0.00     0.139 C 
HETATM   22  N1  UNL     1      29.536   2.398  54.403  1.00  0.00    -0.310 NA
HETATM   23  H1  UNL     1      29.567   1.724  55.192  1.00  0.00     0.186 HD
ENDBRANCH   1  21
TORSDOF 5
ENDMDL
MODEL 4
REMARK VINA RESULT:      -7.0      3.937      6.145
REMARK  5 active torsions:
REMARK  status: ('A' for Active; 'I' for Inactive)
REMARK    1  A    between atoms: C1_2  and  C2_3 
REMARK    2  A    between atoms: C4_7  and  N4_8 
REMARK    3  A    between atoms: N4_8  and  C5_9 
REMARK    4  A    between atoms: C11_17  and  C12_18 
REMARK    5  A    between atoms: N5_19  and  C13_20 
ROOT
HETATM    1  C2  UNL     1      27.769  -1.025  53.145  1.00  0.00     0.090 A 
HETATM    2  N2  UNL     1      29.062  -0.707  53.303  1.00  0.00    -0.240 NA
HETATM    3  C3  UNL     1      29.408   0.573  53.512  1.00  0.00     0.236 A 
HETATM    4  N3  UNL     1      28.448   1.496  53.556  1.00  0.00    -0.223 NA
HETATM    5  C4  UNL     1      27.141   1.261  53.408  1.00  0.00     0.143 A 
HETATM    6  C11 UNL     1      26.765  -0.048  53.192  1.00  0.00     0.058 A 
ENDROOT
BRANCH   5   7
HETATM    7  N4  UNL     1      26.204   2.283  53.467  1.00  0.00    -0.340 N 
HETATM    8  H4  UNL     1      26.049   2.779  54.362  1.00  0.00     0.167 HD
BRANCH   7   9
HETATM    9  C5  UNL     1      25.376   2.793  52.455  1.00  0.00     0.035 A 
HETATM   10  C6  UNL     1      25.701   2.882  51.134  1.00  0.00     0.032 A 
HETATM   11  C7  UNL     1      24.889   3.380  50.151  1.00  0.00     0.046 A 
HETATM   12  C8  UNL     1      23.635   3.841  50.474  1.00  0.00     0.138 A 
HETATM   13  F1  UNL     1      22.774   4.348  49.560  1.00  0.00    -0.204 F 
HETATM   14  C9  UNL     1      23.226   3.789  51.770  1.00  0.00     0.074 A 
HETATM   15 CL1  UNL     1      21.646   4.361  52.221  1.00  0.00    -0.081 Cl
HETATM   16  C10 UNL     1      24.090   3.277  52.706  1.00  0.00     0.056 A 
ENDBRANCH   7   9
ENDBRANCH   5   7
BRANCH   6  17
HETATM   17  C12 UNL     1      25.370  -0.488  53.007  1.00  0.00     0.137 C 
HETATM   18  N5  UNL     1      24.295  -0.334  53.645  1.00  0.00    -0.233 NA
BRANCH  18  19
HETATM   19  C13 UNL     1      23.066  -0.881  53.230  1.00  0.00     0.376 C 
HETATM   20  O1  UNL     1      22.310  -1.300  54.145  1.00  0.00    -0.281 OA
ENDBRANCH  18  19
ENDBRANCH   6  17
BRANCH   1  21
HETATM   21  C1  UNL     1      27.484  -2.433  52.923  1.00  0.00     0.139 C 
HETATM   22  N1  UNL     1      28.448  -3.264  52.967  1.00  0.00    -0.310 NA
HETATM   23  H1  UNL     1      29.430  -2.984  53.152  1.00  0.00     0.186 HD
ENDBRANCH   1  21
TORSDOF 5
ENDMDL
MODEL 5
REMARK VINA RESULT:      -7.0      2.968      4.062
REMARK  5 active torsions:
REMARK  status: ('A' for Active; 'I' for Inactive)
REMARK    1  A    between atoms: C1_2  and  C2_3 
REMARK    2  A    between atoms: C4_7  and  N4_8 
REMARK    3  A    between atoms: N4_8  and  C5_9 
REMARK    4  A    between atoms: C11_17  and  C12_18 
REMARK    5  A    between atoms: N5_19  and  C13_20 
ROOT
HETATM    1  C2  UNL     1      23.234   2.028  50.697  1.00  0.00     0.090 A 
HETATM    2  N2  UNL     1      22.483   1.175  51.408  1.00  0.00    -0.240 NA
HETATM    3  C3  UNL     1      22.944   0.702  52.576  1.00  0.00     0.236 A 
HETATM    4  N3  UNL     1      24.144   1.098  52.998  1.00  0.00    -0.223 NA
HETATM    5  C4  UNL     1      24.952   1.942  52.349  1.00  0.00     0.143 A 
HETATM    6  C11 UNL     1      24.497   2.439  51.147  1.00  0.00     0.058 A 
ENDROOT
BRANCH   5   7
HETATM    7  N4  UNL     1      26.192   2.304  52.859  1.00  0.00    -0.340 N 
HETATM    8  H4  UNL     1      26.381   3.299  53.075  1.00  0.00     0.167 HD
BRANCH   7   9
HETATM    9  C5  UNL     1      27.305   1.501  53.151  1.00  0.00     0.035 A 
HETATM   10  C6  UNL     1      28.485   1.941  53.671  1.00  0.00     0.032 A 
HETATM   11  C7  UNL     1      29.569   1.153  53.955  1.00  0.00     0.046 A 
HETATM   12  C8  UNL     1      29.508  -0.199  53.710  1.00  0.00     0.138 A 
HETATM   13  F1  UNL     1      30.535  -1.044  53.963  1.00  0.00    -0.204 F 
HETATM   14  C9  UNL     1      28.367  -0.726  53.192  1.00  0.00     0.074 A 
HETATM   15 CL1  UNL     1      28.248  -2.431  52.869  1.00  0.00    -0.081 Cl
HETATM   16  C10 UNL     1      27.318   0.122  52.932  1.00  0.00     0.056 A 
ENDBRANCH   7   9
ENDBRANCH   5   7
BRANCH   6  17
HETATM   17  C12 UNL     1      25.255   3.380  50.301  1.00  0.00     0.137 C 
HETATM   18  N5  UNL     1      26.412   3.400  49.806  1.00  0.00    -0.233 NA
BRANCH  18  19
HETATM   19  C13 UNL     1      26.894   4.457  49.009  1.00  0.00     0.376 C 
HETATM   20  O1  UNL     1      28.142   4.513  48.862  1.00  0.00    -0.281 OA
ENDBRANCH  18  19
ENDBRANCH   6  17
BRANCH   1  21
HETATM   21  C1  UNL     1      22.659   2.490  49.444  1.00  0.00     0.139 C 
HETATM   22  N1  UNL     1      21.935   1.686  48.774  1.00  0.00    -0.310 NA
HETATM   23  H1  UNL     1      21.735   0.714  49.079  1.00  0.00     0.186 HD
ENDBRANCH   1  21
TORSDOF 5
ENDMDL
MODEL 6
REMARK VINA RESULT:      -6.8      3.775      5.160
REMARK  5 active torsions:
REMARK  status: ('A' for Active; 'I' for Inactive)
REMARK    1  A    between atoms: C1_2  and  C2_3 
REMARK    2  A    between atoms: C4_7  and  N4_8 
REMARK    3  A    between atoms: N4_8  and  C5_9 
REMARK    4  A    between atoms: C11_17  and  C12_18 
REMARK    5  A    between atoms: N5_19  and  C13_20 
ROOT
HETATM    1  C2  UNL     1      25.368  -0.490  54.373  1.00  0.00     0.090 A 
HETATM    2  N2  UNL     1      26.706  -0.539  54.449  1.00  0.00    -0.240 NA
HETATM    3  C3  UNL     1      27.445   0.052  53.496  1.00  0.00     0.236 A 
HETATM    4  N3  UNL     1      26.821   0.673  52.496  1.00  0.00    -0.223 NA
HETATM    5  C4  UNL     1      25.496   0.766  52.349  1.00  0.00     0.143 A 
HETATM    6  C11 UNL     1      24.719   0.165  53.317  1.00  0.00     0.058 A 
ENDROOT
BRANCH   5   7
HETATM    7  N4  UNL     1      24.924   1.433  51.274  1.00  0.00    -0.340 N 
HETATM    8  H4  UNL     1      24.267   0.928  50.655  1.00  0.00     0.167 HD
BRANCH   7   9
HETATM    9  C5  UNL     1      25.096   2.761  50.856  1.00  0.00     0.035 A 
HETATM   10  C6  UNL     1      24.286   3.807  51.186  1.00  0.00     0.032 A 
HETATM   11  C7  UNL     1      24.457   5.102  50.775  1.00  0.00     0.046 A 
HETATM   12  C8  UNL     1      25.519   5.422  49.963  1.00  0.00     0.138 A 
HETATM   13  F1  UNL     1      25.757   6.677  49.515  1.00  0.00    -0.204 F 
HETATM   14  C9  UNL     1      26.381   4.440  49.584  1.00  0.00     0.074 A 
HETATM   15 CL1  UNL     1      27.737   4.802  48.557  1.00  0.00    -0.081 Cl
HETATM   16  C10 UNL     1      26.150   3.163  50.033  1.00  0.00     0.056 A 
ENDBRANCH   7   9
ENDBRANCH   5   7
BRANCH   6  17
HETATM   17  C12 UNL     1      23.245   0.169  53.314  1.00  0.00     0.137 C 
HETATM   18  N5  UNL     1      22.355   0.578  52.522  1.00  0.00    -0.233 NA
BRANCH  18  19
HETATM   19  C13 UNL     1      20.976   0.450  52.776  1.00  0.00     0.376 C 
HETATM   20  O1  UNL     1      20.620   0.584  53.975  1.00  0.00    -0.281 OA
ENDBRANCH  18  19
ENDBRANCH   6  17
BRANCH   1  21
HETATM   21  C1  UNL     1      24.647  -1.156  55.445  1.00  0.00     0.139 C 
HETATM   22  N1  UNL     1      25.228  -1.308  56.567  1.00  0.00    -0.310 NA
HETATM   23  H1  UNL     1      26.196  -0.981  56.754  1.00  0.00     0.186 HD
ENDBRANCH   1  21
TORSDOF 5
ENDMDL
MODEL 7
REMARK VINA RESULT:      -6.7      4.479      6.099
REMARK  5 active torsions:
REMARK  status: ('A' for Active; 'I' for Inactive)
REMARK    1  A    between atoms: C1_2  and  C2_3 
REMARK    2  A    between atoms: C4_7  and  N4_8 
REMARK    3  A    between atoms: N4_8  and  C5_9 
REMARK    4  A    between atoms: C11_17  and  C12_18 
REMARK    5  A    between atoms: N5_19  and  C13_20 
ROOT
HETATM    1  C2  UNL     1      26.357   1.098  53.782  1.00  0.00     0.090 A 
HETATM    2  N2  UNL     1      27.554   1.486  54.246  1.00  0.00    -0.240 NA
HETATM    3  C3  UNL     1      28.368   2.206  53.457  1.00  0.00     0.236 A 
HETATM    4  N3  UNL     1      27.958   2.514  52.227  1.00  0.00    -0.223 NA
HETATM    5  C4  UNL     1      26.785   2.165  51.692  1.00  0.00     0.143 A 
HETATM    6  C11 UNL     1      25.934   1.425  52.486  1.00  0.00     0.058 A 
ENDROOT
BRANCH   5   7
HETATM    7  N4  UNL     1      26.434   2.527  50.398  1.00  0.00    -0.340 N 
HETATM    8  H4  UNL     1      26.251   1.789  49.696  1.00  0.00     0.167 HD
BRANCH   7   9
HETATM    9  C5  UNL     1      26.275   3.805  49.843  1.00  0.00     0.035 A 
HETATM   10  C6  UNL     1      25.139   4.558  49.898  1.00  0.00     0.032 A 
HETATM   11  C7  UNL     1      24.988   5.805  49.354  1.00  0.00     0.046 A 
HETATM   12  C8  UNL     1      26.041   6.387  48.688  1.00  0.00     0.138 A 
HETATM   13  F1  UNL     1      25.971   7.616  48.123  1.00  0.00    -0.204 F 
HETATM   14  C9  UNL     1      27.214   5.709  48.585  1.00  0.00     0.074 A 
HETATM   15 CL1  UNL     1      28.571   6.410  47.751  1.00  0.00    -0.081 Cl
HETATM   16  C10 UNL     1      27.297   4.462  49.154  1.00  0.00     0.056 A 
ENDBRANCH   7   9
ENDBRANCH   5   7
BRANCH   6  17
HETATM   17  C12 UNL     1      24.603   0.956  52.060  1.00  0.00     0.137 C 
HETATM   18  N5  UNL     1      23.516   1.514  51.754  1.00  0.00    -0.233 NA
BRANCH  18  19
HETATM   19  C13 UNL     1      22.363   0.804  51.371  1.00  0.00     0.376 C 
HETATM   20  O1  UNL     1      21.902  -0.001  52.221  1.00  0.00    -0.281 OA
ENDBRANCH  18  19
ENDBRANCH   6  17
BRANCH   1  21
HETATM   21  C1  UNL     1      25.541   0.323  54.702  1.00  0.00     0.139 C 
HETATM   22  N1  UNL     1      26.104  -0.576  55.406  1.00  0.00    -0.310 NA
HETATM   23  H1  UNL     1      27.120  -0.783  55.355  1.00  0.00     0.186 HD
ENDBRANCH   1  21
TORSDOF 5
ENDMDL
MODEL 8
REMARK VINA RESULT:      -6.6      4.534      7.046
REMARK  5 active torsions:
REMARK  status: ('A' for Active; 'I' for Inactive)
REMARK    1  A    between atoms: C1_2  and  C2_3 
REMARK    2  A    between atoms: C4_7  and  N4_8 
REMARK    3  A    between atoms: N4_8  and  C5_9 
REMARK    4  A    between atoms: C11_17  and  C12_18 
REMARK    5  A    between atoms: N5_19  and  C13_20 
ROOT
HETATM    1  C2  UNL     1      25.561   3.254  50.105  1.00  0.00     0.090 A 
HETATM    2  N2  UNL     1      24.440   3.563  49.437  1.00  0.00    -0.240 NA
HETATM    3  C3  UNL     1      23.266   3.053  49.842  1.00  0.00     0.236 A 
HETATM    4  N3  UNL     1      23.251   2.249  50.904  1.00  0.00    -0.223 NA
HETATM    5  C4  UNL     1      24.321   1.893  51.621  1.00  0.00     0.143 A 
HETATM    6  C11 UNL     1      25.536   2.406  51.221  1.00  0.00     0.058 A 
ENDROOT
BRANCH   5   7
HETATM    7  N4  UNL     1      24.218   1.047  52.717  1.00  0.00    -0.340 N 
HETATM    8  H4  UNL     1      25.029   0.935  53.350  1.00  0.00     0.167 HD
BRANCH   7   9
HETATM    9  C5  UNL     1      23.132   0.268  53.143  1.00  0.00     0.035 A 
HETATM   10  C6  UNL     1      23.177  -0.697  54.105  1.00  0.00     0.032 A 
HETATM   11  C7  UNL     1      22.114  -1.455  54.518  1.00  0.00     0.046 A 
HETATM   12  C8  UNL     1      20.880  -1.265  53.941  1.00  0.00     0.138 A 
HETATM   13  F1  UNL     1      19.782  -1.974  54.293  1.00  0.00    -0.204 F 
HETATM   14  C9  UNL     1      20.742  -0.322  52.971  1.00  0.00     0.074 A 
HETATM   15 CL1  UNL     1      19.198  -0.049  52.217  1.00  0.00    -0.081 Cl
HETATM   16  C10 UNL     1      21.850   0.404  52.607  1.00  0.00     0.056 A 
ENDBRANCH   7   9
ENDBRANCH   5   7
BRANCH   6  17
HETATM   17  C12 UNL     1      26.816   2.121  51.895  1.00  0.00     0.137 C 
HETATM   18  N5  UNL     1      27.224   2.151  53.086  1.00  0.00    -0.233 NA
BRANCH  18  19
HETATM   19  C13 UNL     1      28.539   1.819  53.463  1.00  0.00     0.376 C 
HETATM   20  O1  UNL     1      29.047   2.521  54.375  1.00  0.00    -0.281 OA
ENDBRANCH  18  19
ENDBRANCH   6  17
BRANCH   1  21
HETATM   21  C1  UNL     1      26.787   3.849  49.599  1.00  0.00     0.139 C 
HETATM   22  N1  UNL     1      26.789   5.090  49.316  1.00  0.00    -0.310 NA
HETATM   23  H1  UNL     1      25.956   5.699  49.428  1.00  0.00     0.186 HD
ENDBRANCH   1  21
TORSDOF 5
ENDMDL
MODEL 9
REMARK VINA RESULT:      -6.5      4.081      6.538
REMARK  5 active torsions:
REMARK  status: ('A' for Active; 'I' for Inactive)
REMARK    1  A    between atoms: C1_2  and  C2_3 
REMARK    2  A    between atoms: C4_7  and  N4_8 
REMARK    3  A    between atoms: N4_8  and  C5_9 
REMARK    4  A    between atoms: C11_17  and  C12_18 
REMARK    5  A    between atoms: N5_19  and  C13_20 
ROOT
HETATM    1  C2  UNL     1      26.648   1.145  52.734  1.00  0.00     0.090 A 
HETATM    2  N2  UNL     1      27.164  -0.090  52.646  1.00  0.00    -0.240 NA
HETATM    3  C3  UNL     1      26.391  -1.152  52.920  1.00  0.00     0.236 A 
HETATM    4  N3  UNL     1      25.123  -0.946  53.275  1.00  0.00    -0.223 NA
HETATM    5  C4  UNL     1      24.535   0.249  53.386  1.00  0.00     0.143 A 
HETATM    6  C11 UNL     1      25.313   1.353  53.109  1.00  0.00     0.058 A 
ENDROOT
BRANCH   5   7
HETATM    7  N4  UNL     1      23.205   0.376  53.763  1.00  0.00    -0.340 N 
HETATM    8  H4  UNL     1      22.973   0.530  54.760  1.00  0.00     0.167 HD
BRANCH   7   9
HETATM    9  C5  UNL     1      22.047   0.330  52.973  1.00  0.00     0.035 A 
HETATM   10  C6  UNL     1      20.795   0.023  53.419  1.00  0.00     0.032 A 
HETATM   11  C7  UNL     1      19.667  -0.021  52.644  1.00  0.00     0.046 A 
HETATM   12  C8  UNL     1      19.755   0.260  51.301  1.00  0.00     0.138 A 
HETATM   13  F1  UNL     1      18.687   0.238  50.469  1.00  0.00    -0.204 F 
HETATM   14  C9  UNL     1      20.965   0.578  50.770  1.00  0.00     0.074 A 
HETATM   15 CL1  UNL     1      21.119   0.940  49.075  1.00  0.00    -0.081 Cl
HETATM   16  C10 UNL     1      22.056   0.604  51.604  1.00  0.00     0.056 A 
ENDBRANCH   7   9
ENDBRANCH   5   7
BRANCH   6  17
HETATM   17  C12 UNL     1      24.829   2.744  53.181  1.00  0.00     0.137 C 
HETATM   18  N5  UNL     1      23.884   3.388  52.653  1.00  0.00    -0.233 NA
BRANCH  18  19
HETATM   19  C13 UNL     1      23.643   4.752  52.905  1.00  0.00     0.376 C 
HETATM   20  O1  UNL     1      23.046   5.385  51.995  1.00  0.00    -0.281 OA
ENDBRANCH  18  19
ENDBRANCH   6  17
BRANCH   1  21
HETATM   21  C1  UNL     1      27.554   2.237  52.421  1.00  0.00     0.139 C 
HETATM   22  N1  UNL     1      28.627   2.350  53.097  1.00  0.00    -0.310 NA
HETATM   23  H1  UNL     1      28.885   1.700  53.865  1.00  0.00     0.186 HD
ENDBRANCH   1  21
TORSDOF 5
ENDMDL
