MODEL 1
REMARK VINA RESULT:      -8.7      0.000      0.000
REMARK  1 active torsions:
REMARK  status: ('A' for Active; 'I' for Inactive)
REMARK    1  A    between atoms: C11_16  and  C12_17 
ROOT
HETATM    1 BR1  UNL     1      22.129   2.138  47.455  1.00  0.00    -0.056 Br
HETATM    2  C1  UNL     1      22.473   2.191  49.308  1.00  0.00    -0.013 C 
HETATM    3  C2  UNL     1      21.946   1.253  50.116  1.00  0.00    -0.006 C 
HETATM    4  C3  UNL     1      21.452   0.311  51.150  1.00  0.00     0.022 C 
HETATM    5  C4  UNL     1      21.265  -0.203  52.381  1.00  0.00     0.001 C 
HETATM    6  C5  UNL     1      21.862   0.505  53.552  1.00  0.00     0.043 C 
HETATM    7  C6  UNL     1      22.954  -0.199  54.203  1.00  0.00     0.104 C 
HETATM    8  N1  UNL     1      23.594  -0.328  53.046  1.00  0.00    -0.198 NA
HETATM    9  N2  UNL     1      24.575   0.621  53.066  1.00  0.00    -0.237 N 
HETATM   10  C7  UNL     1      25.121   1.753  52.488  1.00  0.00     0.202 C 
HETATM   11  N3  UNL     1      24.403   2.809  52.532  1.00  0.00    -0.201 NA
HETATM   12  C8  UNL     1      23.858   2.966  51.218  1.00  0.00     0.098 A 
HETATM   13  C9  UNL     1      24.994   3.625  51.537  1.00  0.00     0.186 A 
HETATM   14  N4  UNL     1      25.885   2.720  51.857  1.00  0.00    -0.227 NA
HETATM   15  C10 UNL     1      23.436   3.235  49.818  1.00  0.00     0.078 C 
HETATM   16  C11 UNL     1      25.251   0.117  54.230  1.00  0.00     0.148 C 
HETATM   17  C18 UNL     1      24.192  -0.933  54.656  1.00  0.00     0.070 C 
ENDROOT
BRANCH  16  18
HETATM   18  C12 UNL     1      26.532  -0.496  53.839  1.00  0.00    -0.033 A 
HETATM   19  C13 UNL     1      27.664   0.068  54.451  1.00  0.00     0.009 A 
HETATM   20  C14 UNL     1      28.871  -0.475  54.078  1.00  0.00     0.001 A 
HETATM   21  C15 UNL     1      29.099  -1.486  53.193  1.00  0.00     0.000 A 
HETATM   22  C16 UNL     1      27.941  -2.012  52.613  1.00  0.00     0.001 A 
HETATM   23  C17 UNL     1      26.670  -1.525  52.930  1.00  0.00     0.009 A 
ENDBRANCH  16  18
TORSDOF 1
ENDMDL
MODEL 2
REMARK VINA RESULT:      -8.3      0.652      1.183
REMARK  1 active torsions:
REMARK  status: ('A' for Active; 'I' for Inactive)
REMARK    1  A    between atoms: C11_16  and  C12_17 
ROOT
HETATM    1 BR1  UNL     1      22.053   2.757  47.308  1.00  0.00    -0.056 Br
HETATM    2  C1  UNL     1      22.202   2.658  49.185  1.00  0.00    -0.013 C 
HETATM    3  C2  UNL     1      21.677   1.609  49.846  1.00  0.00    -0.006 C 
HETATM    4  C3  UNL     1      21.162   0.539  50.734  1.00  0.00     0.022 C 
HETATM    5  C4  UNL     1      20.895  -0.103  51.888  1.00  0.00     0.001 C 
HETATM    6  C5  UNL     1      21.308   0.532  53.174  1.00  0.00     0.043 C 
HETATM    7  C6  UNL     1      22.384  -0.147  53.877  1.00  0.00     0.104 C 
HETATM    8  N1  UNL     1      23.147  -0.117  52.789  1.00  0.00    -0.198 NA
HETATM    9  N2  UNL     1      24.038   0.897  52.998  1.00  0.00    -0.237 N 
HETATM   10  C7  UNL     1      24.541   2.117  52.584  1.00  0.00     0.202 C 
HETATM   11  N3  UNL     1      23.735   3.106  52.641  1.00  0.00    -0.201 NA
HETATM   12  C8  UNL     1      23.315   3.347  51.295  1.00  0.00     0.098 A 
HETATM   13  C9  UNL     1      24.354   4.056  51.792  1.00  0.00     0.186 A 
HETATM   14  N4  UNL     1      25.281   3.194  52.127  1.00  0.00    -0.227 NA
HETATM   15  C10 UNL     1      23.017   3.717  49.886  1.00  0.00     0.078 C 
HETATM   16  C11 UNL     1      24.632   0.336  54.180  1.00  0.00     0.148 C 
HETATM   17  C18 UNL     1      23.628  -0.827  54.395  1.00  0.00     0.070 C 
ENDROOT
BRANCH  16  18
HETATM   18  C12 UNL     1      25.993  -0.139  53.879  1.00  0.00    -0.033 A 
HETATM   19  C13 UNL     1      26.056  -1.203  52.963  1.00  0.00     0.009 A 
HETATM   20  C14 UNL     1      27.317  -1.675  52.689  1.00  0.00     0.001 A 
HETATM   21  C15 UNL     1      28.506  -1.240  53.197  1.00  0.00     0.000 A 
HETATM   22  C16 UNL     1      28.388  -0.180  54.102  1.00  0.00     0.001 A 
HETATM   23  C17 UNL     1      27.147   0.367  54.442  1.00  0.00     0.009 A 
ENDBRANCH  16  18
TORSDOF 1
ENDMDL
MODEL 3
REMARK VINA RESULT:      -7.8      1.805      2.424
REMARK  1 active torsions:
REMARK  status: ('A' for Active; 'I' for Inactive)
REMARK    1  A    between atoms: C11_16  and  C12_17 
ROOT
HETATM    1 BR1  UNL     1      21.907   3.891  46.010  1.00  0.00    -0.056 Br
HETATM    2  C1  UNL     1      21.760   3.712  47.881  1.00  0.00    -0.013 C 
HETATM    3  C2  UNL     1      21.313   2.559  48.412  1.00  0.00    -0.006 C 
HETATM    4  C3  UNL     1      20.842   1.373  49.168  1.00  0.00     0.022 C 
HETATM    5  C4  UNL     1      20.499   0.633  50.241  1.00  0.00     0.001 C 
HETATM    6  C5  UNL     1      20.585   1.253  51.596  1.00  0.00     0.043 C 
HETATM    7  C6  UNL     1      21.627   0.714  52.453  1.00  0.00     0.104 C 
HETATM    8  N1  UNL     1      22.544   0.925  51.514  1.00  0.00    -0.198 NA
HETATM    9  N2  UNL     1      23.208   2.053  51.901  1.00  0.00    -0.237 N 
HETATM   10  C7  UNL     1      23.565   3.358  51.614  1.00  0.00     0.202 C 
HETATM   11  N3  UNL     1      22.609   4.203  51.560  1.00  0.00    -0.201 NA
HETATM   12  C8  UNL     1      22.382   4.450  50.169  1.00  0.00     0.098 A 
HETATM   13  C9  UNL     1      23.193   5.285  50.856  1.00  0.00     0.186 A 
HETATM   14  N4  UNL     1      24.182   4.562  51.321  1.00  0.00    -0.227 NA
HETATM   15  C10 UNL     1      22.262   4.846  48.741  1.00  0.00     0.078 C 
HETATM   16  C11 UNL     1      23.684   1.527  53.150  1.00  0.00     0.148 C 
HETATM   17  C18 UNL     1      22.864   0.211  53.157  1.00  0.00     0.070 C 
ENDROOT
BRANCH  16  18
HETATM   18  C12 UNL     1      25.136   1.291  53.074  1.00  0.00    -0.033 A 
HETATM   19  C13 UNL     1      25.919   2.201  53.802  1.00  0.00     0.009 A 
HETATM   20  C14 UNL     1      27.278   2.011  53.721  1.00  0.00     0.001 A 
HETATM   21  C15 UNL     1      27.951   1.052  53.024  1.00  0.00     0.000 A 
HETATM   22  C16 UNL     1      27.126   0.172  52.317  1.00  0.00     0.001 A 
HETATM   23  C17 UNL     1      25.734   0.286  52.339  1.00  0.00     0.009 A 
ENDBRANCH  16  18
TORSDOF 1
ENDMDL
MODEL 4
REMARK VINA RESULT:      -7.4      2.952      6.313
REMARK  1 active torsions:
REMARK  status: ('A' for Active; 'I' for Inactive)
REMARK    1  A    between atoms: C11_16  and  C12_17 
ROOT
HETATM    1 BR1  UNL     1      21.013  -0.105  54.661  1.00  0.00    -0.056 Br
HETATM    2  C1  UNL     1      21.941   0.327  53.078  1.00  0.00    -0.013 C 
HETATM    3  C2  UNL     1      21.258   0.579  51.946  1.00  0.00    -0.006 C 
HETATM    4  C3  UNL     1      20.675   0.881  50.616  1.00  0.00     0.022 C 
HETATM    5  C4  UNL     1      20.654   1.182  49.302  1.00  0.00     0.001 C 
HETATM    6  C5  UNL     1      21.953   1.335  48.582  1.00  0.00     0.043 C 
HETATM    7  C6  UNL     1      22.262   2.690  48.156  1.00  0.00     0.104 C 
HETATM    8  N1  UNL     1      22.073   3.148  49.389  1.00  0.00    -0.198 NA
HETATM    9  N2  UNL     1      23.324   3.331  49.904  1.00  0.00    -0.237 N 
HETATM   10  C7  UNL     1      24.250   3.000  50.877  1.00  0.00     0.202 C 
HETATM   11  N3  UNL     1      24.670   1.793  50.864  1.00  0.00    -0.201 NA
HETATM   12  C8  UNL     1      23.995   1.132  51.939  1.00  0.00     0.098 A 
HETATM   13  C9  UNL     1      25.226   1.647  52.158  1.00  0.00     0.186 A 
HETATM   14  N4  UNL     1      25.150   2.934  51.926  1.00  0.00    -0.227 NA
HETATM   15  C10 UNL     1      23.440   0.490  53.159  1.00  0.00     0.078 C 
HETATM   16  C11 UNL     1      23.751   4.292  48.925  1.00  0.00     0.148 C 
HETATM   17  C18 UNL     1      22.551   4.157  47.952  1.00  0.00     0.070 C 
ENDROOT
BRANCH  16  18
HETATM   18  C12 UNL     1      23.836   5.629  49.539  1.00  0.00    -0.033 A 
HETATM   19  C13 UNL     1      25.145   6.094  49.756  1.00  0.00     0.009 A 
HETATM   20  C14 UNL     1      25.243   7.329  50.351  1.00  0.00     0.001 A 
HETATM   21  C15 UNL     1      24.231   8.150  50.753  1.00  0.00     0.000 A 
HETATM   22  C16 UNL     1      22.951   7.641  50.514  1.00  0.00     0.001 A 
HETATM   23  C17 UNL     1      22.752   6.395  49.914  1.00  0.00     0.009 A 
ENDBRANCH  16  18
TORSDOF 1
ENDMDL
MODEL 5
REMARK VINA RESULT:      -7.3      8.145     10.986
REMARK  1 active torsions:
REMARK  status: ('A' for Active; 'I' for Inactive)
REMARK    1  A    between atoms: C11_16  and  C12_17 
ROOT
HETATM    1 BR1  UNL     1      35.070   3.485  45.801  1.00  0.00    -0.056 Br
HETATM    2  C1  UNL     1      34.080   4.961  46.430  1.00  0.00    -0.013 C 
HETATM    3  C2  UNL     1      33.340   5.689  45.573  1.00  0.00    -0.006 C 
HETATM    4  C3  UNL     1      32.478   6.598  44.779  1.00  0.00     0.022 C 
HETATM    5  C4  UNL     1      31.661   7.640  44.530  1.00  0.00     0.001 C 
HETATM    6  C5  UNL     1      31.303   8.555  45.653  1.00  0.00     0.043 C 
HETATM    7  C6  UNL     1      29.916   8.490  46.081  1.00  0.00     0.104 C 
HETATM    8  N1  UNL     1      29.999   7.172  46.234  1.00  0.00    -0.198 NA
HETATM    9  N2  UNL     1      30.123   6.970  47.579  1.00  0.00    -0.237 N 
HETATM   10  C7  UNL     1      30.885   6.477  48.623  1.00  0.00     0.202 C 
HETATM   11  N3  UNL     1      32.001   7.063  48.830  1.00  0.00    -0.201 NA
HETATM   12  C8  UNL     1      33.004   6.191  48.299  1.00  0.00     0.098 A 
HETATM   13  C9  UNL     1      32.704   6.118  49.616  1.00  0.00     0.186 A 
HETATM   14  N4  UNL     1      31.434   5.807  49.703  1.00  0.00    -0.227 NA
HETATM   15  C10 UNL     1      34.058   5.215  47.918  1.00  0.00     0.078 C 
HETATM   16  C11 UNL     1      28.872   7.577  47.940  1.00  0.00     0.148 C 
HETATM   17  C18 UNL     1      28.517   8.179  46.555  1.00  0.00     0.070 C 
ENDROOT
BRANCH  16  18
HETATM   18  C12 UNL     1      27.918   6.540  48.368  1.00  0.00    -0.033 A 
HETATM   19  C13 UNL     1      26.645   7.022  48.720  1.00  0.00     0.009 A 
HETATM   20  C14 UNL     1      25.749   6.071  49.147  1.00  0.00     0.001 A 
HETATM   21  C15 UNL     1      25.946   4.728  49.270  1.00  0.00     0.000 A 
HETATM   22  C16 UNL     1      27.227   4.300  48.908  1.00  0.00     0.001 A 
HETATM   23  C17 UNL     1      28.205   5.194  48.461  1.00  0.00     0.009 A 
ENDBRANCH  16  18
TORSDOF 1
ENDMDL
MODEL 6
REMARK VINA RESULT:      -7.3      3.023      5.001
REMARK  1 active torsions:
REMARK  status: ('A' for Active; 'I' for Inactive)
REMARK    1  A    between atoms: C11_16  and  C12_17 
ROOT
HETATM    1 BR1  UNL     1      18.179   5.458  48.212  1.00  0.00    -0.056 Br
HETATM    2  C1  UNL     1      19.868   4.718  48.611  1.00  0.00    -0.013 C 
HETATM    3  C2  UNL     1      20.672   5.324  49.505  1.00  0.00    -0.006 C 
HETATM    4  C3  UNL     1      21.683   5.850  50.454  1.00  0.00     0.022 C 
HETATM    5  C4  UNL     1      22.851   5.915  51.122  1.00  0.00     0.001 C 
HETATM    6  C5  UNL     1      23.895   4.886  50.842  1.00  0.00     0.043 C 
HETATM    7  C6  UNL     1      24.147   3.956  51.930  1.00  0.00     0.104 C 
HETATM    8  N1  UNL     1      22.854   3.657  52.007  1.00  0.00    -0.198 NA
HETATM    9  N2  UNL     1      22.723   2.448  51.386  1.00  0.00    -0.237 N 
HETATM   10  C7  UNL     1      22.157   1.715  50.359  1.00  0.00     0.202 C 
HETATM   11  N3  UNL     1      22.513   2.038  49.175  1.00  0.00    -0.201 NA
HETATM   12  C8  UNL     1      21.418   2.779  48.626  1.00  0.00     0.098 A 
HETATM   13  C9  UNL     1      21.498   1.453  48.378  1.00  0.00     0.186 A 
HETATM   14  N4  UNL     1      21.463   0.843  49.537  1.00  0.00    -0.227 NA
HETATM   15  C10 UNL     1      20.222   3.389  47.989  1.00  0.00     0.078 C 
HETATM   16  C11 UNL     1      23.598   1.728  52.269  1.00  0.00     0.148 C 
HETATM   17  C18 UNL     1      24.165   2.943  53.049  1.00  0.00     0.070 C 
ENDROOT
BRANCH  16  18
HETATM   18  C12 UNL     1      22.813   0.822  53.124  1.00  0.00    -0.033 A 
HETATM   19  C13 UNL     1      23.495  -0.334  53.538  1.00  0.00     0.009 A 
HETATM   20  C14 UNL     1      22.769  -1.204  54.316  1.00  0.00     0.001 A 
HETATM   21  C15 UNL     1      21.475  -1.081  54.729  1.00  0.00     0.000 A 
HETATM   22  C16 UNL     1      20.842   0.086  54.291  1.00  0.00     0.001 A 
HETATM   23  C17 UNL     1      21.500   1.029  53.497  1.00  0.00     0.009 A 
ENDBRANCH  16  18
TORSDOF 1
ENDMDL
MODEL 7
REMARK VINA RESULT:      -6.8     13.958     15.808
REMARK  1 active torsions:
REMARK  status: ('A' for Active; 'I' for Inactive)
REMARK    1  A    between atoms: C11_16  and  C12_17 
ROOT
HETATM    1 BR1  UNL     1      26.961  -3.464  71.229  1.00  0.00    -0.056 Br
HETATM    2  C1  UNL     1      26.573  -3.377  69.385  1.00  0.00    -0.013 C 
HETATM    3  C2  UNL     1      27.537  -3.029  68.512  1.00  0.00    -0.006 C 
HETATM    4  C3  UNL     1      28.466  -2.666  67.414  1.00  0.00     0.022 C 
HETATM    5  C4  UNL     1      28.865  -2.404  66.154  1.00  0.00     0.001 C 
HETATM    6  C5  UNL     1      27.860  -2.477  65.053  1.00  0.00     0.043 C 
HETATM    7  C6  UNL     1      28.048  -3.578  64.123  1.00  0.00     0.104 C 
HETATM    8  N1  UNL     1      28.074  -4.453  65.123  1.00  0.00    -0.198 NA
HETATM    9  N2  UNL     1      26.843  -5.041  65.123  1.00  0.00    -0.237 N 
HETATM   10  C7  UNL     1      25.666  -5.294  65.805  1.00  0.00     0.202 C 
HETATM   11  N3  UNL     1      24.938  -4.278  66.067  1.00  0.00    -0.201 NA
HETATM   12  C8  UNL     1      25.140  -3.999  67.456  1.00  0.00     0.098 A 
HETATM   13  C9  UNL     1      24.087  -4.763  67.089  1.00  0.00     0.186 A 
HETATM   14  N4  UNL     1      24.571  -5.814  66.475  1.00  0.00    -0.227 NA
HETATM   15  C10 UNL     1      25.203  -3.815  68.930  1.00  0.00     0.078 C 
HETATM   16  C11 UNL     1      26.934  -5.585  63.797  1.00  0.00     0.148 C 
HETATM   17  C18 UNL     1      28.235  -4.865  63.357  1.00  0.00     0.070 C 
ENDROOT
BRANCH  16  18
HETATM   18  C12 UNL     1      27.091  -7.048  63.865  1.00  0.00    -0.033 A 
HETATM   19  C13 UNL     1      26.163  -7.776  63.102  1.00  0.00     0.009 A 
HETATM   20  C14 UNL     1      26.279  -9.143  63.174  1.00  0.00     0.001 A 
HETATM   21  C15 UNL     1      27.179  -9.873  63.892  1.00  0.00     0.000 A 
HETATM   22  C16 UNL     1      28.080  -9.102  64.633  1.00  0.00     0.001 A 
HETATM   23  C17 UNL     1      28.040  -7.705  64.622  1.00  0.00     0.009 A 
ENDBRANCH  16  18
TORSDOF 1
ENDMDL
MODEL 8
REMARK VINA RESULT:      -6.8      8.774     11.559
REMARK  1 active torsions:
REMARK  status: ('A' for Active; 'I' for Inactive)
REMARK    1  A    between atoms: C11_16  and  C12_17 
ROOT
HETATM    1 BR1  UNL     1      26.198  14.808  47.657  1.00  0.00    -0.056 Br
HETATM    2  C1  UNL     1      27.429  13.449  47.218  1.00  0.00    -0.013 C 
HETATM    3  C2  UNL     1      28.413  13.129  48.079  1.00  0.00    -0.006 C 
HETATM    4  C3  UNL     1      29.552  12.648  48.898  1.00  0.00     0.022 C 
HETATM    5  C4  UNL     1      30.643  11.923  49.213  1.00  0.00     0.001 C 
HETATM    6  C5  UNL     1      31.167  10.946  48.213  1.00  0.00     0.043 C 
HETATM    7  C6  UNL     1      31.012   9.549  48.581  1.00  0.00     0.104 C 
HETATM    8  N1  UNL     1      29.712   9.723  48.794  1.00  0.00    -0.198 NA
HETATM    9  N2  UNL     1      29.091   9.204  47.694  1.00  0.00    -0.237 N 
HETATM   10  C7  UNL     1      28.271   9.421  46.601  1.00  0.00     0.202 C 
HETATM   11  N3  UNL     1      28.728  10.206  45.703  1.00  0.00    -0.201 NA
HETATM   12  C8  UNL     1      28.038  11.447  45.881  1.00  0.00     0.098 A 
HETATM   13  C9  UNL     1      27.561  10.558  44.980  1.00  0.00     0.186 A 
HETATM   14  N4  UNL     1      27.277   9.461  45.638  1.00  0.00    -0.227 NA
HETATM   15  C10 UNL     1      27.201  12.674  45.943  1.00  0.00     0.078 C 
HETATM   16  C11 UNL     1      29.591   7.867  47.854  1.00  0.00     0.148 C 
HETATM   17  C18 UNL     1      30.610   8.152  48.988  1.00  0.00     0.070 C 
ENDROOT
BRANCH  16  18
HETATM   18  C12 UNL     1      28.501   6.973  48.283  1.00  0.00    -0.033 A 
HETATM   19  C13 UNL     1      28.818   5.604  48.256  1.00  0.00     0.009 A 
HETATM   20  C14 UNL     1      27.804   4.755  48.629  1.00  0.00     0.001 A 
HETATM   21  C15 UNL     1      26.538   5.077  49.018  1.00  0.00     0.000 A 
HETATM   22  C16 UNL     1      26.275   6.450  49.029  1.00  0.00     0.001 A 
HETATM   23  C17 UNL     1      27.243   7.391  48.666  1.00  0.00     0.009 A 
ENDBRANCH  16  18
TORSDOF 1
ENDMDL
MODEL 9
REMARK VINA RESULT:      -6.6      9.571     10.792
REMARK  1 active torsions:
REMARK  status: ('A' for Active; 'I' for Inactive)
REMARK    1  A    between atoms: C11_16  and  C12_17 
ROOT
HETATM    1 BR1  UNL     1      26.358   8.566  44.050  1.00  0.00    -0.056 Br
HETATM    2  C1  UNL     1      27.946   8.811  45.037  1.00  0.00    -0.013 C 
HETATM    3  C2  UNL     1      27.944   8.624  46.370  1.00  0.00    -0.006 C 
HETATM    4  C3  UNL     1      28.127   8.466  47.834  1.00  0.00     0.022 C 
HETATM    5  C4  UNL     1      28.768   8.479  49.019  1.00  0.00     0.001 C 
HETATM    6  C5  UNL     1      30.199   8.901  49.055  1.00  0.00     0.043 C 
HETATM    7  C6  UNL     1      31.143   7.840  49.367  1.00  0.00     0.104 C 
HETATM    8  N1  UNL     1      30.649   7.080  48.396  1.00  0.00    -0.198 NA
HETATM    9  N2  UNL     1      31.540   7.179  47.367  1.00  0.00    -0.237 N 
HETATM   10  C7  UNL     1      31.779   7.551  46.056  1.00  0.00     0.202 C 
HETATM   11  N3  UNL     1      31.677   8.798  45.798  1.00  0.00    -0.201 NA
HETATM   12  C8  UNL     1      30.423   8.958  45.127  1.00  0.00     0.098 A 
HETATM   13  C9  UNL     1      31.546   8.812  44.388  1.00  0.00     0.186 A 
HETATM   14  N4  UNL     1      32.065   7.652  44.705  1.00  0.00    -0.227 NA
HETATM   15  C10 UNL     1      29.214   9.104  44.274  1.00  0.00     0.078 C 
HETATM   16  C11 UNL     1      32.663   6.645  48.087  1.00  0.00     0.148 C 
HETATM   17  C18 UNL     1      32.022   6.620  49.499  1.00  0.00     0.070 C 
ENDROOT
BRANCH  16  18
HETATM   18  C12 UNL     1      32.984   5.298  47.586  1.00  0.00    -0.033 A 
HETATM   19  C13 UNL     1      34.342   5.088  47.292  1.00  0.00     0.009 A 
HETATM   20  C14 UNL     1      34.656   3.844  46.799  1.00  0.00     0.001 A 
HETATM   21  C15 UNL     1      33.814   2.797  46.563  1.00  0.00     0.000 A 
HETATM   22  C16 UNL     1      32.476   3.057  46.873  1.00  0.00     0.001 A 
HETATM   23  C17 UNL     1      32.061   4.292  47.379  1.00  0.00     0.009 A 
ENDBRANCH  16  18
TORSDOF 1
ENDMDL
