MODEL 1
REMARK VINA RESULT:      -7.0      0.000      0.000
REMARK  7 active torsions:
REMARK  status: ('A' for Active; 'I' for Inactive)
REMARK    1  A    between atoms: O1_1  and  C1_2 
REMARK    2  A    between atoms: C9_11  and  O3_12 
REMARK    3  A    between atoms: N1_14  and  C11_15 
REMARK    4  A    between atoms: C12_16  and  C13_17 
REMARK    5  A    between atoms: C13_17  and  N2_18 
REMARK    6  A    between atoms: N2_18  and  C14_19 
REMARK    7  A    between atoms: C18_24  and  O4_25 
ROOT
HETATM    1  C14 UNL     1      28.696   0.304  54.336  1.00  0.00     0.095 C 
HETATM    2  C15 UNL     1      29.021  -0.885  53.836  1.00  0.00     0.234 C 
HETATM    3 CL1  UNL     1      29.523  -2.400  53.157  1.00  0.00    -0.229 Cl
ENDROOT
BRANCH   1   4
HETATM    4  N2  UNL     1      27.497   0.669  54.998  1.00  0.00    -0.395 N 
HETATM    5  H15 UNL     1      27.974   1.427  55.523  1.00  0.00     0.159 HD
BRANCH   4   6
HETATM    6  C13 UNL     1      26.071   0.321  55.101  1.00  0.00     0.147 C 
BRANCH   6   7
HETATM    7  C12 UNL     1      25.782  -0.554  53.968  1.00  0.00     0.009 C 
HETATM    8  C11 UNL     1      24.777  -0.526  53.117  1.00  0.00     0.083 C 
BRANCH   8   9
HETATM    9  N1  UNL     1      23.610   0.321  52.949  1.00  0.00    -0.387 N 
HETATM   10  C10 UNL     1      22.383  -0.368  52.858  1.00  0.00     0.154 C 
HETATM   11  C9  UNL     1      21.379  -0.230  53.948  1.00  0.00     0.140 C 
HETATM   12  C8  UNL     1      20.771   1.152  54.039  1.00  0.00     0.070 C 
HETATM   13  C7  UNL     1      20.358   1.731  52.776  1.00  0.00    -0.042 C 
HETATM   14  C6  UNL     1      21.260   2.628  52.326  1.00  0.00     0.013 C 
HETATM   15  C18 UNL     1      19.216   1.568  51.904  1.00  0.00     0.206 C 
HETATM   16  C5  UNL     1      22.222   2.300  51.250  1.00  0.00    -0.045 C 
HETATM   17  C4  UNL     1      21.809   1.965  50.043  1.00  0.00     0.008 A 
HETATM   18  C17 UNL     1      23.679   2.351  51.526  1.00  0.00     0.059 C 
HETATM   19  C2  UNL     1      20.473   1.499  49.615  1.00  0.00     0.110 A 
HETATM   20  C3  UNL     1      22.342   1.869  48.663  1.00  0.00     0.218 A 
HETATM   21  C1  UNL     1      19.477   1.274  50.490  1.00  0.00     0.110 C 
HETATM   22  O2  UNL     1      20.986   1.528  48.326  1.00  0.00    -0.343 OA
HETATM   23  C16 UNL     1      23.957   1.725  52.905  1.00  0.00     0.127 C 
BRANCH  11  24
HETATM   24  O3  UNL     1      20.280  -1.042  53.524  1.00  0.00    -0.394 OA
HETATM   25  H8  UNL     1      19.636  -0.396  53.140  1.00  0.00     0.210 HD
ENDBRANCH  11  24
BRANCH  21  26
HETATM   26  O1  UNL     1      18.447   0.576  49.829  1.00  0.00    -0.359 OA
HETATM   27  H1  UNL     1      18.600   0.195  48.895  1.00  0.00     0.217 HD
ENDBRANCH  21  26
BRANCH  15  28
HETATM   28  O4  UNL     1      18.507   2.794  51.917  1.00  0.00    -0.384 OA
HETATM   29  H23 UNL     1      18.004   2.768  52.789  1.00  0.00     0.211 HD
ENDBRANCH  15  28
ENDBRANCH   8   9
ENDBRANCH   6   7
ENDBRANCH   4   6
ENDBRANCH   1   4
TORSDOF 7
ENDMDL
MODEL 2
REMARK VINA RESULT:      -6.8      1.959      2.213
REMARK  7 active torsions:
REMARK  status: ('A' for Active; 'I' for Inactive)
REMARK    1  A    between atoms: O1_1  and  C1_2 
REMARK    2  A    between atoms: C9_11  and  O3_12 
REMARK    3  A    between atoms: N1_14  and  C11_15 
REMARK    4  A    between atoms: C12_16  and  C13_17 
REMARK    5  A    between atoms: C13_17  and  N2_18 
REMARK    6  A    between atoms: N2_18  and  C14_19 
REMARK    7  A    between atoms: C18_24  and  O4_25 
ROOT
HETATM    1  C14 UNL     1      29.039   1.685  54.100  1.00  0.00     0.095 C 
HETATM    2  C15 UNL     1      29.416   0.425  53.900  1.00  0.00     0.234 C 
HETATM    3 CL1  UNL     1      29.992  -1.191  53.644  1.00  0.00    -0.229 Cl
ENDROOT
BRANCH   1   4
HETATM    4  N2  UNL     1      27.719   2.197  54.162  1.00  0.00    -0.395 N 
HETATM    5  H15 UNL     1      28.026   3.024  54.709  1.00  0.00     0.159 HD
BRANCH   4   6
HETATM    6  C13 UNL     1      26.338   1.913  53.739  1.00  0.00     0.147 C 
BRANCH   6   7
HETATM    7  C12 UNL     1      26.298   2.146  52.297  1.00  0.00     0.009 C 
HETATM    8  C11 UNL     1      25.278   2.451  51.522  1.00  0.00     0.083 C 
BRANCH   8   9
HETATM    9  N1  UNL     1      23.861   2.671  51.746  1.00  0.00    -0.387 N 
HETATM   10  C10 UNL     1      23.018   1.638  51.286  1.00  0.00     0.154 C 
HETATM   11  C9  UNL     1      22.264   0.811  52.267  1.00  0.00     0.140 C 
HETATM   12  C8  UNL     1      21.182   1.576  52.998  1.00  0.00     0.070 C 
HETATM   13  C7  UNL     1      20.346   2.414  52.163  1.00  0.00    -0.042 C 
HETATM   14  C6  UNL     1      20.712   3.710  52.240  1.00  0.00     0.013 C 
HETATM   15  C18 UNL     1      19.224   2.179  51.280  1.00  0.00     0.206 C 
HETATM   16  C5  UNL     1      21.507   4.365  51.176  1.00  0.00    -0.045 C 
HETATM   17  C4  UNL     1      21.046   4.469  49.945  1.00  0.00     0.008 A 
HETATM   18  C17 UNL     1      22.846   4.920  51.495  1.00  0.00     0.059 C 
HETATM   19  C2  UNL     1      19.954   3.713  49.296  1.00  0.00     0.110 A 
HETATM   20  C3  UNL     1      21.306   5.252  48.713  1.00  0.00     0.218 A 
HETATM   21  C1  UNL     1      19.313   2.705  49.914  1.00  0.00     0.110 C 
HETATM   22  O2  UNL     1      20.163   4.543  48.204  1.00  0.00    -0.343 OA
HETATM   23  C16 UNL     1      23.602   3.933  52.404  1.00  0.00     0.127 C 
BRANCH  11  24
HETATM   24  O3  UNL     1      21.524  -0.111  51.462  1.00  0.00    -0.394 OA
HETATM   25  H8  UNL     1      20.899  -0.540  52.098  1.00  0.00     0.210 HD
ENDBRANCH  11  24
BRANCH  21  26
HETATM   26  O1  UNL     1      18.545   2.009  48.959  1.00  0.00    -0.359 OA
HETATM   27  H1  UNL     1      17.526   2.065  48.978  1.00  0.00     0.217 HD
ENDBRANCH  21  26
BRANCH  15  28
HETATM   28  O4  UNL     1      18.100   2.813  51.864  1.00  0.00    -0.384 OA
HETATM   29  H23 UNL     1      17.392   2.097  51.854  1.00  0.00     0.211 HD
ENDBRANCH  15  28
ENDBRANCH   8   9
ENDBRANCH   6   7
ENDBRANCH   4   6
ENDBRANCH   1   4
TORSDOF 7
ENDMDL
MODEL 3
REMARK VINA RESULT:      -6.6      1.990      3.721
REMARK  7 active torsions:
REMARK  status: ('A' for Active; 'I' for Inactive)
REMARK    1  A    between atoms: O1_1  and  C1_2 
REMARK    2  A    between atoms: C9_11  and  O3_12 
REMARK    3  A    between atoms: N1_14  and  C11_15 
REMARK    4  A    between atoms: C12_16  and  C13_17 
REMARK    5  A    between atoms: C13_17  and  N2_18 
REMARK    6  A    between atoms: N2_18  and  C14_19 
REMARK    7  A    between atoms: C18_24  and  O4_25 
ROOT
HETATM    1  C14 UNL     1      28.978   1.796  53.939  1.00  0.00     0.095 C 
HETATM    2  C15 UNL     1      29.398   0.537  53.848  1.00  0.00     0.234 C 
HETATM    3 CL1  UNL     1      30.028  -1.076  53.749  1.00  0.00    -0.229 Cl
ENDROOT
BRANCH   1   4
HETATM    4  N2  UNL     1      27.666   2.290  53.737  1.00  0.00    -0.395 N 
HETATM    5  H15 UNL     1      27.695   2.834  54.620  1.00  0.00     0.159 HD
BRANCH   4   6
HETATM    6  C13 UNL     1      26.531   2.236  52.800  1.00  0.00     0.147 C 
BRANCH   6   7
HETATM    7  C12 UNL     1      25.365   2.704  53.545  1.00  0.00     0.009 C 
HETATM    8  C11 UNL     1      24.109   2.810  53.163  1.00  0.00     0.083 C 
BRANCH   8   9
HETATM    9  N1  UNL     1      23.394   2.531  51.930  1.00  0.00    -0.387 N 
HETATM   10  C10 UNL     1      22.756   3.645  51.347  1.00  0.00     0.154 C 
HETATM   11  C9  UNL     1      23.246   4.176  50.046  1.00  0.00     0.140 C 
HETATM   12  C8  UNL     1      23.008   3.238  48.882  1.00  0.00     0.070 C 
HETATM   13  C7  UNL     1      21.685   2.649  48.822  1.00  0.00    -0.042 C 
HETATM   14  C6  UNL     1      21.688   1.382  49.284  1.00  0.00     0.013 C 
HETATM   15  C18 UNL     1      20.384   3.106  48.386  1.00  0.00     0.206 C 
HETATM   16  C5  UNL     1      21.196   1.039  50.638  1.00  0.00    -0.045 C 
HETATM   17  C4  UNL     1      19.944   1.266  50.987  1.00  0.00     0.008 A 
HETATM   18  C17 UNL     1      22.120   0.425  51.622  1.00  0.00     0.059 C 
HETATM   19  C2  UNL     1      18.952   2.162  50.357  1.00  0.00     0.110 A 
HETATM   20  C3  UNL     1      18.977   0.841  52.027  1.00  0.00     0.218 A 
HETATM   21  C1  UNL     1      19.264   2.964  49.324  1.00  0.00     0.110 C 
HETATM   22  O2  UNL     1      18.052   1.654  51.283  1.00  0.00    -0.343 OA
HETATM   23  C16 UNL     1      23.484   1.138  51.551  1.00  0.00     0.127 C 
BRANCH  11  24
HETATM   24  O3  UNL     1      22.376   5.276  49.760  1.00  0.00    -0.394 OA
HETATM   25  H8  UNL     1      21.540   5.053  50.240  1.00  0.00     0.210 HD
ENDBRANCH  11  24
BRANCH  21  26
HETATM   26  O1  UNL     1      18.215   3.887  49.138  1.00  0.00    -0.359 OA
HETATM   27  H1  UNL     1      17.245   3.597  49.269  1.00  0.00     0.217 HD
ENDBRANCH  21  26
BRANCH  15  28
HETATM   28  O4  UNL     1      20.034   2.333  47.251  1.00  0.00    -0.384 OA
HETATM   29  H23 UNL     1      20.569   2.749  46.506  1.00  0.00     0.211 HD
ENDBRANCH  15  28
ENDBRANCH   8   9
ENDBRANCH   6   7
ENDBRANCH   4   6
ENDBRANCH   1   4
TORSDOF 7
ENDMDL
MODEL 4
REMARK VINA RESULT:      -6.5     10.660     13.191
REMARK  7 active torsions:
REMARK  status: ('A' for Active; 'I' for Inactive)
REMARK    1  A    between atoms: O1_1  and  C1_2 
REMARK    2  A    between atoms: C9_11  and  O3_12 
REMARK    3  A    between atoms: N1_14  and  C11_15 
REMARK    4  A    between atoms: C12_16  and  C13_17 
REMARK    5  A    between atoms: C13_17  and  N2_18 
REMARK    6  A    between atoms: N2_18  and  C14_19 
REMARK    7  A    between atoms: C18_24  and  O4_25 
ROOT
HETATM    1  C14 UNL     1      24.368   6.501  48.484  1.00  0.00     0.095 C 
HETATM    2  C15 UNL     1      24.079   5.223  48.717  1.00  0.00     0.234 C 
HETATM    3 CL1  UNL     1      23.617   3.575  48.998  1.00  0.00    -0.229 Cl
ENDROOT
BRANCH   1   4
HETATM    4  N2  UNL     1      25.622   7.146  48.623  1.00  0.00    -0.395 N 
HETATM    5  H15 UNL     1      25.182   8.085  48.610  1.00  0.00     0.159 HD
BRANCH   4   6
HETATM    6  C13 UNL     1      27.063   6.876  48.753  1.00  0.00     0.147 C 
BRANCH   6   7
HETATM    7  C12 UNL     1      27.719   8.179  48.810  1.00  0.00     0.009 C 
HETATM    8  C11 UNL     1      28.941   8.524  48.459  1.00  0.00     0.083 C 
BRANCH   8   9
HETATM    9  N1  UNL     1      30.079   7.812  47.907  1.00  0.00    -0.387 N 
HETATM   10  C10 UNL     1      30.882   7.144  48.857  1.00  0.00     0.154 C 
HETATM   11  C9  UNL     1      30.927   5.657  48.866  1.00  0.00     0.140 C 
HETATM   12  C8  UNL     1      31.606   5.065  47.651  1.00  0.00     0.070 C 
HETATM   13  C7  UNL     1      32.855   5.694  47.271  1.00  0.00    -0.042 C 
HETATM   14  C6  UNL     1      32.687   6.537  46.231  1.00  0.00     0.013 C 
HETATM   15  C18 UNL     1      34.219   5.622  47.747  1.00  0.00     0.206 C 
HETATM   16  C5  UNL     1      32.622   8.004  46.415  1.00  0.00    -0.045 C 
HETATM   17  C4  UNL     1      33.639   8.676  46.920  1.00  0.00     0.008 A 
HETATM   18  C17 UNL     1      31.395   8.740  46.022  1.00  0.00     0.059 C 
HETATM   19  C2  UNL     1      34.788   8.171  47.700  1.00  0.00     0.110 A 
HETATM   20  C3  UNL     1      34.134  10.071  46.995  1.00  0.00     0.218 A 
HETATM   21  C1  UNL     1      34.890   6.884  48.076  1.00  0.00     0.110 C 
HETATM   22  O2  UNL     1      35.265   9.473  47.652  1.00  0.00    -0.343 OA
HETATM   23  C16 UNL     1      30.157   7.940  46.469  1.00  0.00     0.127 C 
BRANCH  11  24
HETATM   24  O3  UNL     1      31.828   5.336  49.930  1.00  0.00    -0.394 OA
HETATM   25  H8  UNL     1      32.237   6.204  50.171  1.00  0.00     0.210 HD
ENDBRANCH  11  24
BRANCH  21  26
HETATM   26  O1  UNL     1      35.921   6.775  49.032  1.00  0.00    -0.359 OA
HETATM   27  H1  UNL     1      36.250   7.603  49.531  1.00  0.00     0.217 HD
ENDBRANCH  21  26
BRANCH  15  28
HETATM   28  O4  UNL     1      34.987   5.036  46.711  1.00  0.00    -0.384 OA
HETATM   29  H23 UNL     1      35.661   4.474  47.204  1.00  0.00     0.211 HD
ENDBRANCH  15  28
ENDBRANCH   8   9
ENDBRANCH   6   7
ENDBRANCH   4   6
ENDBRANCH   1   4
TORSDOF 7
ENDMDL
MODEL 5
REMARK VINA RESULT:      -6.5      4.561      7.201
REMARK  7 active torsions:
REMARK  status: ('A' for Active; 'I' for Inactive)
REMARK    1  A    between atoms: O1_1  and  C1_2 
REMARK    2  A    between atoms: C9_11  and  O3_12 
REMARK    3  A    between atoms: N1_14  and  C11_15 
REMARK    4  A    between atoms: C12_16  and  C13_17 
REMARK    5  A    between atoms: C13_17  and  N2_18 
REMARK    6  A    between atoms: N2_18  and  C14_19 
REMARK    7  A    between atoms: C18_24  and  O4_25 
ROOT
HETATM    1  C14 UNL     1      19.540   6.713  48.474  1.00  0.00     0.095 C 
HETATM    2  C15 UNL     1      20.334   6.978  49.507  1.00  0.00     0.234 C 
HETATM    3 CL1  UNL     1      21.368   7.410  50.832  1.00  0.00    -0.229 Cl
ENDROOT
BRANCH   1   4
HETATM    4  N2  UNL     1      19.049   5.450  48.058  1.00  0.00    -0.395 N 
HETATM    5  H15 UNL     1      18.229   5.519  48.690  1.00  0.00     0.159 HD
BRANCH   4   6
HETATM    6  C13 UNL     1      19.346   4.324  47.158  1.00  0.00     0.147 C 
BRANCH   6   7
HETATM    7  C12 UNL     1      18.742   3.143  47.769  1.00  0.00     0.009 C 
HETATM    8  C11 UNL     1      19.213   2.346  48.706  1.00  0.00     0.083 C 
BRANCH   8   9
HETATM    9  N1  UNL     1      20.443   2.297  49.476  1.00  0.00    -0.387 N 
HETATM   10  C10 UNL     1      20.404   2.990  50.704  1.00  0.00     0.154 C 
HETATM   11  C9  UNL     1      20.474   2.228  51.981  1.00  0.00     0.140 C 
HETATM   12  C8  UNL     1      21.815   1.571  52.220  1.00  0.00     0.070 C 
HETATM   13  C7  UNL     1      22.969   2.408  51.966  1.00  0.00    -0.042 C 
HETATM   14  C6  UNL     1      23.530   2.127  50.771  1.00  0.00     0.013 C 
HETATM   15  C18 UNL     1      23.646   3.460  52.692  1.00  0.00     0.206 C 
HETATM   16  C5  UNL     1      23.315   2.984  49.583  1.00  0.00    -0.045 C 
HETATM   17  C4  UNL     1      23.697   4.247  49.574  1.00  0.00     0.008 A 
HETATM   18  C17 UNL     1      22.663   2.418  48.377  1.00  0.00     0.059 C 
HETATM   19  C2  UNL     1      24.021   5.127  50.715  1.00  0.00     0.110 A 
HETATM   20  C3  UNL     1      23.967   5.328  48.596  1.00  0.00     0.218 A 
HETATM   21  C1  UNL     1      23.877   4.729  51.992  1.00  0.00     0.110 C 
HETATM   22  O2  UNL     1      24.366   6.073  49.760  1.00  0.00    -0.343 OA
HETATM   23  C16 UNL     1      21.476   1.537  48.807  1.00  0.00     0.127 C 
BRANCH  11  24
HETATM   24  O3  UNL     1      20.418   3.233  52.998  1.00  0.00    -0.394 OA
HETATM   25  H8  UNL     1      20.323   2.721  53.839  1.00  0.00     0.210 HD
ENDBRANCH  11  24
BRANCH  21  26
HETATM   26  O1  UNL     1      23.984   5.858  52.830  1.00  0.00    -0.359 OA
HETATM   27  H1  UNL     1      24.888   6.124  53.221  1.00  0.00     0.217 HD
ENDBRANCH  21  26
BRANCH  15  28
HETATM   28  O4  UNL     1      24.931   2.968  53.030  1.00  0.00    -0.384 OA
HETATM   29  H23 UNL     1      25.360   3.738  53.517  1.00  0.00     0.211 HD
ENDBRANCH  15  28
ENDBRANCH   8   9
ENDBRANCH   6   7
ENDBRANCH   4   6
ENDBRANCH   1   4
TORSDOF 7
ENDMDL
MODEL 6
REMARK VINA RESULT:      -6.4     11.621     13.563
REMARK  7 active torsions:
REMARK  status: ('A' for Active; 'I' for Inactive)
REMARK    1  A    between atoms: O1_1  and  C1_2 
REMARK    2  A    between atoms: C9_11  and  O3_12 
REMARK    3  A    between atoms: N1_14  and  C11_15 
REMARK    4  A    between atoms: C12_16  and  C13_17 
REMARK    5  A    between atoms: C13_17  and  N2_18 
REMARK    6  A    between atoms: N2_18  and  C14_19 
REMARK    7  A    between atoms: C18_24  and  O4_25 
ROOT
HETATM    1  C14 UNL     1      33.749   4.422  39.921  1.00  0.00     0.095 C 
HETATM    2  C15 UNL     1      33.784   3.095  39.826  1.00  0.00     0.234 C 
HETATM    3 CL1  UNL     1      33.889   1.374  39.636  1.00  0.00    -0.229 Cl
ENDROOT
BRANCH   1   4
HETATM    4  N2  UNL     1      32.979   5.208  40.815  1.00  0.00    -0.395 N 
HETATM    5  H15 UNL     1      32.450   5.642  40.035  1.00  0.00     0.159 HD
BRANCH   4   6
HETATM    6  C13 UNL     1      32.788   5.493  42.246  1.00  0.00     0.147 C 
BRANCH   6   7
HETATM    7  C12 UNL     1      33.814   4.732  42.955  1.00  0.00     0.009 C 
HETATM    8  C11 UNL     1      34.171   4.777  44.221  1.00  0.00     0.083 C 
BRANCH   8   9
HETATM    9  N1  UNL     1      33.736   5.544  45.374  1.00  0.00    -0.387 N 
HETATM   10  C10 UNL     1      33.003   4.813  46.333  1.00  0.00     0.154 C 
HETATM   11  C9  UNL     1      33.591   4.567  47.678  1.00  0.00     0.140 C 
HETATM   12  C8  UNL     1      33.730   5.819  48.515  1.00  0.00     0.070 C 
HETATM   13  C7  UNL     1      32.571   6.689  48.525  1.00  0.00    -0.042 C 
HETATM   14  C6  UNL     1      32.738   7.743  47.699  1.00  0.00     0.013 C 
HETATM   15  C18 UNL     1      31.297   6.684  49.210  1.00  0.00     0.206 C 
HETATM   16  C5  UNL     1      32.103   7.800  46.363  1.00  0.00    -0.045 C 
HETATM   17  C4  UNL     1      30.791   7.779  46.228  1.00  0.00     0.008 A 
HETATM   18  C17 UNL     1      32.952   7.886  45.149  1.00  0.00     0.059 C 
HETATM   19  C2  UNL     1      29.765   7.346  47.200  1.00  0.00     0.110 A 
HETATM   20  C3  UNL     1      29.763   8.108  45.212  1.00  0.00     0.218 A 
HETATM   21  C1  UNL     1      30.086   6.812  48.392  1.00  0.00     0.110 C 
HETATM   22  O2  UNL     1      28.837   7.769  46.259  1.00  0.00    -0.343 OA
HETATM   23  C16 UNL     1      34.148   6.928  45.297  1.00  0.00     0.127 C 
BRANCH  11  24
HETATM   24  O3  UNL     1      32.588   3.820  48.373  1.00  0.00    -0.394 OA
HETATM   25  H8  UNL     1      31.744   4.289  48.157  1.00  0.00     0.210 HD
ENDBRANCH  11  24
BRANCH  21  26
HETATM   26  O1  UNL     1      28.926   6.245  48.957  1.00  0.00    -0.359 OA
HETATM   27  H1  UNL     1      28.873   5.239  49.123  1.00  0.00     0.217 HD
ENDBRANCH  21  26
BRANCH  15  28
HETATM   28  O4  UNL     1      31.292   7.800  50.082  1.00  0.00    -0.384 OA
HETATM   29  H23 UNL     1      31.743   7.454  50.913  1.00  0.00     0.211 HD
ENDBRANCH  15  28
ENDBRANCH   8   9
ENDBRANCH   6   7
ENDBRANCH   4   6
ENDBRANCH   1   4
TORSDOF 7
ENDMDL
MODEL 7
REMARK VINA RESULT:      -6.4      2.773      4.323
REMARK  7 active torsions:
REMARK  status: ('A' for Active; 'I' for Inactive)
REMARK    1  A    between atoms: O1_1  and  C1_2 
REMARK    2  A    between atoms: C9_11  and  O3_12 
REMARK    3  A    between atoms: N1_14  and  C11_15 
REMARK    4  A    between atoms: C12_16  and  C13_17 
REMARK    5  A    between atoms: C13_17  and  N2_18 
REMARK    6  A    between atoms: N2_18  and  C14_19 
REMARK    7  A    between atoms: C18_24  and  O4_25 
ROOT
HETATM    1  C14 UNL     1      27.007   0.742  53.618  1.00  0.00     0.095 C 
HETATM    2  C15 UNL     1      28.160   0.083  53.690  1.00  0.00     0.234 C 
HETATM    3 CL1  UNL     1      29.698  -0.708  53.830  1.00  0.00    -0.229 Cl
ENDROOT
BRANCH   1   4
HETATM    4  N2  UNL     1      25.806   0.324  52.992  1.00  0.00    -0.395 N 
HETATM    5  H15 UNL     1      25.871   1.077  52.281  1.00  0.00     0.159 HD
BRANCH   4   6
HETATM    6  C13 UNL     1      24.736  -0.683  53.080  1.00  0.00     0.147 C 
BRANCH   6   7
HETATM    7  C12 UNL     1      23.571   0.006  53.630  1.00  0.00     0.009 C 
HETATM    8  C11 UNL     1      22.830   0.959  53.103  1.00  0.00     0.083 C 
BRANCH   8   9
HETATM    9  N1  UNL     1      22.848   1.682  51.844  1.00  0.00    -0.387 N 
HETATM   10  C10 UNL     1      23.394   2.982  51.912  1.00  0.00     0.154 C 
HETATM   11  C9  UNL     1      24.679   3.277  51.222  1.00  0.00     0.140 C 
HETATM   12  C8  UNL     1      24.579   3.233  49.713  1.00  0.00     0.070 C 
HETATM   13  C7  UNL     1      23.432   3.916  49.148  1.00  0.00    -0.042 C 
HETATM   14  C6  UNL     1      22.458   3.046  48.807  1.00  0.00     0.013 C 
HETATM   15  C18 UNL     1      23.101   5.296  48.872  1.00  0.00     0.206 C 
HETATM   16  C5  UNL     1      21.255   2.848  49.645  1.00  0.00    -0.045 C 
HETATM   17  C4  UNL     1      20.418   3.839  49.885  1.00  0.00     0.008 A 
HETATM   18  C17 UNL     1      20.976   1.511  50.227  1.00  0.00     0.059 C 
HETATM   19  C2  UNL     1      20.638   5.294  49.742  1.00  0.00     0.110 A 
HETATM   20  C3  UNL     1      19.028   4.043  50.357  1.00  0.00     0.218 A 
HETATM   21  C1  UNL     1      21.831   5.809  49.400  1.00  0.00     0.110 C 
HETATM   22  O2  UNL     1      19.299   5.428  50.084  1.00  0.00    -0.343 OA
HETATM   23  C16 UNL     1      22.287   0.906  50.760  1.00  0.00     0.127 C 
BRANCH  11  24
HETATM   24  O3  UNL     1      24.917   4.662  51.492  1.00  0.00    -0.394 OA
HETATM   25  H8  UNL     1      25.345   4.999  50.665  1.00  0.00     0.210 HD
ENDBRANCH  11  24
BRANCH  21  26
HETATM   26  O1  UNL     1      21.802   7.200  49.625  1.00  0.00    -0.359 OA
HETATM   27  H1  UNL     1      21.027   7.622  50.139  1.00  0.00     0.217 HD
ENDBRANCH  21  26
BRANCH  15  28
HETATM   28  O4  UNL     1      23.012   5.426  47.464  1.00  0.00    -0.384 OA
HETATM   29  H23 UNL     1      22.024   5.352  47.280  1.00  0.00     0.211 HD
ENDBRANCH  15  28
ENDBRANCH   8   9
ENDBRANCH   6   7
ENDBRANCH   4   6
ENDBRANCH   1   4
TORSDOF 7
ENDMDL
MODEL 8
REMARK VINA RESULT:      -6.4      4.019      4.981
REMARK  7 active torsions:
REMARK  status: ('A' for Active; 'I' for Inactive)
REMARK    1  A    between atoms: O1_1  and  C1_2 
REMARK    2  A    between atoms: C9_11  and  O3_12 
REMARK    3  A    between atoms: N1_14  and  C11_15 
REMARK    4  A    between atoms: C12_16  and  C13_17 
REMARK    5  A    between atoms: C13_17  and  N2_18 
REMARK    6  A    between atoms: N2_18  and  C14_19 
REMARK    7  A    between atoms: C18_24  and  O4_25 
ROOT
HETATM    1  C14 UNL     1      26.592   6.275  49.266  1.00  0.00     0.095 C 
HETATM    2  C15 UNL     1      25.948   7.364  49.677  1.00  0.00     0.234 C 
HETATM    3 CL1  UNL     1      25.153   8.831  50.151  1.00  0.00    -0.229 Cl
ENDROOT
BRANCH   1   4
HETATM    4  N2  UNL     1      26.469   4.954  49.766  1.00  0.00    -0.395 N 
HETATM    5  H15 UNL     1      26.666   5.263  50.736  1.00  0.00     0.159 HD
BRANCH   4   6
HETATM    6  C13 UNL     1      26.193   3.570  49.345  1.00  0.00     0.147 C 
BRANCH   6   7
HETATM    7  C12 UNL     1      26.441   2.732  50.515  1.00  0.00     0.009 C 
HETATM    8  C11 UNL     1      25.623   2.373  51.482  1.00  0.00     0.083 C 
BRANCH   8   9
HETATM    9  N1  UNL     1      24.227   2.635  51.783  1.00  0.00    -0.387 N 
HETATM   10  C10 UNL     1      23.309   2.125  50.842  1.00  0.00     0.154 C 
HETATM   11  C9  UNL     1      22.393   1.019  51.232  1.00  0.00     0.140 C 
HETATM   12  C8  UNL     1      21.353   1.427  52.253  1.00  0.00     0.070 C 
HETATM   13  C7  UNL     1      20.685   2.685  51.987  1.00  0.00    -0.042 C 
HETATM   14  C6  UNL     1      21.191   3.682  52.742  1.00  0.00     0.013 C 
HETATM   15  C18 UNL     1      19.614   3.106  51.110  1.00  0.00     0.206 C 
HETATM   16  C5  UNL     1      22.134   4.681  52.191  1.00  0.00    -0.045 C 
HETATM   17  C4  UNL     1      21.784   5.478  51.201  1.00  0.00     0.008 A 
HETATM   18  C17 UNL     1      23.499   4.795  52.761  1.00  0.00     0.059 C 
HETATM   19  C2  UNL     1      20.665   5.335  50.246  1.00  0.00     0.110 A 
HETATM   20  C3  UNL     1      22.225   6.747  50.574  1.00  0.00     0.218 A 
HETATM   21  C1  UNL     1      19.867   4.253  50.232  1.00  0.00     0.110 C 
HETATM   22  O2  UNL     1      21.050   6.578  49.762  1.00  0.00    -0.343 OA
HETATM   23  C16 UNL     1      24.065   3.385  53.010  1.00  0.00     0.127 C 
BRANCH  11  24
HETATM   24  O3  UNL     1      21.615   0.771  50.057  1.00  0.00    -0.394 OA
HETATM   25  H8  UNL     1      20.711   0.566  50.404  1.00  0.00     0.210 HD
ENDBRANCH  11  24
BRANCH  21  26
HETATM   26  O1  UNL     1      19.099   4.276  49.050  1.00  0.00    -0.359 OA
HETATM   27  H1  UNL     1      18.343   3.604  48.915  1.00  0.00     0.217 HD
ENDBRANCH  21  26
BRANCH  15  28
HETATM   28  O4  UNL     1      18.529   3.487  51.937  1.00  0.00    -0.384 OA
HETATM   29  H23 UNL     1      18.526   4.492  51.878  1.00  0.00     0.211 HD
ENDBRANCH  15  28
ENDBRANCH   8   9
ENDBRANCH   6   7
ENDBRANCH   4   6
ENDBRANCH   1   4
TORSDOF 7
ENDMDL
MODEL 9
REMARK VINA RESULT:      -6.4     11.849     13.689
REMARK  7 active torsions:
REMARK  status: ('A' for Active; 'I' for Inactive)
REMARK    1  A    between atoms: O1_1  and  C1_2 
REMARK    2  A    between atoms: C9_11  and  O3_12 
REMARK    3  A    between atoms: N1_14  and  C11_15 
REMARK    4  A    between atoms: C12_16  and  C13_17 
REMARK    5  A    between atoms: C13_17  and  N2_18 
REMARK    6  A    between atoms: N2_18  and  C14_19 
REMARK    7  A    between atoms: C18_24  and  O4_25 
ROOT
HETATM    1  C14 UNL     1      34.278   7.968  41.694  1.00  0.00     0.095 C 
HETATM    2  C15 UNL     1      35.531   8.154  42.103  1.00  0.00     0.234 C 
HETATM    3 CL1  UNL     1      37.151   8.483  42.629  1.00  0.00    -0.229 Cl
ENDROOT
BRANCH   1   4
HETATM    4  N2  UNL     1      33.605   6.738  41.490  1.00  0.00    -0.395 N 
HETATM    5  H15 UNL     1      33.914   6.691  40.501  1.00  0.00     0.159 HD
BRANCH   4   6
HETATM    6  C13 UNL     1      32.769   5.740  42.177  1.00  0.00     0.147 C 
BRANCH   6   7
HETATM    7  C12 UNL     1      33.689   4.868  42.902  1.00  0.00     0.009 C 
HETATM    8  C11 UNL     1      33.995   4.846  44.183  1.00  0.00     0.083 C 
BRANCH   8   9
HETATM    9  N1  UNL     1      33.585   5.621  45.340  1.00  0.00    -0.387 N 
HETATM   10  C10 UNL     1      32.868   4.898  46.317  1.00  0.00     0.154 C 
HETATM   11  C9  UNL     1      33.482   4.658  47.651  1.00  0.00     0.140 C 
HETATM   12  C8  UNL     1      33.641   5.915  48.479  1.00  0.00     0.070 C 
HETATM   13  C7  UNL     1      32.486   6.789  48.506  1.00  0.00    -0.042 C 
HETATM   14  C6  UNL     1      32.640   7.837  47.671  1.00  0.00     0.013 C 
HETATM   15  C18 UNL     1      31.226   6.792  49.216  1.00  0.00     0.206 C 
HETATM   16  C5  UNL     1      31.979   7.889  46.347  1.00  0.00    -0.045 C 
HETATM   17  C4  UNL     1      30.665   7.871  46.238  1.00  0.00     0.008 A 
HETATM   18  C17 UNL     1      32.805   7.965  45.116  1.00  0.00     0.059 C 
HETATM   19  C2  UNL     1      29.657   7.448  47.233  1.00  0.00     0.110 A 
HETATM   20  C3  UNL     1      29.619   8.198  45.240  1.00  0.00     0.218 A 
HETATM   21  C1  UNL     1      29.999   6.920  48.421  1.00  0.00     0.110 C 
HETATM   22  O2  UNL     1      28.712   7.869  46.307  1.00  0.00    -0.343 OA
HETATM   23  C16 UNL     1      34.001   7.003  45.246  1.00  0.00     0.127 C 
BRANCH  11  24
HETATM   24  O3  UNL     1      32.490   3.919  48.371  1.00  0.00    -0.394 OA
HETATM   25  H8  UNL     1      32.796   2.980  48.308  1.00  0.00     0.210 HD
ENDBRANCH  11  24
BRANCH  21  26
HETATM   26  O1  UNL     1      28.848   6.360  49.012  1.00  0.00    -0.359 OA
HETATM   27  H1  UNL     1      27.921   6.589  48.652  1.00  0.00     0.217 HD
ENDBRANCH  21  26
BRANCH  15  28
HETATM   28  O4  UNL     1      31.242   7.913  50.081  1.00  0.00    -0.384 OA
HETATM   29  H23 UNL     1      31.974   7.696  50.737  1.00  0.00     0.211 HD
ENDBRANCH  15  28
ENDBRANCH   8   9
ENDBRANCH   6   7
ENDBRANCH   4   6
ENDBRANCH   1   4
TORSDOF 7
ENDMDL
