MODEL 1
REMARK VINA RESULT:      -7.8      0.000      0.000
REMARK  0 active torsions:
REMARK  status: ('A' for Active; 'I' for Inactive)
ROOT
HETATM    1  C1  UNL     1      34.428   3.385  48.171  1.00  0.00     0.050 C 
HETATM    2  C2  UNL     1      34.144   3.834  46.786  1.00  0.00    -0.035 A 
HETATM    3  C3  UNL     1      35.127   3.727  45.824  1.00  0.00     0.011 A 
HETATM    4  C4  UNL     1      34.976   4.107  44.521  1.00  0.00     0.041 A 
HETATM    5  C5  UNL     1      33.744   4.627  44.200  1.00  0.00     0.172 A 
HETATM    6  C6  UNL     1      32.743   4.746  45.140  1.00  0.00     0.071 A 
HETATM    7  C7  UNL     1      32.915   4.357  46.446  1.00  0.00     0.057 A 
HETATM    8  N1  UNL     1      31.945   4.443  47.476  1.00  0.00    -0.188 N 
HETATM    9  C8  UNL     1      30.793   5.242  47.676  1.00  0.00     0.727 A 
HETATM   10  N2  UNL     1      29.646   4.715  48.141  1.00  0.00    -0.075 NA
HETATM   11  C9  UNL     1      28.543   5.459  48.337  1.00  0.00     0.139 A 
HETATM   12  C10 UNL     1      28.551   6.809  48.062  1.00  0.00     0.053 A 
HETATM   13  C11 UNL     1      29.719   7.363  47.584  1.00  0.00     0.094 A 
HETATM   14  N3  UNL     1      30.808   6.556  47.406  1.00  0.00    -0.061 NA
HETATM   15  C12 UNL     1      30.129   8.723  47.176  1.00  0.00     0.142 C 
HETATM   16  N4  UNL     1      31.110   9.246  47.802  1.00  0.00    -0.298 NA
HETATM   17  C13 UNL     1      31.531  10.589  47.407  1.00  0.00     0.168 C 
HETATM   18  C14 UNL     1      31.867  10.597  45.920  1.00  0.00     0.105 C 
HETATM   19 CL1  UNL     1      32.505  12.154  45.426  1.00  0.00    -0.123 Cl
HETATM   20  C15 UNL     1      32.635   9.401  45.514  1.00  0.00     0.048 C 
HETATM   21  C16 UNL     1      33.009   9.312  44.080  1.00  0.00    -0.029 C 
HETATM   22  C17 UNL     1      32.585   8.329  43.247  1.00  0.00    -0.026 C 
HETATM   23  C18 UNL     1      32.492   7.612  41.944  1.00  0.00     0.107 C 
HETATM   24  C19 UNL     1      32.971   6.220  42.158  1.00  0.00     0.360 A 
HETATM   25  O1  UNL     1      33.098   6.341  43.424  1.00  0.00    -0.145 OA
HETATM   26  N5  UNL     1      33.431   5.078  42.861  1.00  0.00     0.118 N 
HETATM   27  H7  UNL     1      32.053   3.794  48.300  1.00  0.00     0.184 HD
HETATM   28  H20 UNL     1      33.616   4.282  42.178  1.00  0.00     0.329 HD
ENDROOT
TORSDOF 0
ENDMDL
MODEL 2
REMARK VINA RESULT:      -7.7      1.842      5.456
REMARK  0 active torsions:
REMARK  status: ('A' for Active; 'I' for Inactive)
ROOT
HETATM    1  C1  UNL     1      28.560   5.200  48.324  1.00  0.00     0.050 C 
HETATM    2  C2  UNL     1      29.386   6.422  48.177  1.00  0.00    -0.035 A 
HETATM    3  C3  UNL     1      28.784   7.661  48.258  1.00  0.00     0.011 A 
HETATM    4  C4  UNL     1      29.445   8.850  48.139  1.00  0.00     0.041 A 
HETATM    5  C5  UNL     1      30.800   8.750  47.922  1.00  0.00     0.172 A 
HETATM    6  C6  UNL     1      31.428   7.526  47.837  1.00  0.00     0.071 A 
HETATM    7  C7  UNL     1      30.745   6.341  47.959  1.00  0.00     0.057 A 
HETATM    8  N1  UNL     1      31.308   5.043  47.884  1.00  0.00    -0.188 N 
HETATM    9  C8  UNL     1      32.482   4.513  47.295  1.00  0.00     0.727 A 
HETATM   10  N2  UNL     1      33.250   3.618  47.941  1.00  0.00    -0.075 NA
HETATM   11  C9  UNL     1      34.366   3.106  47.396  1.00  0.00     0.139 A 
HETATM   12  C10 UNL     1      34.769   3.488  46.135  1.00  0.00     0.053 A 
HETATM   13  C11 UNL     1      33.992   4.404  45.460  1.00  0.00     0.094 A 
HETATM   14  N3  UNL     1      32.867   4.889  46.066  1.00  0.00    -0.061 NA
HETATM   15  C12 UNL     1      34.075   5.056  44.136  1.00  0.00     0.142 C 
HETATM   16  N4  UNL     1      33.094   4.879  43.339  1.00  0.00    -0.298 NA
HETATM   17  C13 UNL     1      33.157   5.520  42.027  1.00  0.00     0.168 C 
HETATM   18  C14 UNL     1      33.348   7.022  42.209  1.00  0.00     0.105 C 
HETATM   19 CL1  UNL     1      33.297   7.854  40.665  1.00  0.00    -0.123 Cl
HETATM   20  C15 UNL     1      32.500   7.567  43.289  1.00  0.00     0.048 C 
HETATM   21  C16 UNL     1      32.615   9.025  43.548  1.00  0.00    -0.029 C 
HETATM   22  C17 UNL     1      33.047   9.554  44.719  1.00  0.00    -0.026 C 
HETATM   23  C18 UNL     1      33.398  10.663  45.652  1.00  0.00     0.107 C 
HETATM   24  C19 UNL     1      32.561  10.510  46.871  1.00  0.00     0.360 A 
HETATM   25  O1  UNL     1      32.052   9.392  46.517  1.00  0.00    -0.145 OA
HETATM   26  N5  UNL     1      31.637   9.920  47.771  1.00  0.00     0.118 N 
HETATM   27  H7  UNL     1      30.782   4.258  48.353  1.00  0.00     0.184 HD
HETATM   28  H20 UNL     1      31.509  10.547  48.622  1.00  0.00     0.329 HD
ENDROOT
TORSDOF 0
ENDMDL
MODEL 3
REMARK VINA RESULT:      -7.6      9.849     12.262
REMARK  0 active torsions:
REMARK  status: ('A' for Active; 'I' for Inactive)
ROOT
HETATM    1  C1  UNL     1      26.721   2.285  51.525  1.00  0.00     0.050 C 
HETATM    2  C2  UNL     1      25.312   2.061  51.928  1.00  0.00    -0.035 A 
HETATM    3  C3  UNL     1      24.915   0.804  52.334  1.00  0.00     0.011 A 
HETATM    4  C4  UNL     1      23.646   0.484  52.726  1.00  0.00     0.041 A 
HETATM    5  C5  UNL     1      22.743   1.520  52.694  1.00  0.00     0.172 A 
HETATM    6  C6  UNL     1      23.111   2.787  52.294  1.00  0.00     0.071 A 
HETATM    7  C7  UNL     1      24.393   3.088  51.903  1.00  0.00     0.057 A 
HETATM    8  N1  UNL     1      24.858   4.357  51.477  1.00  0.00    -0.188 N 
HETATM    9  C8  UNL     1      24.229   5.501  50.927  1.00  0.00     0.727 A 
HETATM   10  N2  UNL     1      24.543   6.741  51.339  1.00  0.00    -0.075 NA
HETATM   11  C9  UNL     1      23.955   7.837  50.827  1.00  0.00     0.139 A 
HETATM   12  C10 UNL     1      22.994   7.722  49.846  1.00  0.00     0.053 A 
HETATM   13  C11 UNL     1      22.661   6.457  49.414  1.00  0.00     0.094 A 
HETATM   14  N3  UNL     1      23.294   5.381  49.972  1.00  0.00    -0.061 NA
HETATM   15  C12 UNL     1      21.711   5.920  48.418  1.00  0.00     0.142 C 
HETATM   16  N4  UNL     1      22.197   5.216  47.471  1.00  0.00    -0.298 NA
HETATM   17  C13 UNL     1      21.270   4.674  46.480  1.00  0.00     0.168 C 
HETATM   18  C14 UNL     1      20.209   3.836  47.187  1.00  0.00     0.105 C 
HETATM   19 CL1  UNL     1      19.150   3.054  46.028  1.00  0.00    -0.123 Cl
HETATM   20  C15 UNL     1      20.785   2.984  48.247  1.00  0.00     0.048 C 
HETATM   21  C16 UNL     1      19.831   2.130  48.999  1.00  0.00    -0.029 C 
HETATM   22  C17 UNL     1      19.604   2.242  50.332  1.00  0.00    -0.026 C 
HETATM   23  C18 UNL     1      18.962   1.877  51.627  1.00  0.00     0.107 C 
HETATM   24  C19 UNL     1      20.043   1.514  52.581  1.00  0.00     0.360 A 
HETATM   25  O1  UNL     1      20.997   1.840  51.796  1.00  0.00    -0.145 OA
HETATM   26  N5  UNL     1      21.360   1.339  53.078  1.00  0.00     0.118 N 
HETATM   27  H7  UNL     1      25.891   4.551  51.567  1.00  0.00     0.184 HD
HETATM   28  H20 UNL     1      21.325   0.932  54.061  1.00  0.00     0.329 HD
ENDROOT
TORSDOF 0
ENDMDL
MODEL 4
REMARK VINA RESULT:      -7.6      9.512     12.989
REMARK  0 active torsions:
REMARK  status: ('A' for Active; 'I' for Inactive)
ROOT
HETATM    1  C1  UNL     1      26.793   2.857  49.724  1.00  0.00     0.050 C 
HETATM    2  C2  UNL     1      26.053   2.235  50.848  1.00  0.00    -0.035 A 
HETATM    3  C3  UNL     1      26.435   0.991  51.306  1.00  0.00     0.011 A 
HETATM    4  C4  UNL     1      25.828   0.326  52.332  1.00  0.00     0.041 A 
HETATM    5  C5  UNL     1      24.769   0.983  52.913  1.00  0.00     0.172 A 
HETATM    6  C6  UNL     1      24.365   2.227  52.478  1.00  0.00     0.071 A 
HETATM    7  C7  UNL     1      24.989   2.880  51.443  1.00  0.00     0.057 A 
HETATM    8  N1  UNL     1      24.641   4.155  50.931  1.00  0.00    -0.188 N 
HETATM    9  C8  UNL     1      23.455   4.928  50.941  1.00  0.00     0.727 A 
HETATM   10  N2  UNL     1      23.479   6.248  51.194  1.00  0.00    -0.075 NA
HETATM   11  C9  UNL     1      22.362   6.996  51.207  1.00  0.00     0.139 A 
HETATM   12  C10 UNL     1      21.133   6.424  50.959  1.00  0.00     0.053 A 
HETATM   13  C11 UNL     1      21.092   5.071  50.698  1.00  0.00     0.094 A 
HETATM   14  N3  UNL     1      22.262   4.364  50.698  1.00  0.00    -0.061 NA
HETATM   15  C12 UNL     1      20.014   4.108  50.397  1.00  0.00     0.142 C 
HETATM   16  N4  UNL     1      20.090   3.477  49.289  1.00  0.00    -0.298 NA
HETATM   17  C13 UNL     1      19.033   2.517  48.978  1.00  0.00     0.168 C 
HETATM   18  C14 UNL     1      18.943   1.485  50.098  1.00  0.00     0.105 C 
HETATM   19 CL1  UNL     1      17.779   0.233  49.707  1.00  0.00    -0.123 Cl
HETATM   20  C15 UNL     1      20.275   1.040  50.557  1.00  0.00     0.048 C 
HETATM   21  C16 UNL     1      20.296   0.035  51.650  1.00  0.00    -0.029 C 
HETATM   22  C17 UNL     1      20.841   0.258  52.871  1.00  0.00    -0.026 C 
HETATM   23  C18 UNL     1      21.227  -0.108  54.265  1.00  0.00     0.107 C 
HETATM   24  C19 UNL     1      22.700   0.056  54.384  1.00  0.00     0.360 A 
HETATM   25  O1  UNL     1      22.849   0.564  53.221  1.00  0.00    -0.145 OA
HETATM   26  N5  UNL     1      24.022   0.408  54.010  1.00  0.00     0.118 N 
HETATM   27  H7  UNL     1      25.392   4.694  50.422  1.00  0.00     0.184 HD
HETATM   28  H20 UNL     1      24.698   0.161  54.796  1.00  0.00     0.329 HD
ENDROOT
TORSDOF 0
ENDMDL
MODEL 5
REMARK VINA RESULT:      -7.2      6.837     10.060
REMARK  0 active torsions:
REMARK  status: ('A' for Active; 'I' for Inactive)
ROOT
HETATM    1  C1  UNL     1      28.260   6.606  47.904  1.00  0.00     0.050 C 
HETATM    2  C2  UNL     1      27.178   5.793  48.508  1.00  0.00    -0.035 A 
HETATM    3  C3  UNL     1      27.446   4.502  48.914  1.00  0.00     0.011 A 
HETATM    4  C4  UNL     1      26.528   3.665  49.482  1.00  0.00     0.041 A 
HETATM    5  C5  UNL     1      25.267   4.193  49.635  1.00  0.00     0.172 A 
HETATM    6  C6  UNL     1      24.971   5.479  49.239  1.00  0.00     0.071 A 
HETATM    7  C7  UNL     1      25.908   6.306  48.670  1.00  0.00     0.057 A 
HETATM    8  N1  UNL     1      25.691   7.636  48.234  1.00  0.00    -0.188 N 
HETATM    9  C8  UNL     1      24.544   8.366  47.837  1.00  0.00     0.727 A 
HETATM   10  N2  UNL     1      24.338   9.629  48.250  1.00  0.00    -0.075 NA
HETATM   11  C9  UNL     1      23.255  10.336  47.883  1.00  0.00     0.139 A 
HETATM   12  C10 UNL     1      22.303   9.779  47.057  1.00  0.00     0.053 A 
HETATM   13  C11 UNL     1      22.500   8.485  46.626  1.00  0.00     0.094 A 
HETATM   14  N3  UNL     1      23.621   7.817  47.033  1.00  0.00    -0.061 NA
HETATM   15  C12 UNL     1      21.741   7.554  45.766  1.00  0.00     0.142 C 
HETATM   16  N4  UNL     1      22.332   7.111  44.725  1.00  0.00    -0.298 NA
HETATM   17  C13 UNL     1      21.597   6.185  43.865  1.00  0.00     0.168 C 
HETATM   18  C14 UNL     1      21.141   4.986  44.689  1.00  0.00     0.105 C 
HETATM   19 CL1  UNL     1      20.369   3.782  43.674  1.00  0.00    -0.123 Cl
HETATM   20  C15 UNL     1      22.193   4.508  45.611  1.00  0.00     0.048 C 
HETATM   21  C16 UNL     1      21.845   3.342  46.462  1.00  0.00    -0.029 C 
HETATM   22  C17 UNL     1      21.805   3.380  47.817  1.00  0.00    -0.026 C 
HETATM   23  C18 UNL     1      21.602   2.807  49.178  1.00  0.00     0.107 C 
HETATM   24  C19 UNL     1      22.867   2.988  49.938  1.00  0.00     0.360 A 
HETATM   25  O1  UNL     1      23.443   3.680  49.031  1.00  0.00    -0.145 OA
HETATM   26  N5  UNL     1      24.185   3.429  50.218  1.00  0.00     0.118 N 
HETATM   27  H7  UNL     1      26.533   8.270  48.172  1.00  0.00     0.184 HD
HETATM   28  H20 UNL     1      24.489   3.078  51.177  1.00  0.00     0.329 HD
ENDROOT
TORSDOF 0
ENDMDL
MODEL 6
REMARK VINA RESULT:      -7.1      9.440     11.421
REMARK  0 active torsions:
REMARK  status: ('A' for Active; 'I' for Inactive)
ROOT
HETATM    1  C1  UNL     1      21.542   0.834  49.068  1.00  0.00     0.050 C 
HETATM    2  C2  UNL     1      22.451   1.954  49.410  1.00  0.00    -0.035 A 
HETATM    3  C3  UNL     1      23.101   1.953  50.627  1.00  0.00     0.011 A 
HETATM    4  C4  UNL     1      23.959   2.930  51.045  1.00  0.00     0.041 A 
HETATM    5  C5  UNL     1      24.151   3.962  50.157  1.00  0.00     0.172 A 
HETATM    6  C6  UNL     1      23.516   3.990  48.934  1.00  0.00     0.071 A 
HETATM    7  C7  UNL     1      22.656   2.997  48.532  1.00  0.00     0.057 A 
HETATM    8  N1  UNL     1      21.961   2.946  47.298  1.00  0.00    -0.188 N 
HETATM    9  C8  UNL     1      21.562   3.922  46.353  1.00  0.00     0.727 A 
HETATM   10  N2  UNL     1      21.700   3.718  45.031  1.00  0.00    -0.075 NA
HETATM   11  C9  UNL     1      21.327   4.633  44.121  1.00  0.00     0.139 A 
HETATM   12  C10 UNL     1      20.781   5.834  44.520  1.00  0.00     0.053 A 
HETATM   13  C11 UNL     1      20.633   6.058  45.872  1.00  0.00     0.094 A 
HETATM   14  N3  UNL     1      21.031   5.089  46.749  1.00  0.00    -0.061 NA
HETATM   15  C12 UNL     1      20.113   7.178  46.684  1.00  0.00     0.142 C 
HETATM   16  N4  UNL     1      19.132   6.925  47.461  1.00  0.00    -0.298 NA
HETATM   17  C13 UNL     1      18.608   8.020  48.275  1.00  0.00     0.168 C 
HETATM   18  C14 UNL     1      19.735   8.604  49.120  1.00  0.00     0.105 C 
HETATM   19 CL1  UNL     1      19.129   9.834  50.214  1.00  0.00    -0.123 Cl
HETATM   20  C15 UNL     1      20.596   7.555  49.705  1.00  0.00     0.048 C 
HETATM   21  C16 UNL     1      21.727   8.022  50.546  1.00  0.00    -0.029 C 
HETATM   22  C17 UNL     1      23.032   7.796  50.251  1.00  0.00    -0.026 C 
HETATM   23  C18 UNL     1      24.502   7.878  50.484  1.00  0.00     0.107 C 
HETATM   24  C19 UNL     1      25.030   6.489  50.541  1.00  0.00     0.360 A 
HETATM   25  O1  UNL     1      23.922   5.937  50.222  1.00  0.00    -0.145 OA
HETATM   26  N5  UNL     1      25.028   5.074  50.456  1.00  0.00     0.118 N 
HETATM   27  H7  UNL     1      21.648   1.998  46.957  1.00  0.00     0.184 HD
HETATM   28  H20 UNL     1      25.993   4.695  50.699  1.00  0.00     0.329 HD
ENDROOT
TORSDOF 0
ENDMDL
MODEL 7
REMARK VINA RESULT:      -7.1      2.645      6.834
REMARK  0 active torsions:
REMARK  status: ('A' for Active; 'I' for Inactive)
ROOT
HETATM    1  C1  UNL     1      33.467  11.413  44.674  1.00  0.00     0.050 C 
HETATM    2  C2  UNL     1      32.419  10.616  45.355  1.00  0.00    -0.035 A 
HETATM    3  C3  UNL     1      31.921  11.046  46.568  1.00  0.00     0.011 A 
HETATM    4  C4  UNL     1      30.956  10.393  47.282  1.00  0.00     0.041 A 
HETATM    5  C5  UNL     1      30.485   9.235  46.710  1.00  0.00     0.172 A 
HETATM    6  C6  UNL     1      30.963   8.781  45.499  1.00  0.00     0.071 A 
HETATM    7  C7  UNL     1      31.934   9.452  44.796  1.00  0.00     0.057 A 
HETATM    8  N1  UNL     1      32.483   9.060  43.550  1.00  0.00    -0.188 N 
HETATM    9  C8  UNL     1      32.594   7.822  42.871  1.00  0.00     0.727 A 
HETATM   10  N2  UNL     1      32.345   7.720  41.554  1.00  0.00    -0.075 NA
HETATM   11  C9  UNL     1      32.445   6.553  40.893  1.00  0.00     0.139 A 
HETATM   12  C10 UNL     1      32.811   5.402  41.558  1.00  0.00     0.053 A 
HETATM   13  C11 UNL     1      33.069   5.491  42.908  1.00  0.00     0.094 A 
HETATM   14  N3  UNL     1      32.951   6.706  43.524  1.00  0.00    -0.061 NA
HETATM   15  C12 UNL     1      33.471   4.525  43.951  1.00  0.00     0.142 C 
HETATM   16  N4  UNL     1      34.563   4.758  44.570  1.00  0.00    -0.298 NA
HETATM   17  C13 UNL     1      34.973   3.814  45.608  1.00  0.00     0.168 C 
HETATM   18  C14 UNL     1      33.863   3.693  46.647  1.00  0.00     0.105 C 
HETATM   19 CL1  UNL     1      34.361   2.673  47.984  1.00  0.00    -0.123 Cl
HETATM   20  C15 UNL     1      33.273   5.004  46.990  1.00  0.00     0.048 C 
HETATM   21  C16 UNL     1      32.180   4.994  47.994  1.00  0.00    -0.029 C 
HETATM   22  C17 UNL     1      30.911   5.397  47.734  1.00  0.00    -0.026 C 
HETATM   23  C18 UNL     1      29.485   5.670  48.074  1.00  0.00     0.107 C 
HETATM   24  C19 UNL     1      29.222   7.108  47.798  1.00  0.00     0.360 A 
HETATM   25  O1  UNL     1      30.367   7.332  47.276  1.00  0.00    -0.145 OA
HETATM   26  N5  UNL     1      29.465   8.430  47.345  1.00  0.00     0.118 N 
HETATM   27  H7  UNL     1      32.918   9.813  42.953  1.00  0.00     0.184 HD
HETATM   28  H20 UNL     1      28.616   9.042  47.541  1.00  0.00     0.329 HD
ENDROOT
TORSDOF 0
ENDMDL
MODEL 8
REMARK VINA RESULT:      -7.0      7.023     10.010
REMARK  0 active torsions:
REMARK  status: ('A' for Active; 'I' for Inactive)
ROOT
HETATM    1  C1  UNL     1      21.108   2.878  52.316  1.00  0.00     0.050 C 
HETATM    2  C2  UNL     1      22.465   2.934  51.722  1.00  0.00    -0.035 A 
HETATM    3  C3  UNL     1      23.568   2.768  52.534  1.00  0.00     0.011 A 
HETATM    4  C4  UNL     1      24.862   2.801  52.096  1.00  0.00     0.041 A 
HETATM    5  C5  UNL     1      25.019   3.018  50.747  1.00  0.00     0.172 A 
HETATM    6  C6  UNL     1      23.936   3.186  49.911  1.00  0.00     0.071 A 
HETATM    7  C7  UNL     1      22.642   3.151  50.372  1.00  0.00     0.057 A 
HETATM    8  N1  UNL     1      21.474   3.315  49.587  1.00  0.00    -0.188 N 
HETATM    9  C8  UNL     1      21.204   3.935  48.343  1.00  0.00     0.727 A 
HETATM   10  N2  UNL     1      20.417   3.349  47.423  1.00  0.00    -0.075 NA
HETATM   11  C9  UNL     1      20.151   3.924  46.237  1.00  0.00     0.139 A 
HETATM   12  C10 UNL     1      20.687   5.153  45.919  1.00  0.00     0.053 A 
HETATM   13  C11 UNL     1      21.496   5.765  46.852  1.00  0.00     0.094 A 
HETATM   14  N3  UNL     1      21.729   5.132  48.040  1.00  0.00    -0.061 NA
HETATM   15  C12 UNL     1      22.242   7.039  46.897  1.00  0.00     0.142 C 
HETATM   16  N4  UNL     1      21.950   7.851  47.838  1.00  0.00    -0.298 NA
HETATM   17  C13 UNL     1      22.683   9.114  47.899  1.00  0.00     0.168 C 
HETATM   18  C14 UNL     1      24.179   8.827  47.978  1.00  0.00     0.105 C 
HETATM   19 CL1  UNL     1      25.094  10.308  48.188  1.00  0.00    -0.123 Cl
HETATM   20  C15 UNL     1      24.486   7.714  48.900  1.00  0.00     0.048 C 
HETATM   21  C16 UNL     1      25.919   7.353  49.045  1.00  0.00    -0.029 C 
HETATM   22  C17 UNL     1      26.433   6.145  48.704  1.00  0.00    -0.026 C 
HETATM   23  C18 UNL     1      27.519   5.136  48.549  1.00  0.00     0.107 C 
HETATM   24  C19 UNL     1      27.135   3.934  49.336  1.00  0.00     0.360 A 
HETATM   25  O1  UNL     1      25.972   4.368  49.640  1.00  0.00    -0.145 OA
HETATM   26  N5  UNL     1      26.327   3.082  50.132  1.00  0.00     0.118 N 
HETATM   27  H7  UNL     1      20.577   2.904  49.962  1.00  0.00     0.184 HD
HETATM   28  H20 UNL     1      26.860   2.189  50.363  1.00  0.00     0.329 HD
ENDROOT
TORSDOF 0
ENDMDL
MODEL 9
REMARK VINA RESULT:      -6.9      6.001      9.083
REMARK  0 active torsions:
REMARK  status: ('A' for Active; 'I' for Inactive)
ROOT
HETATM    1  C1  UNL     1      29.338   6.673  47.636  1.00  0.00     0.050 C 
HETATM    2  C2  UNL     1      28.081   6.193  48.259  1.00  0.00    -0.035 A 
HETATM    3  C3  UNL     1      27.948   4.856  48.574  1.00  0.00     0.011 A 
HETATM    4  C4  UNL     1      26.838   4.305  49.149  1.00  0.00     0.041 A 
HETATM    5  C5  UNL     1      25.814   5.185  49.410  1.00  0.00     0.172 A 
HETATM    6  C6  UNL     1      25.919   6.526  49.107  1.00  0.00     0.071 A 
HETATM    7  C7  UNL     1      27.044   7.060  48.528  1.00  0.00     0.057 A 
HETATM    8  N1  UNL     1      27.237   8.421  48.183  1.00  0.00    -0.188 N 
HETATM    9  C8  UNL     1      26.362   9.497  47.900  1.00  0.00     0.727 A 
HETATM   10  N2  UNL     1      26.578  10.728  48.396  1.00  0.00    -0.075 NA
HETATM   11  C9  UNL     1      25.757  11.760  48.138  1.00  0.00     0.139 A 
HETATM   12  C10 UNL     1      24.645  11.588  47.342  1.00  0.00     0.053 A 
HETATM   13  C11 UNL     1      24.409  10.332  46.827  1.00  0.00     0.094 A 
HETATM   14  N3  UNL     1      25.281   9.322  47.125  1.00  0.00    -0.061 NA
HETATM   15  C12 UNL     1      23.362   9.748  45.964  1.00  0.00     0.142 C 
HETATM   16  N4  UNL     1      23.742   9.221  44.865  1.00  0.00    -0.298 NA
HETATM   17  C13 UNL     1      22.719   8.635  44.001  1.00  0.00     0.168 C 
HETATM   18  C14 UNL     1      21.944   7.578  44.782  1.00  0.00     0.105 C 
HETATM   19 CL1  UNL     1      20.793   6.751  43.749  1.00  0.00    -0.123 Cl
HETATM   20  C15 UNL     1      22.830   6.732  45.608  1.00  0.00     0.048 C 
HETATM   21  C16 UNL     1      22.171   5.672  46.411  1.00  0.00    -0.029 C 
HETATM   22  C17 UNL     1      22.200   5.621  47.766  1.00  0.00    -0.026 C 
HETATM   23  C18 UNL     1      21.883   5.040  49.102  1.00  0.00     0.107 C 
HETATM   24  C19 UNL     1      23.172   4.764  49.791  1.00  0.00     0.360 A 
HETATM   25  O1  UNL     1      23.898   5.308  48.891  1.00  0.00    -0.145 OA
HETATM   26  N5  UNL     1      24.573   4.753  50.014  1.00  0.00     0.118 N 
HETATM   27  H7  UNL     1      28.232   8.765  48.106  1.00  0.00     0.184 HD
HETATM   28  H20 UNL     1      24.790   4.256  50.930  1.00  0.00     0.329 HD
ENDROOT
TORSDOF 0
ENDMDL
