MODEL 1
REMARK VINA RESULT:      -9.0      0.000      0.000
REMARK  3 active torsions:
REMARK  status: ('A' for Active; 'I' for Inactive)
REMARK    1  A    between atoms: C2_2  and  C3_3 
REMARK    2  A    between atoms: C8_10  and  C9_11 
REMARK    3  A    between atoms: C16_19  and  O2_20 
ROOT
HETATM    1  C9  UNL     1      24.085   0.889  52.755  1.00  0.00    -0.012 C 
HETATM    2  C10 UNL     1      22.836   1.003  52.211  1.00  0.00    -0.046 C 
HETATM    3  C11 UNL     1      22.521   1.116  50.718  1.00  0.00     0.063 C 
HETATM    4  C12 UNL     1      21.214   0.442  50.410  1.00  0.00    -0.024 C 
HETATM    5  C13 UNL     1      20.030   0.899  49.917  1.00  0.00    -0.005 C 
HETATM    6  C14 UNL     1      19.259   2.115  49.387  1.00  0.00     0.196 C 
HETATM    7  O1  UNL     1      18.193   2.193  50.528  1.00  0.00    -0.371 OA
HETATM    8  C15 UNL     1      19.176   1.875  51.646  1.00  0.00     0.126 A 
HETATM    9  C16 UNL     1      20.162   2.766  51.637  1.00  0.00     0.127 A 
HETATM   10  C18 UNL     1      21.323   2.918  52.281  1.00  0.00     0.009 A 
HETATM   11  C19 UNL     1      20.652   1.860  52.623  1.00  0.00     0.095 A 
HETATM   12  C20 UNL     1      21.518   0.872  53.063  1.00  0.00     0.126 A 
HETATM   13  N2  UNL     1      21.845  -0.331  53.554  1.00  0.00    -0.264 NA
HETATM   14  C21 UNL     1      20.812  -1.234  53.828  1.00  0.00     0.223 A 
HETATM   15  N3  UNL     1      19.836  -0.423  53.414  1.00  0.00    -0.267 NA
HETATM   16  C22 UNL     1      19.918   0.748  52.963  1.00  0.00     0.117 A 
HETATM   17  C23 UNL     1      18.727   0.750  52.207  1.00  0.00     0.036 A 
HETATM   18  C24 UNL     1      17.482  -0.004  52.026  1.00  0.00     0.022 C 
ENDROOT
BRANCH   1  19
HETATM   19  C8  UNL     1      25.455   0.810  52.497  1.00  0.00     0.070 A 
HETATM   20  C5  UNL     1      26.358   1.889  52.062  1.00  0.00     0.125 A 
HETATM   21  N1  UNL     1      27.506   1.193  51.935  1.00  0.00    -0.270 NA
HETATM   22  S1  UNL     1      24.937   3.016  52.198  1.00  0.00    -0.126 SA
HETATM   23  C7  UNL     1      26.220   1.589  53.768  1.00  0.00     0.065 A 
HETATM   24  C4  UNL     1      27.570   0.817  53.555  1.00  0.00     0.041 A 
HETATM   25  C3  UNL     1      28.141   0.327  54.722  1.00  0.00     0.006 C 
HETATM   26  C6  UNL     1      25.239   2.469  54.163  1.00  0.00     0.083 A 
BRANCH  25  27
HETATM   27  C2  UNL     1      29.258   0.045  53.903  1.00  0.00     0.036 C 
HETATM   28  C1  UNL     1      30.133  -0.811  53.487  1.00  0.00    -0.008 C 
ENDBRANCH  25  27
ENDBRANCH   1  19
BRANCH   9  29
HETATM   29  O2  UNL     1      20.289   3.910  50.916  1.00  0.00    -0.377 OA
HETATM   30  C17 UNL     1      21.258   4.891  50.933  1.00  0.00     0.203 C 
ENDBRANCH   9  29
TORSDOF 3
ENDMDL
MODEL 2
REMARK VINA RESULT:      -8.9      3.819      5.426
REMARK  3 active torsions:
REMARK  status: ('A' for Active; 'I' for Inactive)
REMARK    1  A    between atoms: C2_2  and  C3_3 
REMARK    2  A    between atoms: C8_10  and  C9_11 
REMARK    3  A    between atoms: C16_19  and  O2_20 
ROOT
HETATM    1  C9  UNL     1      24.127   4.638  50.057  1.00  0.00    -0.012 C 
HETATM    2  C10 UNL     1      23.377   3.586  50.502  1.00  0.00    -0.046 C 
HETATM    3  C11 UNL     1      22.303   2.852  49.694  1.00  0.00     0.063 C 
HETATM    4  C12 UNL     1      22.271   1.399  50.074  1.00  0.00    -0.024 C 
HETATM    5  C13 UNL     1      21.313   0.607  50.629  1.00  0.00    -0.005 C 
HETATM    6  C14 UNL     1      19.874   0.535  51.158  1.00  0.00     0.196 C 
HETATM    7  O1  UNL     1      20.222   0.236  52.652  1.00  0.00    -0.371 OA
HETATM    8  C15 UNL     1      21.400   1.197  52.706  1.00  0.00     0.126 A 
HETATM    9  C16 UNL     1      20.992   2.420  52.383  1.00  0.00     0.127 A 
HETATM   10  C18 UNL     1      21.579   3.598  52.154  1.00  0.00     0.009 A 
HETATM   11  C19 UNL     1      22.400   2.637  52.456  1.00  0.00     0.095 A 
HETATM   12  C20 UNL     1      23.638   2.874  51.882  1.00  0.00     0.126 A 
HETATM   13  N2  UNL     1      24.924   2.615  51.610  1.00  0.00    -0.264 NA
HETATM   14  C21 UNL     1      25.489   1.452  52.145  1.00  0.00     0.223 A 
HETATM   15  N3  UNL     1      24.370   1.044  52.746  1.00  0.00    -0.267 NA
HETATM   16  C22 UNL     1      23.241   1.599  52.777  1.00  0.00     0.117 A 
HETATM   17  C23 UNL     1      22.463   0.443  53.000  1.00  0.00     0.036 A 
HETATM   18  C24 UNL     1      22.584  -0.962  53.400  1.00  0.00     0.022 C 
ENDROOT
BRANCH   1  19
HETATM   19  C8  UNL     1      24.397   5.495  48.987  1.00  0.00     0.070 A 
HETATM   20  C5  UNL     1      23.815   6.821  48.720  1.00  0.00     0.125 A 
HETATM   21  N1  UNL     1      24.417   7.106  47.547  1.00  0.00    -0.270 NA
HETATM   22  S1  UNL     1      22.924   6.653  50.297  1.00  0.00    -0.126 SA
HETATM   23  C7  UNL     1      25.305   6.757  49.611  1.00  0.00     0.065 A 
HETATM   24  C4  UNL     1      25.939   7.117  48.221  1.00  0.00     0.041 A 
HETATM   25  C3  UNL     1      27.309   7.332  48.253  1.00  0.00     0.006 C 
HETATM   26  C6  UNL     1      24.887   6.756  50.922  1.00  0.00     0.083 A 
BRANCH  25  27
HETATM   27  C2  UNL     1      27.138   7.790  46.927  1.00  0.00     0.036 C 
HETATM   28  C1  UNL     1      27.523   8.570  45.971  1.00  0.00    -0.008 C 
ENDBRANCH  25  27
ENDBRANCH   1  19
BRANCH   9  29
HETATM   29  O2  UNL     1      19.732   2.889  52.187  1.00  0.00    -0.377 OA
HETATM   30  C17 UNL     1      19.266   3.962  51.459  1.00  0.00     0.203 C 
ENDBRANCH   9  29
TORSDOF 3
ENDMDL
MODEL 3
REMARK VINA RESULT:      -8.7      3.094      8.089
REMARK  3 active torsions:
REMARK  status: ('A' for Active; 'I' for Inactive)
REMARK    1  A    between atoms: C2_2  and  C3_3 
REMARK    2  A    between atoms: C8_10  and  C9_11 
REMARK    3  A    between atoms: C16_19  and  O2_20 
ROOT
HETATM    1  C9  UNL     1      17.889   0.981  51.406  1.00  0.00    -0.012 C 
HETATM    2  C10 UNL     1      19.208   1.317  51.523  1.00  0.00    -0.046 C 
HETATM    3  C11 UNL     1      19.766   2.742  51.553  1.00  0.00     0.063 C 
HETATM    4  C12 UNL     1      20.977   2.806  52.440  1.00  0.00    -0.024 C 
HETATM    5  C13 UNL     1      22.282   3.115  52.206  1.00  0.00    -0.005 C 
HETATM    6  C14 UNL     1      23.316   3.554  51.161  1.00  0.00     0.196 C 
HETATM    7  O1  UNL     1      24.189   2.257  51.180  1.00  0.00    -0.371 OA
HETATM    8  C15 UNL     1      23.004   1.306  51.270  1.00  0.00     0.126 A 
HETATM    9  C16 UNL     1      22.192   1.508  50.238  1.00  0.00     0.127 A 
HETATM   10  C18 UNL     1      20.985   1.069  49.866  1.00  0.00     0.009 A 
HETATM   11  C19 UNL     1      21.412   0.583  50.993  1.00  0.00     0.095 A 
HETATM   12  C20 UNL     1      20.338   0.256  51.804  1.00  0.00     0.126 A 
HETATM   13  N2  UNL     1      19.745  -0.218  52.908  1.00  0.00    -0.264 NA
HETATM   14  C21 UNL     1      20.561  -0.690  53.943  1.00  0.00     0.223 A 
HETATM   15  N3  UNL     1      21.708  -0.413  53.322  1.00  0.00    -0.267 NA
HETATM   16  C22 UNL     1      21.891   0.088  52.183  1.00  0.00     0.117 A 
HETATM   17  C23 UNL     1      23.170   0.637  52.414  1.00  0.00     0.036 A 
HETATM   18  C24 UNL     1      24.286   0.584  53.363  1.00  0.00     0.022 C 
ENDROOT
BRANCH   1  19
HETATM   19  C8  UNL     1      16.581   1.457  51.286  1.00  0.00     0.070 A 
HETATM   20  C5  UNL     1      15.551   1.040  50.320  1.00  0.00     0.125 A 
HETATM   21  N1  UNL     1      14.555   1.880  50.666  1.00  0.00    -0.270 NA
HETATM   22  S1  UNL     1      16.741  -0.197  49.716  1.00  0.00    -0.126 SA
HETATM   23  C7  UNL     1      15.582   0.243  51.864  1.00  0.00     0.065 A 
HETATM   24  C4  UNL     1      14.408   1.232  52.192  1.00  0.00     0.041 A 
HETATM   25  C3  UNL     1      13.825   1.039  53.437  1.00  0.00     0.006 C 
HETATM   26  C6  UNL     1      16.358  -0.868  51.629  1.00  0.00     0.083 A 
BRANCH  25  27
HETATM   27  C2  UNL     1      12.852   1.957  52.979  1.00  0.00     0.036 C 
HETATM   28  C1  UNL     1      12.173   3.037  53.184  1.00  0.00    -0.008 C 
ENDBRANCH  25  27
ENDBRANCH   1  19
BRANCH   9  29
HETATM   29  O2  UNL     1      22.368   2.282  49.135  1.00  0.00    -0.377 OA
HETATM   30  C17 UNL     1      22.284   1.980  47.792  1.00  0.00     0.203 C 
ENDBRANCH   9  29
TORSDOF 3
ENDMDL
MODEL 4
REMARK VINA RESULT:      -8.3      7.855      9.910
REMARK  3 active torsions:
REMARK  status: ('A' for Active; 'I' for Inactive)
REMARK    1  A    between atoms: C2_2  and  C3_3 
REMARK    2  A    between atoms: C8_10  and  C9_11 
REMARK    3  A    between atoms: C16_19  and  O2_20 
ROOT
HETATM    1  C9  UNL     1      29.928   6.680  47.940  1.00  0.00    -0.012 C 
HETATM    2  C10 UNL     1      28.783   7.426  47.902  1.00  0.00    -0.046 C 
HETATM    3  C11 UNL     1      28.388   8.395  46.785  1.00  0.00     0.063 C 
HETATM    4  C12 UNL     1      26.896   8.406  46.611  1.00  0.00    -0.024 C 
HETATM    5  C13 UNL     1      25.954   9.380  46.750  1.00  0.00    -0.005 C 
HETATM    6  C14 UNL     1      25.691  10.856  47.075  1.00  0.00     0.196 C 
HETATM    7  O1  UNL     1      24.873  10.632  48.389  1.00  0.00    -0.371 OA
HETATM    8  C15 UNL     1      25.754   9.499  48.898  1.00  0.00     0.126 A 
HETATM    9  C16 UNL     1      27.009   9.923  48.998  1.00  0.00     0.127 A 
HETATM   10  C18 UNL     1      28.193   9.363  49.266  1.00  0.00     0.009 A 
HETATM   11  C19 UNL     1      27.190   8.537  49.280  1.00  0.00     0.095 A 
HETATM   12  C20 UNL     1      27.622   7.262  48.953  1.00  0.00     0.126 A 
HETATM   13  N2  UNL     1      27.483   5.948  48.731  1.00  0.00    -0.264 NA
HETATM   14  C21 UNL     1      26.207   5.389  48.864  1.00  0.00     0.223 A 
HETATM   15  N3  UNL     1      25.606   6.541  49.166  1.00  0.00    -0.267 NA
HETATM   16  C22 UNL     1      26.108   7.688  49.286  1.00  0.00     0.117 A 
HETATM   17  C23 UNL     1      24.948   8.440  49.002  1.00  0.00     0.036 A 
HETATM   18  C24 UNL     1      23.493   8.302  48.880  1.00  0.00     0.022 C 
ENDROOT
BRANCH   1  19
HETATM   19  C8  UNL     1      31.114   6.348  47.281  1.00  0.00     0.070 A 
HETATM   20  C5  UNL     1      32.466   6.873  47.533  1.00  0.00     0.125 A 
HETATM   21  N1  UNL     1      33.149   6.228  46.565  1.00  0.00    -0.270 NA
HETATM   22  S1  UNL     1      31.751   7.814  48.916  1.00  0.00    -0.126 SA
HETATM   23  C7  UNL     1      32.002   5.413  48.351  1.00  0.00     0.065 A 
HETATM   24  C4  UNL     1      32.835   4.727  47.211  1.00  0.00     0.041 A 
HETATM   25  C3  UNL     1      32.961   3.351  47.340  1.00  0.00     0.006 C 
HETATM   26  C6  UNL     1      31.521   5.868  49.557  1.00  0.00     0.083 A 
BRANCH  25  27
HETATM   27  C2  UNL     1      33.895   3.467  46.287  1.00  0.00     0.036 C 
HETATM   28  C1  UNL     1      35.118   3.364  45.881  1.00  0.00    -0.008 C 
ENDBRANCH  25  27
ENDBRANCH   1  19
BRANCH   9  29
HETATM   29  O2  UNL     1      27.513  11.178  48.864  1.00  0.00    -0.377 OA
HETATM   30  C17 UNL     1      28.812  11.627  48.754  1.00  0.00     0.203 C 
ENDBRANCH   9  29
TORSDOF 3
ENDMDL
MODEL 5
REMARK VINA RESULT:      -8.2      4.101      7.690
REMARK  3 active torsions:
REMARK  status: ('A' for Active; 'I' for Inactive)
REMARK    1  A    between atoms: C2_2  and  C3_3 
REMARK    2  A    between atoms: C8_10  and  C9_11 
REMARK    3  A    between atoms: C16_19  and  O2_20 
ROOT
HETATM    1  C9  UNL     1      22.182   6.085  49.862  1.00  0.00    -0.012 C 
HETATM    2  C10 UNL     1      22.680   5.075  50.636  1.00  0.00    -0.046 C 
HETATM    3  C11 UNL     1      23.800   5.214  51.670  1.00  0.00     0.063 C 
HETATM    4  C12 UNL     1      23.567   4.273  52.817  1.00  0.00    -0.024 C 
HETATM    5  C13 UNL     1      24.277   3.222  53.312  1.00  0.00    -0.005 C 
HETATM    6  C14 UNL     1      25.549   2.374  53.182  1.00  0.00     0.196 C 
HETATM    7  O1  UNL     1      24.856   1.026  52.798  1.00  0.00    -0.371 OA
HETATM    8  C15 UNL     1      23.824   1.667  51.881  1.00  0.00     0.126 A 
HETATM    9  C16 UNL     1      24.443   2.356  50.928  1.00  0.00     0.127 A 
HETATM   10  C18 UNL     1      24.071   3.189  49.951  1.00  0.00     0.009 A 
HETATM   11  C19 UNL     1      23.091   2.729  50.669  1.00  0.00     0.095 A 
HETATM   12  C20 UNL     1      22.043   3.635  50.675  1.00  0.00     0.126 A 
HETATM   13  N2  UNL     1      20.823   4.084  50.998  1.00  0.00    -0.264 NA
HETATM   14  C21 UNL     1      20.014   3.274  51.803  1.00  0.00     0.223 A 
HETATM   15  N3  UNL     1      20.919   2.303  51.936  1.00  0.00    -0.267 NA
HETATM   16  C22 UNL     1      22.076   2.226  51.448  1.00  0.00     0.117 A 
HETATM   17  C23 UNL     1      22.637   1.361  52.411  1.00  0.00     0.036 A 
HETATM   18  C24 UNL     1      22.256   0.458  53.502  1.00  0.00     0.022 C 
ENDROOT
BRANCH   1  19
HETATM   19  C8  UNL     1      22.256   7.444  49.546  1.00  0.00     0.070 A 
HETATM   20  C5  UNL     1      22.487   8.054  48.226  1.00  0.00     0.125 A 
HETATM   21  N1  UNL     1      22.506   9.357  48.574  1.00  0.00    -0.270 NA
HETATM   22  S1  UNL     1      22.465   6.370  47.538  1.00  0.00    -0.126 SA
HETATM   23  C7  UNL     1      20.841   7.817  48.730  1.00  0.00     0.065 A 
HETATM   24  C4  UNL     1      20.923   9.343  49.087  1.00  0.00     0.041 A 
HETATM   25  C3  UNL     1      19.728   9.894  49.528  1.00  0.00     0.006 C 
HETATM   26  C6  UNL     1      20.521   6.592  48.190  1.00  0.00     0.083 A 
BRANCH  25  27
HETATM   27  C2  UNL     1      20.406  11.129  49.414  1.00  0.00     0.036 C 
HETATM   28  C1  UNL     1      20.343  12.414  49.288  1.00  0.00    -0.008 C 
ENDBRANCH  25  27
ENDBRANCH   1  19
BRANCH   9  29
HETATM   29  O2  UNL     1      25.764   2.410  50.618  1.00  0.00    -0.377 OA
HETATM   30  C17 UNL     1      26.462   3.233  49.759  1.00  0.00     0.203 C 
ENDBRANCH   9  29
TORSDOF 3
ENDMDL
MODEL 6
REMARK VINA RESULT:      -8.1      5.544      8.014
REMARK  3 active torsions:
REMARK  status: ('A' for Active; 'I' for Inactive)
REMARK    1  A    between atoms: C2_2  and  C3_3 
REMARK    2  A    between atoms: C8_10  and  C9_11 
REMARK    3  A    between atoms: C16_19  and  O2_20 
ROOT
HETATM    1  C9  UNL     1      25.368   7.133  49.041  1.00  0.00    -0.012 C 
HETATM    2  C10 UNL     1      24.800   6.045  49.643  1.00  0.00    -0.046 C 
HETATM    3  C11 UNL     1      24.394   5.953  51.116  1.00  0.00     0.063 C 
HETATM    4  C12 UNL     1      23.174   5.089  51.265  1.00  0.00    -0.024 C 
HETATM    5  C13 UNL     1      22.944   3.915  51.916  1.00  0.00    -0.005 C 
HETATM    6  C14 UNL     1      23.541   2.818  52.807  1.00  0.00     0.196 C 
HETATM    7  O1  UNL     1      23.436   1.643  51.780  1.00  0.00    -0.371 OA
HETATM    8  C15 UNL     1      23.856   2.481  50.581  1.00  0.00     0.126 A 
HETATM    9  C16 UNL     1      25.049   3.018  50.810  1.00  0.00     0.127 A 
HETATM   10  C18 UNL     1      25.837   3.904  50.193  1.00  0.00     0.009 A 
HETATM   11  C19 UNL     1      24.715   3.666  49.584  1.00  0.00     0.095 A 
HETATM   12  C20 UNL     1      24.334   4.772  48.842  1.00  0.00     0.126 A 
HETATM   13  N2  UNL     1      23.549   5.469  48.010  1.00  0.00    -0.264 NA
HETATM   14  C21 UNL     1      22.390   4.851  47.526  1.00  0.00     0.223 A 
HETATM   15  N3  UNL     1      22.576   3.713  48.196  1.00  0.00    -0.267 NA
HETATM   16  C22 UNL     1      23.519   3.392  48.965  1.00  0.00     0.117 A 
HETATM   17  C23 UNL     1      22.824   2.434  49.734  1.00  0.00     0.036 A 
HETATM   18  C24 UNL     1      21.593   1.639  49.736  1.00  0.00     0.022 C 
ENDROOT
BRANCH   1  19
HETATM   19  C8  UNL     1      25.821   8.443  49.211  1.00  0.00     0.070 A 
HETATM   20  C5  UNL     1      27.198   8.948  49.088  1.00  0.00     0.125 A 
HETATM   21  N1  UNL     1      27.001  10.242  49.414  1.00  0.00    -0.270 NA
HETATM   22  S1  UNL     1      27.679   7.265  48.593  1.00  0.00    -0.126 SA
HETATM   23  C7  UNL     1      26.183   9.019  47.680  1.00  0.00     0.065 A 
HETATM   24  C4  UNL     1      26.018  10.522  48.101  1.00  0.00     0.041 A 
HETATM   25  C3  UNL     1      25.280  11.290  47.211  1.00  0.00     0.006 C 
HETATM   26  C6  UNL     1      26.476   7.846  47.022  1.00  0.00     0.083 A 
BRANCH  25  27
HETATM   27  C2  UNL     1      25.718  12.383  47.991  1.00  0.00     0.036 C 
HETATM   28  C1  UNL     1      25.830  13.663  48.132  1.00  0.00    -0.008 C 
ENDBRANCH  25  27
ENDBRANCH   1  19
BRANCH   9  29
HETATM   29  O2  UNL     1      25.921   2.792  51.828  1.00  0.00    -0.377 OA
HETATM   30  C17 UNL     1      26.997   1.935  51.927  1.00  0.00     0.203 C 
ENDBRANCH   9  29
TORSDOF 3
ENDMDL
MODEL 7
REMARK VINA RESULT:      -8.1      6.240      8.169
REMARK  3 active torsions:
REMARK  status: ('A' for Active; 'I' for Inactive)
REMARK    1  A    between atoms: C2_2  and  C3_3 
REMARK    2  A    between atoms: C8_10  and  C9_11 
REMARK    3  A    between atoms: C16_19  and  O2_20 
ROOT
HETATM    1  C9  UNL     1      26.580   7.495  48.950  1.00  0.00    -0.012 C 
HETATM    2  C10 UNL     1      25.471   6.842  49.411  1.00  0.00    -0.046 C 
HETATM    3  C11 UNL     1      24.871   6.984  50.812  1.00  0.00     0.063 C 
HETATM    4  C12 UNL     1      23.377   6.842  50.754  1.00  0.00    -0.024 C 
HETATM    5  C13 UNL     1      22.509   5.948  51.301  1.00  0.00    -0.005 C 
HETATM    6  C14 UNL     1      22.355   4.711  52.196  1.00  0.00     0.196 C 
HETATM    7  O1  UNL     1      21.828   3.730  51.098  1.00  0.00    -0.371 OA
HETATM    8  C15 UNL     1      22.769   4.233  50.013  1.00  0.00     0.126 A 
HETATM    9  C16 UNL     1      24.027   4.108  50.423  1.00  0.00     0.127 A 
HETATM   10  C18 UNL     1      25.227   4.477  49.964  1.00  0.00     0.009 A 
HETATM   11  C19 UNL     1      24.231   4.820  49.204  1.00  0.00     0.095 A 
HETATM   12  C20 UNL     1      24.554   5.958  48.485  1.00  0.00     0.126 A 
HETATM   13  N2  UNL     1      24.340   6.942  47.601  1.00  0.00    -0.264 NA
HETATM   14  C21 UNL     1      23.108   6.977  46.938  1.00  0.00     0.223 A 
HETATM   15  N3  UNL     1      22.612   5.905  47.559  1.00  0.00    -0.267 NA
HETATM   16  C22 UNL     1      23.155   5.168  48.422  1.00  0.00     0.117 A 
HETATM   17  C23 UNL     1      21.979   4.693  49.040  1.00  0.00     0.036 A 
HETATM   18  C24 UNL     1      20.529   4.616  48.839  1.00  0.00     0.022 C 
ENDROOT
BRANCH   1  19
HETATM   19  C8  UNL     1      27.592   8.409  49.252  1.00  0.00     0.070 A 
HETATM   20  C5  UNL     1      29.015   8.339  48.880  1.00  0.00     0.125 A 
HETATM   21  N1  UNL     1      29.469   9.451  49.493  1.00  0.00    -0.270 NA
HETATM   22  S1  UNL     1      28.610   6.825  47.956  1.00  0.00    -0.126 SA
HETATM   23  C7  UNL     1      27.945   9.210  47.823  1.00  0.00     0.065 A 
HETATM   24  C4  UNL     1      28.536  10.464  48.559  1.00  0.00     0.041 A 
HETATM   25  C3  UNL     1      28.100  11.683  48.059  1.00  0.00     0.006 C 
HETATM   26  C6  UNL     1      27.580   8.262  46.895  1.00  0.00     0.083 A 
BRANCH  25  27
HETATM   27  C2  UNL     1      29.092  12.236  48.899  1.00  0.00     0.036 C 
HETATM   28  C1  UNL     1      30.294  12.692  49.034  1.00  0.00    -0.008 C 
ENDBRANCH  25  27
ENDBRANCH   1  19
BRANCH   9  29
HETATM   29  O2  UNL     1      24.520   3.492  51.529  1.00  0.00    -0.377 OA
HETATM   30  C17 UNL     1      25.245   2.327  51.671  1.00  0.00     0.203 C 
ENDBRANCH   9  29
TORSDOF 3
ENDMDL
MODEL 8
REMARK VINA RESULT:      -8.1      5.900      8.938
REMARK  3 active torsions:
REMARK  status: ('A' for Active; 'I' for Inactive)
REMARK    1  A    between atoms: C2_2  and  C3_3 
REMARK    2  A    between atoms: C8_10  and  C9_11 
REMARK    3  A    between atoms: C16_19  and  O2_20 
ROOT
HETATM    1  C9  UNL     1      24.938   5.091  49.880  1.00  0.00    -0.012 C 
HETATM    2  C10 UNL     1      25.538   6.255  49.489  1.00  0.00    -0.046 C 
HETATM    3  C11 UNL     1      25.483   7.584  50.247  1.00  0.00     0.063 C 
HETATM    4  C12 UNL     1      26.767   8.340  50.063  1.00  0.00    -0.024 C 
HETATM    5  C13 UNL     1      27.061   9.546  49.503  1.00  0.00    -0.005 C 
HETATM    6  C14 UNL     1      26.500  10.797  48.815  1.00  0.00     0.196 C 
HETATM    7  O1  UNL     1      27.192  10.593  47.427  1.00  0.00    -0.371 OA
HETATM    8  C15 UNL     1      26.973   9.087  47.393  1.00  0.00     0.126 A 
HETATM    9  C16 UNL     1      25.674   8.825  47.499  1.00  0.00     0.127 A 
HETATM   10  C18 UNL     1      24.925   7.727  47.640  1.00  0.00     0.009 A 
HETATM   11  C19 UNL     1      26.203   7.503  47.573  1.00  0.00     0.095 A 
HETATM   12  C20 UNL     1      26.517   6.341  48.259  1.00  0.00     0.126 A 
HETATM   13  N2  UNL     1      27.328   5.381  48.720  1.00  0.00    -0.264 NA
HETATM   14  C21 UNL     1      28.692   5.469  48.419  1.00  0.00     0.223 A 
HETATM   15  N3  UNL     1      28.588   6.615  47.744  1.00  0.00    -0.267 NA
HETATM   16  C22 UNL     1      27.561   7.299  47.499  1.00  0.00     0.117 A 
HETATM   17  C23 UNL     1      28.194   8.550  47.337  1.00  0.00     0.036 A 
HETATM   18  C24 UNL     1      29.518   9.148  47.145  1.00  0.00     0.022 C 
ENDROOT
BRANCH   1  19
HETATM   19  C8  UNL     1      24.156   4.463  50.851  1.00  0.00     0.070 A 
HETATM   20  C5  UNL     1      22.702   4.229  50.831  1.00  0.00     0.125 A 
HETATM   21  N1  UNL     1      22.544   3.649  52.038  1.00  0.00    -0.270 NA
HETATM   22  S1  UNL     1      22.695   4.957  49.164  1.00  0.00    -0.126 SA
HETATM   23  C7  UNL     1      23.732   2.969  50.223  1.00  0.00     0.065 A 
HETATM   24  C4  UNL     1      23.484   2.336  51.637  1.00  0.00     0.041 A 
HETATM   25  C3  UNL     1      24.042   1.076  51.809  1.00  0.00     0.006 C 
HETATM   26  C6  UNL     1      23.784   3.229  48.873  1.00  0.00     0.083 A 
BRANCH  25  27
HETATM   27  C2  UNL     1      23.299   1.053  53.011  1.00  0.00     0.036 C 
HETATM   28  C1  UNL     1      22.404   0.475  53.743  1.00  0.00    -0.008 C 
ENDBRANCH  25  27
ENDBRANCH   1  19
BRANCH   9  29
HETATM   29  O2  UNL     1      24.614   9.675  47.472  1.00  0.00    -0.377 OA
HETATM   30  C17 UNL     1      23.399   9.590  46.825  1.00  0.00     0.203 C 
ENDBRANCH   9  29
TORSDOF 3
ENDMDL
MODEL 9
REMARK VINA RESULT:      -8.0      4.759      6.319
REMARK  3 active torsions:
REMARK  status: ('A' for Active; 'I' for Inactive)
REMARK    1  A    between atoms: C2_2  and  C3_3 
REMARK    2  A    between atoms: C8_10  and  C9_11 
REMARK    3  A    between atoms: C16_19  and  O2_20 
ROOT
HETATM    1  C9  UNL     1      25.553   5.744  49.216  1.00  0.00    -0.012 C 
HETATM    2  C10 UNL     1      24.671   4.789  49.637  1.00  0.00    -0.046 C 
HETATM    3  C11 UNL     1      23.562   4.164  48.787  1.00  0.00     0.063 C 
HETATM    4  C12 UNL     1      23.350   2.731  49.184  1.00  0.00    -0.024 C 
HETATM    5  C13 UNL     1      22.284   2.061  49.701  1.00  0.00    -0.005 C 
HETATM    6  C14 UNL     1      20.822   2.158  50.159  1.00  0.00     0.196 C 
HETATM    7  O1  UNL     1      21.062   1.850  51.673  1.00  0.00    -0.371 OA
HETATM    8  C15 UNL     1      22.337   2.676  51.772  1.00  0.00     0.126 A 
HETATM    9  C16 UNL     1      22.083   3.930  51.412  1.00  0.00     0.127 A 
HETATM   10  C18 UNL     1      22.808   5.032  51.197  1.00  0.00     0.009 A 
HETATM   11  C19 UNL     1      23.501   3.992  51.552  1.00  0.00     0.095 A 
HETATM   12  C20 UNL     1      24.784   4.080  51.038  1.00  0.00     0.126 A 
HETATM   13  N2  UNL     1      26.045   3.675  50.834  1.00  0.00    -0.264 NA
HETATM   14  C21 UNL     1      26.451   2.467  51.412  1.00  0.00     0.223 A 
HETATM   15  N3  UNL     1      25.266   2.197  51.961  1.00  0.00    -0.267 NA
HETATM   16  C22 UNL     1      24.206   2.873  51.929  1.00  0.00     0.117 A 
HETATM   17  C23 UNL     1      23.293   1.815  52.128  1.00  0.00     0.036 A 
HETATM   18  C24 UNL     1      23.238   0.413  52.553  1.00  0.00     0.022 C 
ENDROOT
BRANCH   1  19
HETATM   19  C8  UNL     1      25.968   6.545  48.150  1.00  0.00     0.070 A 
HETATM   20  C5  UNL     1      25.516   7.904  47.809  1.00  0.00     0.125 A 
HETATM   21  N1  UNL     1      26.222   8.107  46.678  1.00  0.00    -0.270 NA
HETATM   22  S1  UNL     1      24.503   7.853  49.319  1.00  0.00    -0.126 SA
HETATM   23  C7  UNL     1      26.928   7.750  48.810  1.00  0.00     0.065 A 
HETATM   24  C4  UNL     1      27.687   8.018  47.463  1.00  0.00     0.041 A 
HETATM   25  C3  UNL     1      29.065   8.126  47.592  1.00  0.00     0.006 C 
HETATM   26  C6  UNL     1      26.418   7.820  50.086  1.00  0.00     0.083 A 
BRANCH  25  27
HETATM   27  C2  UNL     1      29.027   8.556  46.246  1.00  0.00     0.036 C 
HETATM   28  C1  UNL     1      29.466   8.435  45.036  1.00  0.00    -0.008 C 
ENDBRANCH  25  27
ENDBRANCH   1  19
BRANCH   9  29
HETATM   29  O2  UNL     1      20.894   4.532  51.149  1.00  0.00    -0.377 OA
HETATM   30  C17 UNL     1      20.595   5.687  50.458  1.00  0.00     0.203 C 
ENDBRANCH   9  29
TORSDOF 3
ENDMDL
