MODEL 1
REMARK VINA RESULT:      -6.8      0.000      0.000
REMARK  9 active torsions:
REMARK  status: ('A' for Active; 'I' for Inactive)
REMARK    1  A    between atoms: C2_2  and  C3_3 
REMARK    2  A    between atoms: C3_3  and  C4_4 
REMARK    3  A    between atoms: C4_4  and  N1_5 
REMARK    4  A    between atoms: N1_5  and  C5_6 
REMARK    5  A    between atoms: N1_5  and  C12_16 
REMARK    6  A    between atoms: C5_6  and  C6_7 
REMARK    7  A    between atoms: C8_9  and  S1_10 
REMARK    8  A    between atoms: C11_14  and  O1_15 
REMARK    9  A    between atoms: C12_16  and  N2_17 
ROOT
HETATM    1  N1  UNL     1      26.255   1.652  52.555  1.00  0.00     0.110 N 
ENDROOT
BRANCH   1   2
HETATM    2  C4  UNL     1      26.886   2.507  51.670  1.00  0.00     0.275 C 
BRANCH   2   3
HETATM    3  C3  UNL     1      26.439   2.512  50.242  1.00  0.00     0.030 C 
BRANCH   3   4
HETATM    4  C2  UNL     1      26.182   3.956  49.846  1.00  0.00    -0.003 C 
HETATM    5  C1  UNL     1      27.252   4.500  48.949  1.00  0.00     0.005 C 
ENDBRANCH   3   4
ENDBRANCH   2   3
ENDBRANCH   1   2
BRANCH   1   6
HETATM    6  C5  UNL     1      24.956   2.122  52.942  1.00  0.00     0.316 C 
BRANCH   6   7
HETATM    7  C6  UNL     1      23.811   1.271  52.670  1.00  0.00     0.006 A 
HETATM    8  C7  UNL     1      23.099   1.626  51.511  1.00  0.00     0.030 A 
HETATM    9  C8  UNL     1      21.966   0.988  51.071  1.00  0.00    -0.000 A 
HETATM   10  C9  UNL     1      21.444  -0.079  51.771  1.00  0.00     0.045 A 
HETATM   11  C10 UNL     1      22.117  -0.457  52.915  1.00  0.00     0.069 A 
HETATM   12 CL1  UNL     1      21.549  -1.799  53.886  1.00  0.00    -0.081 Cl
HETATM   13  C11 UNL     1      23.252   0.202  53.332  1.00  0.00     0.095 A 
BRANCH   9  14
HETATM   14  S1  UNL     1      21.095   1.476  49.590  1.00  0.00    -0.143 SA
HETATM   15  H13 UNL     1      21.918   1.320  48.462  1.00  0.00     0.107 HD
ENDBRANCH   9  14
BRANCH  13  16
HETATM   16  O1  UNL     1      23.900  -0.206  54.476  1.00  0.00    -0.358 OA
HETATM   17  H15 UNL     1      24.836  -0.544  54.549  1.00  0.00     0.217 HD
ENDBRANCH  13  16
ENDBRANCH   6   7
ENDBRANCH   1   6
BRANCH   1  18
HETATM   18  C12 UNL     1      26.911   1.232  53.743  1.00  0.00     0.402 C 
BRANCH  18  19
HETATM   19  N2  UNL     1      27.610  -0.018  53.501  1.00  0.00    -0.341 N 
HETATM   20  C13 UNL     1      26.823  -1.074  52.928  1.00  0.00     0.088 A 
HETATM   21  C14 UNL     1      27.490  -2.202  52.720  1.00  0.00    -0.006 A 
HETATM   22  C15 UNL     1      28.899  -2.518  52.990  1.00  0.00     0.057 A 
HETATM   23  C16 UNL     1      29.545  -1.320  53.574  1.00  0.00    -0.006 A 
HETATM   24  C17 UNL     1      28.990  -0.154  53.825  1.00  0.00     0.088 A 
ENDBRANCH  18  19
ENDBRANCH   1  18
TORSDOF 9
ENDMDL
MODEL 2
REMARK VINA RESULT:      -6.7      2.082      2.302
REMARK  9 active torsions:
REMARK  status: ('A' for Active; 'I' for Inactive)
REMARK    1  A    between atoms: C2_2  and  C3_3 
REMARK    2  A    between atoms: C3_3  and  C4_4 
REMARK    3  A    between atoms: C4_4  and  N1_5 
REMARK    4  A    between atoms: N1_5  and  C5_6 
REMARK    5  A    between atoms: N1_5  and  C12_16 
REMARK    6  A    between atoms: C5_6  and  C6_7 
REMARK    7  A    between atoms: C8_9  and  S1_10 
REMARK    8  A    between atoms: C11_14  and  O1_15 
REMARK    9  A    between atoms: C12_16  and  N2_17 
ROOT
HETATM    1  N1  UNL     1      26.073   2.128  52.131  1.00  0.00     0.110 N 
ENDROOT
BRANCH   1   2
HETATM    2  C4  UNL     1      26.822   2.861  51.229  1.00  0.00     0.275 C 
BRANCH   2   3
HETATM    3  C3  UNL     1      26.411   2.855  49.790  1.00  0.00     0.030 C 
BRANCH   3   4
HETATM    4  C2  UNL     1      26.309   4.301  49.336  1.00  0.00    -0.003 C 
HETATM    5  C1  UNL     1      27.575   4.790  48.702  1.00  0.00     0.005 C 
ENDBRANCH   3   4
ENDBRANCH   2   3
ENDBRANCH   1   2
BRANCH   1   6
HETATM    6  C5  UNL     1      24.772   2.690  52.349  1.00  0.00     0.316 C 
BRANCH   6   7
HETATM    7  C6  UNL     1      23.612   1.884  52.008  1.00  0.00     0.006 A 
HETATM    8  C7  UNL     1      23.239   0.970  53.007  1.00  0.00     0.030 A 
HETATM    9  C8  UNL     1      22.196   0.084  52.897  1.00  0.00    -0.000 A 
HETATM   10  C9  UNL     1      21.428   0.041  51.753  1.00  0.00     0.045 A 
HETATM   11  C10 UNL     1      21.765   0.926  50.749  1.00  0.00     0.069 A 
HETATM   12 CL1  UNL     1      20.862   0.965  49.249  1.00  0.00    -0.081 Cl
HETATM   13  C11 UNL     1      22.817   1.804  50.888  1.00  0.00     0.095 A 
BRANCH   9  14
HETATM   14  S1  UNL     1      21.758  -1.061  54.197  1.00  0.00    -0.143 SA
HETATM   15  H13 UNL     1      20.504  -1.638  53.941  1.00  0.00     0.107 HD
ENDBRANCH   9  14
BRANCH  13  16
HETATM   16  O1  UNL     1      23.121   2.676  49.867  1.00  0.00    -0.358 OA
HETATM   17  H15 UNL     1      22.501   3.018  49.164  1.00  0.00     0.217 HD
ENDBRANCH  13  16
ENDBRANCH   6   7
ENDBRANCH   1   6
BRANCH   1  18
HETATM   18  C12 UNL     1      26.600   1.804  53.411  1.00  0.00     0.402 C 
BRANCH  18  19
HETATM   19  N2  UNL     1      27.371   0.575  53.326  1.00  0.00    -0.341 N 
HETATM   20  C13 UNL     1      26.673  -0.566  52.804  1.00  0.00     0.088 A 
HETATM   21  C14 UNL     1      27.404  -1.671  52.740  1.00  0.00    -0.006 A 
HETATM   22  C15 UNL     1      28.805  -1.889  53.123  1.00  0.00     0.057 A 
HETATM   23  C16 UNL     1      29.355  -0.612  53.634  1.00  0.00    -0.006 A 
HETATM   24  C17 UNL     1      28.732   0.541  53.744  1.00  0.00     0.088 A 
ENDBRANCH  18  19
ENDBRANCH   1  18
TORSDOF 9
ENDMDL
MODEL 3
REMARK VINA RESULT:      -6.5      3.161      5.316
REMARK  9 active torsions:
REMARK  status: ('A' for Active; 'I' for Inactive)
REMARK    1  A    between atoms: C2_2  and  C3_3 
REMARK    2  A    between atoms: C3_3  and  C4_4 
REMARK    3  A    between atoms: C4_4  and  N1_5 
REMARK    4  A    between atoms: N1_5  and  C5_6 
REMARK    5  A    between atoms: N1_5  and  C12_16 
REMARK    6  A    between atoms: C5_6  and  C6_7 
REMARK    7  A    between atoms: C8_9  and  S1_10 
REMARK    8  A    between atoms: C11_14  and  O1_15 
REMARK    9  A    between atoms: C12_16  and  N2_17 
ROOT
HETATM    1  N1  UNL     1      23.322   3.677  50.813  1.00  0.00     0.110 N 
ENDROOT
BRANCH   1   2
HETATM    2  C4  UNL     1      22.437   3.499  49.765  1.00  0.00     0.275 C 
BRANCH   2   3
HETATM    3  C3  UNL     1      22.855   2.634  48.618  1.00  0.00     0.030 C 
BRANCH   3   4
HETATM    4  C2  UNL     1      21.713   1.675  48.327  1.00  0.00    -0.003 C 
HETATM    5  C1  UNL     1      21.345   0.848  49.521  1.00  0.00     0.005 C 
ENDBRANCH   3   4
ENDBRANCH   2   3
ENDBRANCH   1   2
BRANCH   1   6
HETATM    6  C5  UNL     1      22.761   3.299  52.077  1.00  0.00     0.316 C 
BRANCH   6   7
HETATM    7  C6  UNL     1      23.057   1.971  52.587  1.00  0.00     0.006 A 
HETATM    8  C7  UNL     1      24.397   1.583  52.424  1.00  0.00     0.030 A 
HETATM    9  C8  UNL     1      24.903   0.363  52.800  1.00  0.00    -0.000 A 
HETATM   10  C9  UNL     1      24.088  -0.586  53.380  1.00  0.00     0.045 A 
HETATM   11  C10 UNL     1      22.764  -0.241  53.556  1.00  0.00     0.069 A 
HETATM   12 CL1  UNL     1      21.635  -1.364  54.283  1.00  0.00    -0.081 Cl
HETATM   13  C11 UNL     1      22.286   0.992  53.170  1.00  0.00     0.095 A 
BRANCH   9  14
HETATM   14  S1  UNL     1      26.617  -0.085  52.573  1.00  0.00    -0.143 SA
HETATM   15  H13 UNL     1      27.457   0.871  53.167  1.00  0.00     0.107 HD
ENDBRANCH   9  14
BRANCH  13  16
HETATM   16  O1  UNL     1      20.959   1.303  53.366  1.00  0.00    -0.358 OA
HETATM   17  H15 UNL     1      20.493   1.425  54.239  1.00  0.00     0.217 HD
ENDBRANCH  13  16
ENDBRANCH   6   7
ENDBRANCH   1   6
BRANCH   1  18
HETATM   18  C12 UNL     1      23.966   4.929  51.007  1.00  0.00     0.402 C 
BRANCH  18  19
HETATM   19  N2  UNL     1      25.165   4.996  50.190  1.00  0.00    -0.341 N 
HETATM   20  C13 UNL     1      25.432   6.264  49.572  1.00  0.00     0.088 A 
HETATM   21  C14 UNL     1      26.533   6.291  48.833  1.00  0.00    -0.006 A 
HETATM   22  C15 UNL     1      27.503   5.222  48.561  1.00  0.00     0.057 A 
HETATM   23  C16 UNL     1      27.066   4.000  49.275  1.00  0.00    -0.006 A 
HETATM   24  C17 UNL     1      26.001   3.853  50.033  1.00  0.00     0.088 A 
ENDBRANCH  18  19
ENDBRANCH   1  18
TORSDOF 9
ENDMDL
MODEL 4
REMARK VINA RESULT:      -6.4      2.702      4.534
REMARK  9 active torsions:
REMARK  status: ('A' for Active; 'I' for Inactive)
REMARK    1  A    between atoms: C2_2  and  C3_3 
REMARK    2  A    between atoms: C3_3  and  C4_4 
REMARK    3  A    between atoms: C4_4  and  N1_5 
REMARK    4  A    between atoms: N1_5  and  C5_6 
REMARK    5  A    between atoms: N1_5  and  C12_16 
REMARK    6  A    between atoms: C5_6  and  C6_7 
REMARK    7  A    between atoms: C8_9  and  S1_10 
REMARK    8  A    between atoms: C11_14  and  O1_15 
REMARK    9  A    between atoms: C12_16  and  N2_17 
ROOT
HETATM    1  N1  UNL     1      25.340   0.400  53.289  1.00  0.00     0.110 N 
ENDROOT
BRANCH   1   2
HETATM    2  C4  UNL     1      24.120  -0.202  53.540  1.00  0.00     0.275 C 
BRANCH   2   3
HETATM    3  C3  UNL     1      23.975  -1.030  54.779  1.00  0.00     0.030 C 
BRANCH   3   4
HETATM    4  C2  UNL     1      22.490  -1.211  55.038  1.00  0.00    -0.003 C 
HETATM    5  C1  UNL     1      21.667  -1.009  53.802  1.00  0.00     0.005 C 
ENDBRANCH   3   4
ENDBRANCH   2   3
ENDBRANCH   1   2
BRANCH   1   6
HETATM    6  C5  UNL     1      25.244   1.830  53.225  1.00  0.00     0.316 C 
BRANCH   6   7
HETATM    7  C6  UNL     1      25.174   2.453  51.914  1.00  0.00     0.006 A 
HETATM    8  C7  UNL     1      23.888   2.446  51.349  1.00  0.00     0.030 A 
HETATM    9  C8  UNL     1      23.584   2.950  50.108  1.00  0.00    -0.000 A 
HETATM   10  C9  UNL     1      24.565   3.510  49.318  1.00  0.00     0.045 A 
HETATM   11  C10 UNL     1      25.841   3.533  49.840  1.00  0.00     0.069 A 
HETATM   12 CL1  UNL     1      27.170   4.220  48.929  1.00  0.00    -0.081 Cl
HETATM   13  C11 UNL     1      26.116   3.022  51.089  1.00  0.00     0.095 A 
BRANCH   9  14
HETATM   14  S1  UNL     1      21.931   2.920  49.430  1.00  0.00    -0.143 SA
HETATM   15  H13 UNL     1      21.527   4.215  49.065  1.00  0.00     0.107 HD
ENDBRANCH   9  14
BRANCH  13  16
HETATM   16  O1  UNL     1      27.401   3.067  51.580  1.00  0.00    -0.358 OA
HETATM   17  H15 UNL     1      27.824   2.428  52.219  1.00  0.00     0.217 HD
ENDBRANCH  13  16
ENDBRANCH   6   7
ENDBRANCH   1   6
BRANCH   1  18
HETATM   18  C12 UNL     1      26.131  -0.009  52.182  1.00  0.00     0.402 C 
BRANCH  18  19
HETATM   19  N2  UNL     1      27.329  -0.680  52.657  1.00  0.00    -0.341 N 
HETATM   20  C13 UNL     1      27.338  -2.110  52.529  1.00  0.00     0.088 A 
HETATM   21  C14 UNL     1      28.444  -2.692  52.972  1.00  0.00    -0.006 A 
HETATM   22  C15 UNL     1      29.644  -2.088  53.568  1.00  0.00     0.057 A 
HETATM   23  C16 UNL     1      29.454  -0.621  53.619  1.00  0.00    -0.006 A 
HETATM   24  C17 UNL     1      28.408   0.066  53.212  1.00  0.00     0.088 A 
ENDBRANCH  18  19
ENDBRANCH   1  18
TORSDOF 9
ENDMDL
MODEL 5
REMARK VINA RESULT:      -6.4      3.323      5.388
REMARK  9 active torsions:
REMARK  status: ('A' for Active; 'I' for Inactive)
REMARK    1  A    between atoms: C2_2  and  C3_3 
REMARK    2  A    between atoms: C3_3  and  C4_4 
REMARK    3  A    between atoms: C4_4  and  N1_5 
REMARK    4  A    between atoms: N1_5  and  C5_6 
REMARK    5  A    between atoms: N1_5  and  C12_16 
REMARK    6  A    between atoms: C5_6  and  C6_7 
REMARK    7  A    between atoms: C8_9  and  S1_10 
REMARK    8  A    between atoms: C11_14  and  O1_15 
REMARK    9  A    between atoms: C12_16  and  N2_17 
ROOT
HETATM    1  N1  UNL     1      24.925   1.545  52.230  1.00  0.00     0.110 N 
ENDROOT
BRANCH   1   2
HETATM    2  C4  UNL     1      23.888   1.211  53.082  1.00  0.00     0.275 C 
BRANCH   2   3
HETATM    3  C3  UNL     1      23.721  -0.223  53.475  1.00  0.00     0.030 C 
BRANCH   3   4
HETATM    4  C2  UNL     1      22.318  -0.648  53.076  1.00  0.00    -0.003 C 
HETATM    5  C1  UNL     1      21.531  -1.175  54.238  1.00  0.00     0.005 C 
ENDBRANCH   3   4
ENDBRANCH   2   3
ENDBRANCH   1   2
BRANCH   1   6
HETATM    6  C5  UNL     1      24.460   2.034  50.965  1.00  0.00     0.316 C 
BRANCH   6   7
HETATM    7  C6  UNL     1      24.981   3.304  50.488  1.00  0.00     0.006 A 
HETATM    8  C7  UNL     1      24.156   4.403  50.780  1.00  0.00     0.030 A 
HETATM    9  C8  UNL     1      24.424   5.696  50.404  1.00  0.00    -0.000 A 
HETATM   10  C9  UNL     1      25.565   5.997  49.689  1.00  0.00     0.045 A 
HETATM   11  C10 UNL     1      26.400   4.942  49.384  1.00  0.00     0.069 A 
HETATM   12 CL1  UNL     1      27.878   5.201  48.482  1.00  0.00    -0.081 Cl
HETATM   13  C11 UNL     1      26.104   3.655  49.776  1.00  0.00     0.095 A 
BRANCH   9  14
HETATM   14  S1  UNL     1      23.344   7.063  50.798  1.00  0.00    -0.143 SA
HETATM   15  H13 UNL     1      23.761   8.226  50.131  1.00  0.00     0.107 HD
ENDBRANCH   9  14
BRANCH  13  16
HETATM   16  O1  UNL     1      26.964   2.628  49.458  1.00  0.00    -0.358 OA
HETATM   17  H15 UNL     1      27.313   2.394  48.553  1.00  0.00     0.217 HD
ENDBRANCH  13  16
ENDBRANCH   6   7
ENDBRANCH   1   6
BRANCH   1  18
HETATM   18  C12 UNL     1      25.961   0.611  51.956  1.00  0.00     0.402 C 
BRANCH  18  19
HETATM   19  N2  UNL     1      27.113   0.899  52.792  1.00  0.00    -0.341 N 
HETATM   20  C13 UNL     1      27.674  -0.223  53.491  1.00  0.00     0.088 A 
HETATM   21  C14 UNL     1      28.724   0.072  54.247  1.00  0.00    -0.006 A 
HETATM   22  C15 UNL     1      29.383   1.367  54.465  1.00  0.00     0.057 A 
HETATM   23  C16 UNL     1      28.673   2.394  53.670  1.00  0.00    -0.006 A 
HETATM   24  C17 UNL     1      27.628   2.223  52.889  1.00  0.00     0.088 A 
ENDBRANCH  18  19
ENDBRANCH   1  18
TORSDOF 9
ENDMDL
MODEL 6
REMARK VINA RESULT:      -6.4      3.190      5.471
REMARK  9 active torsions:
REMARK  status: ('A' for Active; 'I' for Inactive)
REMARK    1  A    between atoms: C2_2  and  C3_3 
REMARK    2  A    between atoms: C3_3  and  C4_4 
REMARK    3  A    between atoms: C4_4  and  N1_5 
REMARK    4  A    between atoms: N1_5  and  C5_6 
REMARK    5  A    between atoms: N1_5  and  C12_16 
REMARK    6  A    between atoms: C5_6  and  C6_7 
REMARK    7  A    between atoms: C8_9  and  S1_10 
REMARK    8  A    between atoms: C11_14  and  O1_15 
REMARK    9  A    between atoms: C12_16  and  N2_17 
ROOT
HETATM    1  N1  UNL     1      23.508   3.606  50.912  1.00  0.00     0.110 N 
ENDROOT
BRANCH   1   2
HETATM    2  C4  UNL     1      22.471   3.200  50.091  1.00  0.00     0.275 C 
BRANCH   2   3
HETATM    3  C3  UNL     1      22.807   2.579  48.772  1.00  0.00     0.030 C 
BRANCH   3   4
HETATM    4  C2  UNL     1      21.863   1.407  48.562  1.00  0.00    -0.003 C 
HETATM    5  C1  UNL     1      21.142   1.026  49.819  1.00  0.00     0.005 C 
ENDBRANCH   3   4
ENDBRANCH   2   3
ENDBRANCH   1   2
BRANCH   1   6
HETATM    6  C5  UNL     1      23.268   3.301  52.292  1.00  0.00     0.316 C 
BRANCH   6   7
HETATM    7  C6  UNL     1      23.829   2.074  52.831  1.00  0.00     0.006 A 
HETATM    8  C7  UNL     1      22.877   1.068  53.069  1.00  0.00     0.030 A 
HETATM    9  C8  UNL     1      23.166  -0.163  53.603  1.00  0.00    -0.000 A 
HETATM   10  C9  UNL     1      24.460  -0.492  53.949  1.00  0.00     0.045 A 
HETATM   11  C10 UNL     1      25.423   0.471  53.729  1.00  0.00     0.069 A 
HETATM   12 CL1  UNL     1      27.101   0.168  54.128  1.00  0.00    -0.081 Cl
HETATM   13  C11 UNL     1      25.102   1.698  53.191  1.00  0.00     0.095 A 
BRANCH   9  14
HETATM   14  S1  UNL     1      21.921  -1.411  53.888  1.00  0.00    -0.143 SA
HETATM   15  H13 UNL     1      21.254  -1.171  55.101  1.00  0.00     0.107 HD
ENDBRANCH   9  14
BRANCH  13  16
HETATM   16  O1  UNL     1      26.091   2.633  52.980  1.00  0.00    -0.358 OA
HETATM   17  H15 UNL     1      26.748   2.974  53.649  1.00  0.00     0.217 HD
ENDBRANCH  13  16
ENDBRANCH   6   7
ENDBRANCH   1   6
BRANCH   1  18
HETATM   18  C12 UNL     1      23.985   4.944  50.863  1.00  0.00     0.402 C 
BRANCH  18  19
HETATM   19  N2  UNL     1      25.211   4.998  50.087  1.00  0.00    -0.341 N 
HETATM   20  C13 UNL     1      25.550   6.283  49.541  1.00  0.00     0.088 A 
HETATM   21  C14 UNL     1      26.674   6.299  48.837  1.00  0.00    -0.006 A 
HETATM   22  C15 UNL     1      27.608   5.204  48.542  1.00  0.00     0.057 A 
HETATM   23  C16 UNL     1      27.099   3.969  49.181  1.00  0.00    -0.006 A 
HETATM   24  C17 UNL     1      26.004   3.830  49.899  1.00  0.00     0.088 A 
ENDBRANCH  18  19
ENDBRANCH   1  18
TORSDOF 9
ENDMDL
MODEL 7
REMARK VINA RESULT:      -6.3      3.263      5.344
REMARK  9 active torsions:
REMARK  status: ('A' for Active; 'I' for Inactive)
REMARK    1  A    between atoms: C2_2  and  C3_3 
REMARK    2  A    between atoms: C3_3  and  C4_4 
REMARK    3  A    between atoms: C4_4  and  N1_5 
REMARK    4  A    between atoms: N1_5  and  C5_6 
REMARK    5  A    between atoms: N1_5  and  C12_16 
REMARK    6  A    between atoms: C5_6  and  C6_7 
REMARK    7  A    between atoms: C8_9  and  S1_10 
REMARK    8  A    between atoms: C11_14  and  O1_15 
REMARK    9  A    between atoms: C12_16  and  N2_17 
ROOT
HETATM    1  N1  UNL     1      24.781   1.642  52.340  1.00  0.00     0.110 N 
ENDROOT
BRANCH   1   2
HETATM    2  C4  UNL     1      23.734   1.405  53.212  1.00  0.00     0.275 C 
BRANCH   2   3
HETATM    3  C3  UNL     1      22.783   0.293  52.900  1.00  0.00     0.030 C 
BRANCH   3   4
HETATM    4  C2  UNL     1      22.809  -0.675  54.071  1.00  0.00    -0.003 C 
HETATM    5  C1  UNL     1      21.535  -1.455  54.193  1.00  0.00     0.005 C 
ENDBRANCH   3   4
ENDBRANCH   2   3
ENDBRANCH   1   2
BRANCH   1   6
HETATM    6  C5  UNL     1      24.335   2.115  51.062  1.00  0.00     0.316 C 
BRANCH   6   7
HETATM    7  C6  UNL     1      24.617   3.496  50.708  1.00  0.00     0.006 A 
HETATM    8  C7  UNL     1      25.790   3.663  49.953  1.00  0.00     0.030 A 
HETATM    9  C8  UNL     1      26.275   4.876  49.530  1.00  0.00    -0.000 A 
HETATM   10  C9  UNL     1      25.608   6.044  49.837  1.00  0.00     0.045 A 
HETATM   11  C10 UNL     1      24.451   5.919  50.577  1.00  0.00     0.069 A 
HETATM   12 CL1  UNL     1      23.519   7.332  51.026  1.00  0.00    -0.081 Cl
HETATM   13  C11 UNL     1      23.989   4.688  50.987  1.00  0.00     0.095 A 
BRANCH   9  14
HETATM   14  S1  UNL     1      27.773   5.038  48.571  1.00  0.00    -0.143 SA
HETATM   15  H13 UNL     1      28.130   6.391  48.444  1.00  0.00     0.107 HD
ENDBRANCH   9  14
BRANCH  13  16
HETATM   16  O1  UNL     1      22.827   4.602  51.720  1.00  0.00    -0.358 OA
HETATM   17  H15 UNL     1      22.497   3.813  52.234  1.00  0.00     0.217 HD
ENDBRANCH  13  16
ENDBRANCH   6   7
ENDBRANCH   1   6
BRANCH   1  18
HETATM   18  C12 UNL     1      25.752   0.634  52.090  1.00  0.00     0.402 C 
BRANCH  18  19
HETATM   19  N2  UNL     1      26.939   0.888  52.888  1.00  0.00    -0.341 N 
HETATM   20  C13 UNL     1      27.400  -0.210  53.690  1.00  0.00     0.088 A 
HETATM   21  C14 UNL     1      28.484   0.054  54.407  1.00  0.00    -0.006 A 
HETATM   22  C15 UNL     1      29.267   1.294  54.495  1.00  0.00     0.057 A 
HETATM   23  C16 UNL     1      28.646   2.304  53.609  1.00  0.00    -0.006 A 
HETATM   24  C17 UNL     1      27.578   2.160  52.854  1.00  0.00     0.088 A 
ENDBRANCH  18  19
ENDBRANCH   1  18
TORSDOF 9
ENDMDL
MODEL 8
REMARK VINA RESULT:      -6.2      3.101      4.757
REMARK  9 active torsions:
REMARK  status: ('A' for Active; 'I' for Inactive)
REMARK    1  A    between atoms: C2_2  and  C3_3 
REMARK    2  A    between atoms: C3_3  and  C4_4 
REMARK    3  A    between atoms: C4_4  and  N1_5 
REMARK    4  A    between atoms: N1_5  and  C5_6 
REMARK    5  A    between atoms: N1_5  and  C12_16 
REMARK    6  A    between atoms: C5_6  and  C6_7 
REMARK    7  A    between atoms: C8_9  and  S1_10 
REMARK    8  A    between atoms: C11_14  and  O1_15 
REMARK    9  A    between atoms: C12_16  and  N2_17 
ROOT
HETATM    1  N1  UNL     1      24.820   1.295  52.460  1.00  0.00     0.110 N 
ENDROOT
BRANCH   1   2
HETATM    2  C4  UNL     1      23.972   0.843  53.454  1.00  0.00     0.275 C 
BRANCH   2   3
HETATM    3  C3  UNL     1      23.748  -0.631  53.585  1.00  0.00     0.030 C 
BRANCH   3   4
HETATM    4  C2  UNL     1      22.256  -0.882  53.451  1.00  0.00    -0.003 C 
HETATM    5  C1  UNL     1      21.541  -0.779  54.764  1.00  0.00     0.005 C 
ENDBRANCH   3   4
ENDBRANCH   2   3
ENDBRANCH   1   2
BRANCH   1   6
HETATM    6  C5  UNL     1      24.115   1.700  51.279  1.00  0.00     0.316 C 
BRANCH   6   7
HETATM    7  C6  UNL     1      23.433   2.983  51.294  1.00  0.00     0.006 A 
HETATM    8  C7  UNL     1      22.033   2.883  51.346  1.00  0.00     0.030 A 
HETATM    9  C8  UNL     1      21.178   3.957  51.339  1.00  0.00    -0.000 A 
HETATM   10  C9  UNL     1      21.668   5.244  51.276  1.00  0.00     0.045 A 
HETATM   11  C10 UNL     1      23.040   5.382  51.224  1.00  0.00     0.069 A 
HETATM   12 CL1  UNL     1      23.778   6.967  51.143  1.00  0.00    -0.081 Cl
HETATM   13  C11 UNL     1      23.873   4.285  51.234  1.00  0.00     0.095 A 
BRANCH   9  14
HETATM   14  S1  UNL     1      19.401   3.780  51.408  1.00  0.00    -0.143 SA
HETATM   15  H13 UNL     1      19.037   2.431  51.273  1.00  0.00     0.107 HD
ENDBRANCH   9  14
BRANCH  13  16
HETATM   16  O1  UNL     1      25.237   4.461  51.185  1.00  0.00    -0.358 OA
HETATM   17  H15 UNL     1      25.730   5.325  51.116  1.00  0.00     0.217 HD
ENDBRANCH  13  16
ENDBRANCH   6   7
ENDBRANCH   1   6
BRANCH   1  18
HETATM   18  C12 UNL     1      25.917   0.500  52.032  1.00  0.00     0.402 C 
BRANCH  18  19
HETATM   19  N2  UNL     1      27.081   0.789  52.852  1.00  0.00    -0.341 N 
HETATM   20  C13 UNL     1      27.526   2.155  52.847  1.00  0.00     0.088 A 
HETATM   21  C14 UNL     1      28.591   2.385  53.605  1.00  0.00    -0.006 A 
HETATM   22  C15 UNL     1      29.367   1.454  54.434  1.00  0.00     0.057 A 
HETATM   23  C16 UNL     1      28.766   0.106  54.314  1.00  0.00    -0.006 A 
HETATM   24  C17 UNL     1      27.718  -0.243  53.599  1.00  0.00     0.088 A 
ENDBRANCH  18  19
ENDBRANCH   1  18
TORSDOF 9
ENDMDL
MODEL 9
REMARK VINA RESULT:      -5.9      1.709      2.177
REMARK  9 active torsions:
REMARK  status: ('A' for Active; 'I' for Inactive)
REMARK    1  A    between atoms: C2_2  and  C3_3 
REMARK    2  A    between atoms: C3_3  and  C4_4 
REMARK    3  A    between atoms: C4_4  and  N1_5 
REMARK    4  A    between atoms: N1_5  and  C5_6 
REMARK    5  A    between atoms: N1_5  and  C12_16 
REMARK    6  A    between atoms: C5_6  and  C6_7 
REMARK    7  A    between atoms: C8_9  and  S1_10 
REMARK    8  A    between atoms: C11_14  and  O1_15 
REMARK    9  A    between atoms: C12_16  and  N2_17 
ROOT
HETATM    1  N1  UNL     1      25.837   1.634  52.564  1.00  0.00     0.110 N 
ENDROOT
BRANCH   1   2
HETATM    2  C4  UNL     1      25.795   2.028  51.239  1.00  0.00     0.275 C 
BRANCH   2   3
HETATM    3  C3  UNL     1      26.782   3.048  50.766  1.00  0.00     0.030 C 
BRANCH   3   4
HETATM    4  C2  UNL     1      26.297   3.568  49.424  1.00  0.00    -0.003 C 
HETATM    5  C1  UNL     1      25.390   4.753  49.567  1.00  0.00     0.005 C 
ENDBRANCH   3   4
ENDBRANCH   2   3
ENDBRANCH   1   2
BRANCH   1   6
HETATM    6  C5  UNL     1      24.753   2.173  53.332  1.00  0.00     0.316 C 
BRANCH   6   7
HETATM    7  C6  UNL     1      23.449   2.274  52.699  1.00  0.00     0.006 A 
HETATM    8  C7  UNL     1      23.120   3.573  52.276  1.00  0.00     0.030 A 
HETATM    9  C8  UNL     1      21.931   3.917  51.681  1.00  0.00    -0.000 A 
HETATM   10  C9  UNL     1      20.957   2.967  51.459  1.00  0.00     0.045 A 
HETATM   11  C10 UNL     1      21.245   1.680  51.861  1.00  0.00     0.069 A 
HETATM   12 CL1  UNL     1      20.084   0.389  51.631  1.00  0.00    -0.081 Cl
HETATM   13  C11 UNL     1      22.447   1.364  52.455  1.00  0.00     0.095 A 
BRANCH   9  14
HETATM   14  S1  UNL     1      21.558   5.584  51.158  1.00  0.00    -0.143 SA
HETATM   15  H13 UNL     1      22.216   6.514  51.979  1.00  0.00     0.107 HD
ENDBRANCH   9  14
BRANCH  13  16
HETATM   16  O1  UNL     1      22.701   0.067  52.840  1.00  0.00    -0.358 OA
HETATM   17  H15 UNL     1      22.354  -0.399  53.651  1.00  0.00     0.217 HD
ENDBRANCH  13  16
ENDBRANCH   6   7
ENDBRANCH   1   6
BRANCH   1  18
HETATM   18  C12 UNL     1      27.018   1.819  53.334  1.00  0.00     0.402 C 
BRANCH  18  19
HETATM   19  N2  UNL     1      27.804   0.597  53.325  1.00  0.00    -0.341 N 
HETATM   20  C13 UNL     1      29.191   0.743  53.665  1.00  0.00     0.088 A 
HETATM   21  C14 UNL     1      29.881  -0.390  53.648  1.00  0.00    -0.006 A 
HETATM   22  C15 UNL     1      29.432  -1.752  53.333  1.00  0.00     0.057 A 
HETATM   23  C16 UNL     1      27.988  -1.707  53.009  1.00  0.00    -0.006 A 
HETATM   24  C17 UNL     1      27.203  -0.651  52.994  1.00  0.00     0.088 A 
ENDBRANCH  18  19
ENDBRANCH   1  18
TORSDOF 9
ENDMDL
