MODEL 1
REMARK VINA RESULT:      -7.7      0.000      0.000
REMARK  4 active torsions:
REMARK  status: ('A' for Active; 'I' for Inactive)
REMARK    1  A    between atoms: C2_3  and  C3_4 
REMARK    2  A    between atoms: C4_5  and  C5_6 
REMARK    3  A    between atoms: C5_6  and  N1_9 
REMARK    4  A    between atoms: N1_9  and  C7_10 
ROOT
HETATM    1  C7  UNL     1      24.420   1.685  52.475  1.00  0.00     0.140 A 
HETATM    2  N2  UNL     1      23.122   1.569  52.327  1.00  0.00    -0.224 NA
HETATM    3  C8  UNL     1      22.534   0.423  52.964  1.00  0.00     0.229 A 
HETATM    4  N3  UNL     1      23.197  -0.443  53.631  1.00  0.00    -0.278 NA
HETATM    5  C9  UNL     1      24.614  -0.450  53.872  1.00  0.00     0.195 A 
HETATM    6  C10 UNL     1      25.222   0.745  53.245  1.00  0.00     0.041 A 
HETATM    7  C11 UNL     1      26.516   0.952  53.412  1.00  0.00     0.080 C 
HETATM    8  C12 UNL     1      27.295  -0.028  54.200  1.00  0.00     0.033 C 
HETATM    9  C13 UNL     1      28.582  -0.019  54.490  1.00  0.00    -0.022 C 
HETATM   10  C14 UNL     1      29.457   1.091  54.006  1.00  0.00     0.054 C 
HETATM   11  C15 UNL     1      28.575   2.274  53.679  1.00  0.00     0.179 C 
HETATM   12  O1  UNL     1      27.407   1.925  53.014  1.00  0.00    -0.350 OA
ENDROOT
BRANCH   1  13
HETATM   13  N1  UNL     1      24.993   2.816  51.841  1.00  0.00    -0.343 N 
HETATM   14  H6  UNL     1      25.485   3.511  52.480  1.00  0.00     0.167 HD
BRANCH  13  15
HETATM   15  C5  UNL     1      24.968   3.091  50.451  1.00  0.00     0.027 C 
HETATM   16  C6  UNL     1      24.308   3.277  49.326  1.00  0.00     0.235 C 
HETATM   17 BR1  UNL     1      22.632   3.345  48.444  1.00  0.00    -0.191 Br
BRANCH  15  18
HETATM   18  C4  UNL     1      26.321   3.297  49.896  1.00  0.00     0.026 C 
HETATM   19  C3  UNL     1      26.739   4.402  49.253  1.00  0.00    -0.001 C 
BRANCH  19  20
HETATM   20  C2  UNL     1      27.875   5.046  48.572  1.00  0.00    -0.005 C 
HETATM   21  C1  UNL     1      28.009   6.323  48.268  1.00  0.00     0.259 C 
HETATM   22 CL1  UNL     1      29.548   6.478  47.480  1.00  0.00    -0.251 Cl
ENDBRANCH  19  20
ENDBRANCH  15  18
ENDBRANCH  13  15
ENDBRANCH   1  13
TORSDOF 4
ENDMDL
MODEL 2
REMARK VINA RESULT:      -7.5      1.932      3.814
REMARK  4 active torsions:
REMARK  status: ('A' for Active; 'I' for Inactive)
REMARK    1  A    between atoms: C2_3  and  C3_4 
REMARK    2  A    between atoms: C4_5  and  C5_6 
REMARK    3  A    between atoms: C5_6  and  N1_9 
REMARK    4  A    between atoms: N1_9  and  C7_10 
ROOT
HETATM    1  C7  UNL     1      25.465   1.453  52.532  1.00  0.00     0.140 A 
HETATM    2  N2  UNL     1      26.735   1.441  52.208  1.00  0.00    -0.224 NA
HETATM    3  C8  UNL     1      27.454   0.259  52.597  1.00  0.00     0.229 A 
HETATM    4  N3  UNL     1      26.927  -0.728  53.217  1.00  0.00    -0.278 NA
HETATM    5  C9  UNL     1      25.558  -0.852  53.639  1.00  0.00     0.195 A 
HETATM    6  C10 UNL     1      24.805   0.349  53.214  1.00  0.00     0.041 A 
HETATM    7  C11 UNL     1      23.506   0.393  53.454  1.00  0.00     0.080 C 
HETATM    8  C12 UNL     1      22.875  -0.748  54.152  1.00  0.00     0.033 C 
HETATM    9  C13 UNL     1      21.610  -0.914  54.488  1.00  0.00    -0.022 C 
HETATM   10  C14 UNL     1      20.599   0.136  54.163  1.00  0.00     0.054 C 
HETATM   11  C15 UNL     1      21.154   0.991  53.046  1.00  0.00     0.179 C 
HETATM   12  O1  UNL     1      22.498   1.299  53.203  1.00  0.00    -0.350 OA
ENDROOT
BRANCH   1  13
HETATM   13  N1  UNL     1      24.763   2.623  52.147  1.00  0.00    -0.343 N 
HETATM   14  H6  UNL     1      24.610   3.349  52.910  1.00  0.00     0.167 HD
BRANCH  13  15
HETATM   15  C5  UNL     1      24.262   2.903  50.851  1.00  0.00     0.027 C 
HETATM   16  C6  UNL     1      23.411   2.672  49.871  1.00  0.00     0.235 C 
HETATM   17 BR1  UNL     1      21.949   1.655  49.225  1.00  0.00    -0.191 Br
BRANCH  15  18
HETATM   18  C4  UNL     1      24.995   4.001  50.190  1.00  0.00     0.026 C 
HETATM   19  C3  UNL     1      26.217   3.900  49.638  1.00  0.00    -0.001 C 
BRANCH  19  20
HETATM   20  C2  UNL     1      27.284   4.624  48.926  1.00  0.00    -0.005 C 
HETATM   21  C1  UNL     1      27.284   5.890  48.554  1.00  0.00     0.259 C 
HETATM   22 CL1  UNL     1      28.806   6.166  47.763  1.00  0.00    -0.251 Cl
ENDBRANCH  19  20
ENDBRANCH  15  18
ENDBRANCH  13  15
ENDBRANCH   1  13
TORSDOF 4
ENDMDL
MODEL 3
REMARK VINA RESULT:      -7.2      3.059      5.291
REMARK  4 active torsions:
REMARK  status: ('A' for Active; 'I' for Inactive)
REMARK    1  A    between atoms: C2_3  and  C3_4 
REMARK    2  A    between atoms: C4_5  and  C5_6 
REMARK    3  A    between atoms: C5_6  and  N1_9 
REMARK    4  A    between atoms: N1_9  and  C7_10 
ROOT
HETATM    1  C7  UNL     1      23.439   0.046  53.346  1.00  0.00     0.140 A 
HETATM    2  N2  UNL     1      23.958  -0.537  54.400  1.00  0.00    -0.224 NA
HETATM    3  C8  UNL     1      23.043  -1.328  55.175  1.00  0.00     0.229 A 
HETATM    4  N3  UNL     1      21.804  -1.472  54.890  1.00  0.00    -0.278 NA
HETATM    5  C9  UNL     1      21.099  -0.894  53.779  1.00  0.00     0.195 A 
HETATM    6  C10 UNL     1      22.043  -0.103  52.959  1.00  0.00     0.041 A 
HETATM    7  C11 UNL     1      21.595   0.456  51.849  1.00  0.00     0.080 C 
HETATM    8  C12 UNL     1      20.170   0.282  51.493  1.00  0.00     0.033 C 
HETATM    9  C13 UNL     1      19.518   0.746  50.444  1.00  0.00    -0.022 C 
HETATM   10  C14 UNL     1      20.227   1.569  49.418  1.00  0.00     0.054 C 
HETATM   11  C15 UNL     1      21.708   1.292  49.537  1.00  0.00     0.179 C 
HETATM   12  O1  UNL     1      22.154   1.224  50.850  1.00  0.00    -0.350 OA
ENDROOT
BRANCH   1  13
HETATM   13  N1  UNL     1      24.348   0.826  52.588  1.00  0.00    -0.343 N 
HETATM   14  H6  UNL     1      23.999   1.782  52.279  1.00  0.00     0.167 HD
BRANCH  13  15
HETATM   15  C5  UNL     1      25.662   0.444  52.219  1.00  0.00     0.027 C 
HETATM   16  C6  UNL     1      26.631  -0.448  52.170  1.00  0.00     0.235 C 
HETATM   17 BR1  UNL     1      27.223  -2.196  52.599  1.00  0.00    -0.191 Br
BRANCH  15  18
HETATM   18  C4  UNL     1      26.385   1.525  51.519  1.00  0.00     0.026 C 
HETATM   19  C3  UNL     1      25.813   2.590  50.930  1.00  0.00    -0.001 C 
BRANCH  19  20
HETATM   20  C2  UNL     1      26.060   3.828  50.172  1.00  0.00    -0.005 C 
HETATM   21  C1  UNL     1      26.988   4.038  49.258  1.00  0.00     0.259 C 
HETATM   22 CL1  UNL     1      26.785   5.677  48.723  1.00  0.00    -0.251 Cl
ENDBRANCH  19  20
ENDBRANCH  15  18
ENDBRANCH  13  15
ENDBRANCH   1  13
TORSDOF 4
ENDMDL
MODEL 4
REMARK VINA RESULT:      -7.2      1.571      2.245
REMARK  4 active torsions:
REMARK  status: ('A' for Active; 'I' for Inactive)
REMARK    1  A    between atoms: C2_3  and  C3_4 
REMARK    2  A    between atoms: C4_5  and  C5_6 
REMARK    3  A    between atoms: C5_6  and  N1_9 
REMARK    4  A    between atoms: N1_9  and  C7_10 
ROOT
HETATM    1  C7  UNL     1      25.451   2.875  50.867  1.00  0.00     0.140 A 
HETATM    2  N2  UNL     1      24.330   3.085  50.221  1.00  0.00    -0.224 NA
HETATM    3  C8  UNL     1      23.235   2.237  50.605  1.00  0.00     0.229 A 
HETATM    4  N3  UNL     1      23.314   1.331  51.504  1.00  0.00    -0.278 NA
HETATM    5  C9  UNL     1      24.470   0.986  52.286  1.00  0.00     0.195 A 
HETATM    6  C10 UNL     1      25.592   1.877  51.917  1.00  0.00     0.041 A 
HETATM    7  C11 UNL     1      26.731   1.758  52.577  1.00  0.00     0.080 C 
HETATM    8  C12 UNL     1      26.833   0.730  53.635  1.00  0.00     0.033 C 
HETATM    9  C13 UNL     1      27.861   0.442  54.411  1.00  0.00    -0.022 C 
HETATM   10  C14 UNL     1      29.140   1.202  54.282  1.00  0.00     0.054 C 
HETATM   11  C15 UNL     1      28.838   2.516  53.599  1.00  0.00     0.179 C 
HETATM   12  O1  UNL     1      27.952   2.396  52.537  1.00  0.00    -0.350 OA
ENDROOT
BRANCH   1  13
HETATM   13  N1  UNL     1      26.527   3.714  50.480  1.00  0.00    -0.343 N 
HETATM   14  H6  UNL     1      27.450   3.553  50.985  1.00  0.00     0.167 HD
BRANCH  13  15
HETATM   15  C5  UNL     1      26.475   4.727  49.491  1.00  0.00     0.027 C 
HETATM   16  C6  UNL     1      25.838   5.701  48.873  1.00  0.00     0.235 C 
HETATM   17 BR1  UNL     1      24.256   6.732  48.711  1.00  0.00    -0.191 Br
BRANCH  15  18
HETATM   18  C4  UNL     1      27.730   4.822  48.718  1.00  0.00     0.026 C 
HETATM   19  C3  UNL     1      28.294   5.963  48.286  1.00  0.00    -0.001 C 
BRANCH  19  20
HETATM   20  C2  UNL     1      29.428   6.546  47.548  1.00  0.00    -0.005 C 
HETATM   21  C1  UNL     1      30.617   6.861  48.023  1.00  0.00     0.259 C 
HETATM   22 CL1  UNL     1      31.523   7.503  46.687  1.00  0.00    -0.251 Cl
ENDBRANCH  19  20
ENDBRANCH  15  18
ENDBRANCH  13  15
ENDBRANCH   1  13
TORSDOF 4
ENDMDL
MODEL 5
REMARK VINA RESULT:      -7.2      3.749      6.168
REMARK  4 active torsions:
REMARK  status: ('A' for Active; 'I' for Inactive)
REMARK    1  A    between atoms: C2_3  and  C3_4 
REMARK    2  A    between atoms: C4_5  and  C5_6 
REMARK    3  A    between atoms: C5_6  and  N1_9 
REMARK    4  A    between atoms: N1_9  and  C7_10 
ROOT
HETATM    1  C7  UNL     1      22.979  -0.169  53.140  1.00  0.00     0.140 A 
HETATM    2  N2  UNL     1      23.566  -0.747  54.160  1.00  0.00    -0.224 NA
HETATM    3  C8  UNL     1      22.682  -1.413  55.076  1.00  0.00     0.229 A 
HETATM    4  N3  UNL     1      21.410  -1.457  54.940  1.00  0.00    -0.278 NA
HETATM    5  C9  UNL     1      20.634  -0.869  53.883  1.00  0.00     0.195 A 
HETATM    6  C10 UNL     1      21.541  -0.207  52.919  1.00  0.00     0.041 A 
HETATM    7  C11 UNL     1      21.016   0.338  51.836  1.00  0.00     0.080 C 
HETATM    8  C12 UNL     1      19.550   0.279  51.652  1.00  0.00     0.033 C 
HETATM    9  C13 UNL     1      18.822   0.751  50.657  1.00  0.00    -0.022 C 
HETATM   10  C14 UNL     1      19.475   1.457  49.514  1.00  0.00     0.054 C 
HETATM   11  C15 UNL     1      20.931   1.051  49.482  1.00  0.00     0.179 C 
HETATM   12  O1  UNL     1      21.519   1.004  50.739  1.00  0.00    -0.350 OA
ENDROOT
BRANCH   1  13
HETATM   13  N1  UNL     1      23.858   0.489  52.242  1.00  0.00    -0.343 N 
HETATM   14  H6  UNL     1      24.050  -0.014  51.324  1.00  0.00     0.167 HD
BRANCH  13  15
HETATM   15  C5  UNL     1      24.487   1.739  52.462  1.00  0.00     0.027 C 
HETATM   16  C6  UNL     1      24.427   3.048  52.607  1.00  0.00     0.235 C 
HETATM   17 BR1  UNL     1      23.354   4.609  52.647  1.00  0.00    -0.191 Br
BRANCH  15  18
HETATM   18  C4  UNL     1      25.947   1.610  52.641  1.00  0.00     0.026 C 
HETATM   19  C3  UNL     1      26.607   0.457  52.844  1.00  0.00    -0.001 C 
BRANCH  19  20
HETATM   20  C2  UNL     1      27.929  -0.156  53.062  1.00  0.00    -0.005 C 
HETATM   21  C1  UNL     1      28.892   0.276  53.853  1.00  0.00     0.259 C 
HETATM   22 CL1  UNL     1      30.200  -0.856  53.693  1.00  0.00    -0.251 Cl
ENDBRANCH  19  20
ENDBRANCH  15  18
ENDBRANCH  13  15
ENDBRANCH   1  13
TORSDOF 4
ENDMDL
MODEL 6
REMARK VINA RESULT:      -7.0      3.149      4.910
REMARK  4 active torsions:
REMARK  status: ('A' for Active; 'I' for Inactive)
REMARK    1  A    between atoms: C2_3  and  C3_4 
REMARK    2  A    between atoms: C4_5  and  C5_6 
REMARK    3  A    between atoms: C5_6  and  N1_9 
REMARK    4  A    between atoms: N1_9  and  C7_10 
ROOT
HETATM    1  C7  UNL     1      25.562   1.303  52.568  1.00  0.00     0.140 A 
HETATM    2  N2  UNL     1      26.840   1.234  52.279  1.00  0.00    -0.224 NA
HETATM    3  C8  UNL     1      27.512   0.058  52.759  1.00  0.00     0.229 A 
HETATM    4  N3  UNL     1      26.939  -0.872  53.425  1.00  0.00    -0.278 NA
HETATM    5  C9  UNL     1      25.557  -0.929  53.817  1.00  0.00     0.195 A 
HETATM    6  C10 UNL     1      24.852   0.264  53.300  1.00  0.00     0.041 A 
HETATM    7  C11 UNL     1      23.550   0.361  53.502  1.00  0.00     0.080 C 
HETATM    8  C12 UNL     1      22.867  -0.716  54.252  1.00  0.00     0.033 C 
HETATM    9  C13 UNL     1      21.590  -0.823  54.565  1.00  0.00    -0.022 C 
HETATM   10  C14 UNL     1      20.620   0.234  54.149  1.00  0.00     0.054 C 
HETATM   11  C15 UNL     1      21.228   1.001  52.997  1.00  0.00     0.179 C 
HETATM   12  O1  UNL     1      22.577   1.279  53.169  1.00  0.00    -0.350 OA
ENDROOT
BRANCH   1  13
HETATM   13  N1  UNL     1      24.907   2.467  52.093  1.00  0.00    -0.343 N 
HETATM   14  H6  UNL     1      24.369   3.030  52.819  1.00  0.00     0.167 HD
BRANCH  13  15
HETATM   15  C5  UNL     1      24.913   2.937  50.756  1.00  0.00     0.027 C 
HETATM   16  C6  UNL     1      25.516   3.536  49.749  1.00  0.00     0.235 C 
HETATM   17 BR1  UNL     1      27.065   4.415  49.102  1.00  0.00    -0.191 Br
BRANCH  15  18
HETATM   18  C4  UNL     1      23.650   2.640  50.051  1.00  0.00     0.026 C 
HETATM   19  C3  UNL     1      23.240   3.220  48.909  1.00  0.00    -0.001 C 
BRANCH  19  20
HETATM   20  C2  UNL     1      22.169   3.276  47.899  1.00  0.00    -0.005 C 
HETATM   21  C1  UNL     1      22.060   4.122  46.893  1.00  0.00     0.259 C 
HETATM   22 CL1  UNL     1      20.600   3.696  46.054  1.00  0.00    -0.251 Cl
ENDBRANCH  19  20
ENDBRANCH  15  18
ENDBRANCH  13  15
ENDBRANCH   1  13
TORSDOF 4
ENDMDL
MODEL 7
REMARK VINA RESULT:      -7.0      1.601      2.069
REMARK  4 active torsions:
REMARK  status: ('A' for Active; 'I' for Inactive)
REMARK    1  A    between atoms: C2_3  and  C3_4 
REMARK    2  A    between atoms: C4_5  and  C5_6 
REMARK    3  A    between atoms: C5_6  and  N1_9 
REMARK    4  A    between atoms: N1_9  and  C7_10 
ROOT
HETATM    1  C7  UNL     1      22.598   2.360  52.218  1.00  0.00     0.140 A 
HETATM    2  N2  UNL     1      21.339   2.715  52.315  1.00  0.00    -0.224 NA
HETATM    3  C8  UNL     1      20.477   1.747  52.935  1.00  0.00     0.229 A 
HETATM    4  N3  UNL     1      20.873   0.611  53.369  1.00  0.00    -0.278 NA
HETATM    5  C9  UNL     1      22.211   0.087  53.326  1.00  0.00     0.195 A 
HETATM    6  C10 UNL     1      23.110   1.092  52.717  1.00  0.00     0.041 A 
HETATM    7  C11 UNL     1      24.401   0.820  52.650  1.00  0.00     0.080 C 
HETATM    8  C12 UNL     1      24.880  -0.480  53.166  1.00  0.00     0.033 C 
HETATM    9  C13 UNL     1      26.112  -0.953  53.200  1.00  0.00    -0.022 C 
HETATM   10  C14 UNL     1      27.247  -0.140  52.670  1.00  0.00     0.054 C 
HETATM   11  C15 UNL     1      26.814   1.308  52.642  1.00  0.00     0.179 C 
HETATM   12  O1  UNL     1      25.515   1.487  52.186  1.00  0.00    -0.350 OA
ENDROOT
BRANCH   1  13
HETATM   13  N1  UNL     1      23.442   3.320  51.603  1.00  0.00    -0.343 N 
HETATM   14  H6  UNL     1      24.038   3.908  52.260  1.00  0.00     0.167 HD
BRANCH  13  15
HETATM   15  C5  UNL     1      23.557   3.553  50.210  1.00  0.00     0.027 C 
HETATM   16  C6  UNL     1      23.258   3.247  48.963  1.00  0.00     0.235 C 
HETATM   17 BR1  UNL     1      22.327   2.104  47.772  1.00  0.00    -0.191 Br
BRANCH  15  18
HETATM   18  C4  UNL     1      24.420   4.710  49.903  1.00  0.00     0.026 C 
HETATM   19  C3  UNL     1      25.617   4.649  49.292  1.00  0.00    -0.001 C 
BRANCH  19  20
HETATM   20  C2  UNL     1      26.764   5.433  48.802  1.00  0.00    -0.005 C 
HETATM   21  C1  UNL     1      27.976   4.992  48.525  1.00  0.00     0.259 C 
HETATM   22 CL1  UNL     1      28.886   6.371  47.991  1.00  0.00    -0.251 Cl
ENDBRANCH  19  20
ENDBRANCH  15  18
ENDBRANCH  13  15
ENDBRANCH   1  13
TORSDOF 4
ENDMDL
MODEL 8
REMARK VINA RESULT:      -6.9      4.116      6.282
REMARK  4 active torsions:
REMARK  status: ('A' for Active; 'I' for Inactive)
REMARK    1  A    between atoms: C2_3  and  C3_4 
REMARK    2  A    between atoms: C4_5  and  C5_6 
REMARK    3  A    between atoms: C5_6  and  N1_9 
REMARK    4  A    between atoms: N1_9  and  C7_10 
ROOT
HETATM    1  C7  UNL     1      24.376   2.147  51.377  1.00  0.00     0.140 A 
HETATM    2  N2  UNL     1      24.970   2.905  50.486  1.00  0.00    -0.224 NA
HETATM    3  C8  UNL     1      26.403   2.947  50.578  1.00  0.00     0.229 A 
HETATM    4  N3  UNL     1      27.083   2.307  51.453  1.00  0.00    -0.278 NA
HETATM    5  C9  UNL     1      26.572   1.448  52.486  1.00  0.00     0.195 A 
HETATM    6  C10 UNL     1      25.099   1.376  52.378  1.00  0.00     0.041 A 
HETATM    7  C11 UNL     1      24.447   0.579  53.205  1.00  0.00     0.080 C 
HETATM    8  C12 UNL     1      25.219  -0.185  54.210  1.00  0.00     0.033 C 
HETATM    9  C13 UNL     1      24.779  -1.031  55.122  1.00  0.00    -0.022 C 
HETATM   10  C14 UNL     1      23.319  -1.325  55.236  1.00  0.00     0.054 C 
HETATM   11  C15 UNL     1      22.662  -0.956  53.926  1.00  0.00     0.179 C 
HETATM   12  O1  UNL     1      23.124   0.241  53.395  1.00  0.00    -0.350 OA
ENDROOT
BRANCH   1  13
HETATM   13  N1  UNL     1      22.961   2.113  51.281  1.00  0.00    -0.343 N 
HETATM   14  H6  UNL     1      22.427   2.384  52.160  1.00  0.00     0.167 HD
BRANCH  13  15
HETATM   15  C5  UNL     1      22.215   1.758  50.130  1.00  0.00     0.027 C 
HETATM   16  C6  UNL     1      21.907   1.929  48.860  1.00  0.00     0.235 C 
HETATM   17 BR1  UNL     1      22.189   2.903  47.259  1.00  0.00    -0.191 Br
BRANCH  15  18
HETATM   18  C4  UNL     1      21.302   0.625  50.380  1.00  0.00     0.026 C 
HETATM   19  C3  UNL     1      20.360   0.581  51.339  1.00  0.00    -0.001 C 
BRANCH  19  20
HETATM   20  C2  UNL     1      19.294  -0.233  51.949  1.00  0.00    -0.005 C 
HETATM   21  C1  UNL     1      19.103  -0.471  53.232  1.00  0.00     0.259 C 
HETATM   22 CL1  UNL     1      17.698  -1.487  53.335  1.00  0.00    -0.251 Cl
ENDBRANCH  19  20
ENDBRANCH  15  18
ENDBRANCH  13  15
ENDBRANCH   1  13
TORSDOF 4
ENDMDL
MODEL 9
REMARK VINA RESULT:      -6.7      2.396      4.277
REMARK  4 active torsions:
REMARK  status: ('A' for Active; 'I' for Inactive)
REMARK    1  A    between atoms: C2_3  and  C3_4 
REMARK    2  A    between atoms: C4_5  and  C5_6 
REMARK    3  A    between atoms: C5_6  and  N1_9 
REMARK    4  A    between atoms: N1_9  and  C7_10 
ROOT
HETATM    1  C7  UNL     1      26.054   2.467  51.215  1.00  0.00     0.140 A 
HETATM    2  N2  UNL     1      27.303   2.599  51.594  1.00  0.00    -0.224 NA
HETATM    3  C8  UNL     1      27.655   1.892  52.795  1.00  0.00     0.229 A 
HETATM    4  N3  UNL     1      26.836   1.180  53.472  1.00  0.00    -0.278 NA
HETATM    5  C9  UNL     1      25.447   0.949  53.182  1.00  0.00     0.195 A 
HETATM    6  C10 UNL     1      25.085   1.649  51.930  1.00  0.00     0.041 A 
HETATM    7  C11 UNL     1      23.859   1.503  51.461  1.00  0.00     0.080 C 
HETATM    8  C12 UNL     1      22.905   0.665  52.219  1.00  0.00     0.033 C 
HETATM    9  C13 UNL     1      21.646   0.384  51.938  1.00  0.00    -0.022 C 
HETATM   10  C14 UNL     1      21.007   0.938  50.707  1.00  0.00     0.054 C 
HETATM   11  C15 UNL     1      22.105   1.328  49.743  1.00  0.00     0.179 C 
HETATM   12  O1  UNL     1      23.177   1.964  50.355  1.00  0.00    -0.350 OA
ENDROOT
BRANCH   1  13
HETATM   13  N1  UNL     1      25.714   3.170  50.031  1.00  0.00    -0.343 N 
HETATM   14  H6  UNL     1      25.417   2.573  49.202  1.00  0.00     0.167 HD
BRANCH  13  15
HETATM   15  C5  UNL     1      25.733   4.577  49.867  1.00  0.00     0.027 C 
HETATM   16  C6  UNL     1      25.233   5.772  50.111  1.00  0.00     0.235 C 
HETATM   17 BR1  UNL     1      23.899   6.805  50.974  1.00  0.00    -0.191 Br
BRANCH  15  18
HETATM   18  C4  UNL     1      26.851   5.028  49.014  1.00  0.00     0.026 C 
HETATM   19  C3  UNL     1      27.013   6.274  48.536  1.00  0.00    -0.001 C 
BRANCH  19  20
HETATM   20  C2  UNL     1      27.869   7.154  47.722  1.00  0.00    -0.005 C 
HETATM   21  C1  UNL     1      29.115   6.936  47.346  1.00  0.00     0.259 C 
HETATM   22 CL1  UNL     1      29.590   8.319  46.409  1.00  0.00    -0.251 Cl
ENDBRANCH  19  20
ENDBRANCH  15  18
ENDBRANCH  13  15
ENDBRANCH   1  13
TORSDOF 4
ENDMDL
