MODEL 1
REMARK VINA RESULT:      -7.7      0.000      0.000
REMARK  7 active torsions:
REMARK  status: ('A' for Active; 'I' for Inactive)
REMARK    1  A    between atoms: C2_2  and  C3_3 
REMARK    2  A    between atoms: C4_4  and  C5_5 
REMARK    3  A    between atoms: C5_5  and  C6_6 
REMARK    4  A    between atoms: C5_5  and  C17_20 
REMARK    5  A    between atoms: C6_6  and  N1_7 
REMARK       I    between atoms: N1_7  and  C7_8 
REMARK    6  A    between atoms: C7_8  and  C8_10 
REMARK    7  A    between atoms: C8_10  and  C9_11 
ROOT
HETATM    1  N1  UNL     1      26.765   2.390  51.959  1.00  0.00    -0.360 N 
HETATM    2  C7  UNL     1      25.458   2.818  51.598  1.00  0.00     0.223 C 
HETATM    3  O1  UNL     1      24.639   3.090  52.519  1.00  0.00    -0.273 OA
HETATM    4  H9  UNL     1      27.416   2.173  51.196  1.00  0.00     0.162 HD
ENDROOT
BRANCH   2   5
HETATM    5  C8  UNL     1      25.103   2.928  50.138  1.00  0.00     0.157 C 
BRANCH   5   6
HETATM    6  C9  UNL     1      25.922   4.001  49.513  1.00  0.00     0.026 A 
HETATM    7  N2  UNL     1      27.183   3.926  49.243  1.00  0.00    -0.257 NA
HETATM    8  C10 UNL     1      27.666   5.119  48.649  1.00  0.00     0.063 A 
HETATM    9  C11 UNL     1      28.958   5.378  48.237  1.00  0.00     0.032 A 
HETATM   10  C15 UNL     1      26.599   5.988  48.554  1.00  0.00    -0.024 A 
HETATM   11  C12 UNL     1      29.222   6.611  47.679  1.00  0.00     0.002 A 
HETATM   12  C13 UNL     1      28.199   7.541  47.550  1.00  0.00     0.001 A 
HETATM   13  C14 UNL     1      26.930   7.209  47.986  1.00  0.00     0.010 A 
HETATM   14  C16 UNL     1      25.398   5.333  49.103  1.00  0.00     0.096 A 
ENDBRANCH   5   6
ENDBRANCH   2   5
BRANCH   1  15
HETATM   15  C6  UNL     1      26.988   2.323  53.367  1.00  0.00     0.138 C 
BRANCH  15  16
HETATM   16  C5  UNL     1      27.508   0.985  53.851  1.00  0.00     0.095 C 
BRANCH  16  17
HETATM   17  C4  UNL     1      27.136  -0.133  52.971  1.00  0.00    -0.013 C 
HETATM   18  C3  UNL     1      26.032  -0.854  52.910  1.00  0.00    -0.004 C 
BRANCH  18  19
HETATM   19  C2  UNL     1      24.899  -0.628  53.794  1.00  0.00    -0.011 C 
HETATM   20  C1  UNL     1      23.727  -0.272  53.277  1.00  0.00     0.011 C 
ENDBRANCH  18  19
ENDBRANCH  16  17
BRANCH  16  21
HETATM   21  C17 UNL     1      28.961   1.025  54.158  1.00  0.00     0.132 C 
HETATM   22  C18 UNL     1      29.867  -0.038  53.652  1.00  0.00     0.091 C 
HETATM   23  O2  UNL     1      29.501   1.914  54.834  1.00  0.00    -0.298 OA
ENDBRANCH  16  21
ENDBRANCH  15  16
ENDBRANCH   1  15
TORSDOF 7
ENDMDL
MODEL 2
REMARK VINA RESULT:      -7.5      3.872      5.572
REMARK  7 active torsions:
REMARK  status: ('A' for Active; 'I' for Inactive)
REMARK    1  A    between atoms: C2_2  and  C3_3 
REMARK    2  A    between atoms: C4_4  and  C5_5 
REMARK    3  A    between atoms: C5_5  and  C6_6 
REMARK    4  A    between atoms: C5_5  and  C17_20 
REMARK    5  A    between atoms: C6_6  and  N1_7 
REMARK       I    between atoms: N1_7  and  C7_8 
REMARK    6  A    between atoms: C7_8  and  C8_10 
REMARK    7  A    between atoms: C8_10  and  C9_11 
ROOT
HETATM    1  N1  UNL     1      23.944  -0.219  53.823  1.00  0.00    -0.360 N 
HETATM    2  C7  UNL     1      22.705  -0.562  54.429  1.00  0.00     0.223 C 
HETATM    3  O1  UNL     1      22.715  -1.349  55.416  1.00  0.00    -0.273 OA
HETATM    4  H9  UNL     1      23.914   0.422  53.022  1.00  0.00     0.162 HD
ENDROOT
BRANCH   2   5
HETATM    5  C8  UNL     1      21.433   0.023  53.872  1.00  0.00     0.157 C 
BRANCH   5   6
HETATM    6  C9  UNL     1      21.692   0.556  52.509  1.00  0.00     0.026 A 
HETATM    7  N2  UNL     1      22.523   1.500  52.213  1.00  0.00    -0.257 NA
HETATM    8  C10 UNL     1      22.537   1.774  50.822  1.00  0.00     0.063 A 
HETATM    9  C11 UNL     1      23.304   2.717  50.169  1.00  0.00     0.032 A 
HETATM   10  C15 UNL     1      21.634   0.916  50.229  1.00  0.00    -0.024 A 
HETATM   11  C12 UNL     1      23.166   2.824  48.801  1.00  0.00     0.002 A 
HETATM   12  C13 UNL     1      22.276   1.995  48.132  1.00  0.00     0.001 A 
HETATM   13  C14 UNL     1      21.542   1.074  48.855  1.00  0.00     0.010 A 
HETATM   14  C16 UNL     1      21.024   0.069  51.270  1.00  0.00     0.096 A 
ENDBRANCH   5   6
ENDBRANCH   2   5
BRANCH   1  15
HETATM   15  C6  UNL     1      25.080  -0.832  54.432  1.00  0.00     0.138 C 
BRANCH  15  16
HETATM   16  C5  UNL     1      26.411  -0.320  53.923  1.00  0.00     0.095 C 
BRANCH  16  17
HETATM   17  C4  UNL     1      27.042  -1.220  52.947  1.00  0.00    -0.013 C 
HETATM   18  C3  UNL     1      28.293  -1.629  52.831  1.00  0.00    -0.004 C 
BRANCH  18  19
HETATM   19  C2  UNL     1      29.342  -1.207  53.745  1.00  0.00    -0.011 C 
HETATM   20  C1  UNL     1      29.987  -0.066  53.519  1.00  0.00     0.011 C 
ENDBRANCH  18  19
ENDBRANCH  16  17
BRANCH  16  21
HETATM   21  C17 UNL     1      26.327   1.086  53.448  1.00  0.00     0.132 C 
HETATM   22  C18 UNL     1      26.448   1.400  52.002  1.00  0.00     0.091 C 
HETATM   23  O2  UNL     1      26.158   2.060  54.196  1.00  0.00    -0.298 OA
ENDBRANCH  16  21
ENDBRANCH  15  16
ENDBRANCH   1  15
TORSDOF 7
ENDMDL
MODEL 3
REMARK VINA RESULT:      -7.3      2.680      5.254
REMARK  7 active torsions:
REMARK  status: ('A' for Active; 'I' for Inactive)
REMARK    1  A    between atoms: C2_2  and  C3_3 
REMARK    2  A    between atoms: C4_4  and  C5_5 
REMARK    3  A    between atoms: C5_5  and  C6_6 
REMARK    4  A    between atoms: C5_5  and  C17_20 
REMARK    5  A    between atoms: C6_6  and  N1_7 
REMARK       I    between atoms: N1_7  and  C7_8 
REMARK    6  A    between atoms: C7_8  and  C8_10 
REMARK    7  A    between atoms: C8_10  and  C9_11 
ROOT
HETATM    1  N1  UNL     1      26.122   2.741  52.085  1.00  0.00    -0.360 N 
HETATM    2  C7  UNL     1      26.057   3.387  50.820  1.00  0.00     0.223 C 
HETATM    3  O1  UNL     1      27.072   3.344  50.071  1.00  0.00    -0.273 OA
HETATM    4  H9  UNL     1      25.287   2.787  52.680  1.00  0.00     0.162 HD
ENDROOT
BRANCH   2   5
HETATM    5  C8  UNL     1      24.787   4.094  50.426  1.00  0.00     0.157 C 
BRANCH   5   6
HETATM    6  C9  UNL     1      23.618   3.297  50.883  1.00  0.00     0.026 A 
HETATM    7  N2  UNL     1      23.260   2.146  50.416  1.00  0.00    -0.257 NA
HETATM    8  C10 UNL     1      22.103   1.650  51.066  1.00  0.00     0.063 A 
HETATM    9  C11 UNL     1      21.457   0.457  50.815  1.00  0.00     0.032 A 
HETATM   10  C15 UNL     1      21.732   2.586  52.009  1.00  0.00    -0.024 A 
HETATM   11  C12 UNL     1      20.339   0.159  51.566  1.00  0.00     0.002 A 
HETATM   12  C13 UNL     1      19.902   1.053  52.534  1.00  0.00     0.001 A 
HETATM   13  C14 UNL     1      20.602   2.228  52.728  1.00  0.00     0.010 A 
HETATM   14  C16 UNL     1      22.679   3.715  51.960  1.00  0.00     0.096 A 
ENDBRANCH   5   6
ENDBRANCH   2   5
BRANCH   1  15
HETATM   15  C6  UNL     1      27.372   2.105  52.351  1.00  0.00     0.138 C 
BRANCH  15  16
HETATM   16  C5  UNL     1      27.301   1.003  53.387  1.00  0.00     0.095 C 
BRANCH  16  17
HETATM   17  C4  UNL     1      26.717  -0.242  52.868  1.00  0.00    -0.013 C 
HETATM   18  C3  UNL     1      25.476  -0.694  52.899  1.00  0.00    -0.004 C 
BRANCH  18  19
HETATM   19  C2  UNL     1      24.388   0.049  53.514  1.00  0.00    -0.011 C 
HETATM   20  C1  UNL     1      23.298  -0.598  53.915  1.00  0.00     0.011 C 
ENDBRANCH  18  19
ENDBRANCH  16  17
BRANCH  16  21
HETATM   21  C17 UNL     1      28.602   0.793  54.074  1.00  0.00     0.132 C 
HETATM   22  C18 UNL     1      29.471  -0.354  53.706  1.00  0.00     0.091 C 
HETATM   23  O2  UNL     1      29.039   1.531  54.969  1.00  0.00    -0.298 OA
ENDBRANCH  16  21
ENDBRANCH  15  16
ENDBRANCH   1  15
TORSDOF 7
ENDMDL
MODEL 4
REMARK VINA RESULT:      -7.3      1.613      2.676
REMARK  7 active torsions:
REMARK  status: ('A' for Active; 'I' for Inactive)
REMARK    1  A    between atoms: C2_2  and  C3_3 
REMARK    2  A    between atoms: C4_4  and  C5_5 
REMARK    3  A    between atoms: C5_5  and  C6_6 
REMARK    4  A    between atoms: C5_5  and  C17_20 
REMARK    5  A    between atoms: C6_6  and  N1_7 
REMARK       I    between atoms: N1_7  and  C7_8 
REMARK    6  A    between atoms: C7_8  and  C8_10 
REMARK    7  A    between atoms: C8_10  and  C9_11 
ROOT
HETATM    1  N1  UNL     1      25.621   2.288  51.823  1.00  0.00    -0.360 N 
HETATM    2  C7  UNL     1      24.252   2.472  51.488  1.00  0.00     0.223 C 
HETATM    3  O1  UNL     1      23.382   2.273  52.380  1.00  0.00    -0.273 OA
HETATM    4  H9  UNL     1      26.313   2.454  51.084  1.00  0.00     0.162 HD
ENDROOT
BRANCH   2   5
HETATM    5  C8  UNL     1      23.894   2.896  50.087  1.00  0.00     0.157 C 
BRANCH   5   6
HETATM    6  C9  UNL     1      24.883   3.899  49.609  1.00  0.00     0.026 A 
HETATM    7  N2  UNL     1      26.121   3.662  49.324  1.00  0.00    -0.257 NA
HETATM    8  C10 UNL     1      26.796   4.832  48.895  1.00  0.00     0.063 A 
HETATM    9  C11 UNL     1      28.119   4.934  48.516  1.00  0.00     0.032 A 
HETATM   10  C15 UNL     1      25.882   5.864  48.926  1.00  0.00    -0.024 A 
HETATM   11  C12 UNL     1      28.584   6.174  48.129  1.00  0.00     0.002 A 
HETATM   12  C13 UNL     1      27.724   7.264  48.134  1.00  0.00     0.001 A 
HETATM   13  C14 UNL     1      26.412   7.082  48.527  1.00  0.00     0.010 A 
HETATM   14  C16 UNL     1      24.584   5.341  49.387  1.00  0.00     0.096 A 
ENDBRANCH   5   6
ENDBRANCH   2   5
BRANCH   1  15
HETATM   15  C6  UNL     1      25.840   1.887  53.175  1.00  0.00     0.138 C 
BRANCH  15  16
HETATM   16  C5  UNL     1      26.674   0.631  53.324  1.00  0.00     0.095 C 
BRANCH  16  17
HETATM   17  C4  UNL     1      27.372   0.549  54.615  1.00  0.00    -0.013 C 
HETATM   18  C3  UNL     1      28.638   0.300  54.899  1.00  0.00    -0.004 C 
BRANCH  18  19
HETATM   19  C2  UNL     1      29.635   0.044  53.871  1.00  0.00    -0.011 C 
HETATM   20  C1  UNL     1      30.043  -1.203  53.652  1.00  0.00     0.011 C 
ENDBRANCH  18  19
ENDBRANCH  16  17
BRANCH  16  21
HETATM   21  C17 UNL     1      25.902  -0.597  53.001  1.00  0.00     0.132 C 
HETATM   22  C18 UNL     1      26.591  -1.802  52.473  1.00  0.00     0.091 C 
HETATM   23  O2  UNL     1      24.674  -0.701  53.143  1.00  0.00    -0.298 OA
ENDBRANCH  16  21
ENDBRANCH  15  16
ENDBRANCH   1  15
TORSDOF 7
ENDMDL
MODEL 5
REMARK VINA RESULT:      -7.3      2.311      6.601
REMARK  7 active torsions:
REMARK  status: ('A' for Active; 'I' for Inactive)
REMARK    1  A    between atoms: C2_2  and  C3_3 
REMARK    2  A    between atoms: C4_4  and  C5_5 
REMARK    3  A    between atoms: C5_5  and  C6_6 
REMARK    4  A    between atoms: C5_5  and  C17_20 
REMARK    5  A    between atoms: C6_6  and  N1_7 
REMARK       I    between atoms: N1_7  and  C7_8 
REMARK    6  A    between atoms: C7_8  and  C8_10 
REMARK    7  A    between atoms: C8_10  and  C9_11 
ROOT
HETATM    1  N1  UNL     1      24.434   2.426  52.431  1.00  0.00    -0.360 N 
HETATM    2  C7  UNL     1      23.601   1.275  52.466  1.00  0.00     0.223 C 
HETATM    3  O1  UNL     1      22.619   1.220  51.676  1.00  0.00    -0.273 OA
HETATM    4  H9  UNL     1      25.229   2.452  53.081  1.00  0.00     0.162 HD
ENDROOT
BRANCH   2   5
HETATM    5  C8  UNL     1      23.922   0.170  53.439  1.00  0.00     0.157 C 
BRANCH   5   6
HETATM    6  C9  UNL     1      25.393  -0.040  53.477  1.00  0.00     0.026 A 
HETATM    7  N2  UNL     1      26.260   0.778  53.976  1.00  0.00    -0.257 NA
HETATM    8  C10 UNL     1      27.583   0.284  53.855  1.00  0.00     0.063 A 
HETATM    9  C11 UNL     1      28.742   0.900  54.282  1.00  0.00     0.032 A 
HETATM   10  C15 UNL     1      27.504  -0.942  53.228  1.00  0.00    -0.024 A 
HETATM   11  C12 UNL     1      29.936   0.245  54.067  1.00  0.00     0.002 A 
HETATM   12  C13 UNL     1      29.939  -0.993  53.440  1.00  0.00     0.001 A 
HETATM   13  C14 UNL     1      28.737  -1.548  53.041  1.00  0.00     0.010 A 
HETATM   14  C16 UNL     1      26.090  -1.240  52.937  1.00  0.00     0.096 A 
ENDBRANCH   5   6
ENDBRANCH   2   5
BRANCH   1  15
HETATM   15  C6  UNL     1      24.036   3.405  51.472  1.00  0.00     0.138 C 
BRANCH  15  16
HETATM   16  C5  UNL     1      24.640   3.211  50.097  1.00  0.00     0.095 C 
BRANCH  16  17
HETATM   17  C4  UNL     1      23.893   3.899  49.034  1.00  0.00    -0.013 C 
HETATM   18  C3  UNL     1      22.967   3.456  48.203  1.00  0.00    -0.004 C 
BRANCH  18  19
HETATM   19  C2  UNL     1      22.497   2.080  48.217  1.00  0.00    -0.011 C 
HETATM   20  C1  UNL     1      21.204   1.832  48.408  1.00  0.00     0.011 C 
ENDBRANCH  18  19
ENDBRANCH  16  17
BRANCH  16  21
HETATM   21  C17 UNL     1      26.095   3.515  50.076  1.00  0.00     0.132 C 
HETATM   22  C18 UNL     1      26.638   4.528  49.135  1.00  0.00     0.091 C 
HETATM   23  O2  UNL     1      26.928   2.965  50.812  1.00  0.00    -0.298 OA
ENDBRANCH  16  21
ENDBRANCH  15  16
ENDBRANCH   1  15
TORSDOF 7
ENDMDL
MODEL 6
REMARK VINA RESULT:      -7.2      1.903      2.769
REMARK  7 active torsions:
REMARK  status: ('A' for Active; 'I' for Inactive)
REMARK    1  A    between atoms: C2_2  and  C3_3 
REMARK    2  A    between atoms: C4_4  and  C5_5 
REMARK    3  A    between atoms: C5_5  and  C6_6 
REMARK    4  A    between atoms: C5_5  and  C17_20 
REMARK    5  A    between atoms: C6_6  and  N1_7 
REMARK       I    between atoms: N1_7  and  C7_8 
REMARK    6  A    between atoms: C7_8  and  C8_10 
REMARK    7  A    between atoms: C8_10  and  C9_11 
ROOT
HETATM    1  N1  UNL     1      25.226   2.395  51.857  1.00  0.00    -0.360 N 
HETATM    2  C7  UNL     1      26.451   2.614  51.171  1.00  0.00     0.223 C 
HETATM    3  O1  UNL     1      27.529   2.524  51.822  1.00  0.00    -0.273 OA
HETATM    4  H9  UNL     1      24.360   2.472  51.311  1.00  0.00     0.162 HD
ENDROOT
BRANCH   2   5
HETATM    5  C8  UNL     1      26.416   2.944  49.701  1.00  0.00     0.157 C 
BRANCH   5   6
HETATM    6  C9  UNL     1      26.391   4.421  49.530  1.00  0.00     0.026 A 
HETATM    7  N2  UNL     1      25.578   5.235  50.119  1.00  0.00    -0.257 NA
HETATM    8  C10 UNL     1      25.814   6.581  49.741  1.00  0.00     0.063 A 
HETATM    9  C11 UNL     1      25.132   7.698  50.180  1.00  0.00     0.032 A 
HETATM   10  C15 UNL     1      26.862   6.575  48.845  1.00  0.00    -0.024 A 
HETATM   11  C12 UNL     1      25.521   8.925  49.686  1.00  0.00     0.002 A 
HETATM   12  C13 UNL     1      26.569   9.001  48.778  1.00  0.00     0.001 A 
HETATM   13  C14 UNL     1      27.204   7.838  48.387  1.00  0.00     0.010 A 
HETATM   14  C16 UNL     1      27.310   5.185  48.643  1.00  0.00     0.096 A 
ENDBRANCH   5   6
ENDBRANCH   2   5
BRANCH   1  15
HETATM   15  C6  UNL     1      25.381   2.090  53.243  1.00  0.00     0.138 C 
BRANCH  15  16
HETATM   16  C5  UNL     1      24.932   0.695  53.627  1.00  0.00     0.095 C 
BRANCH  16  17
HETATM   17  C4  UNL     1      23.889   0.158  52.741  1.00  0.00    -0.013 C 
HETATM   18  C3  UNL     1      22.743  -0.437  53.017  1.00  0.00    -0.004 C 
BRANCH  18  19
HETATM   19  C2  UNL     1      22.293  -0.675  54.379  1.00  0.00    -0.011 C 
HETATM   20  C1  UNL     1      21.334  -1.569  54.605  1.00  0.00     0.011 C 
ENDBRANCH  18  19
ENDBRANCH  16  17
BRANCH  16  21
HETATM   21  C17 UNL     1      26.078  -0.234  53.808  1.00  0.00     0.132 C 
HETATM   22  C18 UNL     1      26.627  -0.984  52.649  1.00  0.00     0.091 C 
HETATM   23  O2  UNL     1      26.636  -0.442  54.895  1.00  0.00    -0.298 OA
ENDBRANCH  16  21
ENDBRANCH  15  16
ENDBRANCH   1  15
TORSDOF 7
ENDMDL
MODEL 7
REMARK VINA RESULT:      -7.2      2.984      5.580
REMARK  7 active torsions:
REMARK  status: ('A' for Active; 'I' for Inactive)
REMARK    1  A    between atoms: C2_2  and  C3_3 
REMARK    2  A    between atoms: C4_4  and  C5_5 
REMARK    3  A    between atoms: C5_5  and  C6_6 
REMARK    4  A    between atoms: C5_5  and  C17_20 
REMARK    5  A    between atoms: C6_6  and  N1_7 
REMARK       I    between atoms: N1_7  and  C7_8 
REMARK    6  A    between atoms: C7_8  and  C8_10 
REMARK    7  A    between atoms: C8_10  and  C9_11 
ROOT
HETATM    1  N1  UNL     1      25.283  -0.692  53.192  1.00  0.00    -0.360 N 
HETATM    2  C7  UNL     1      24.552  -0.799  54.407  1.00  0.00     0.223 C 
HETATM    3  O1  UNL     1      25.184  -1.067  55.466  1.00  0.00    -0.273 OA
HETATM    4  H9  UNL     1      24.751  -0.473  52.341  1.00  0.00     0.162 HD
ENDROOT
BRANCH   2   5
HETATM    5  C8  UNL     1      23.061  -0.589  54.383  1.00  0.00     0.157 C 
BRANCH   5   6
HETATM    6  C9  UNL     1      22.681   0.099  53.121  1.00  0.00     0.026 A 
HETATM    7  N2  UNL     1      23.156   1.226  52.704  1.00  0.00    -0.257 NA
HETATM    8  C10 UNL     1      22.588   1.611  51.463  1.00  0.00     0.063 A 
HETATM    9  C11 UNL     1      22.870   2.752  50.740  1.00  0.00     0.032 A 
HETATM   10  C15 UNL     1      21.692   0.626  51.103  1.00  0.00    -0.024 A 
HETATM   11  C12 UNL     1      22.203   2.939  49.547  1.00  0.00     0.002 A 
HETATM   12  C13 UNL     1      21.283   1.992  49.117  1.00  0.00     0.001 A 
HETATM   13  C14 UNL     1      21.055   0.874  49.897  1.00  0.00     0.010 A 
HETATM   14  C16 UNL     1      21.685  -0.418  52.143  1.00  0.00     0.096 A 
ENDBRANCH   5   6
ENDBRANCH   2   5
BRANCH   1  15
HETATM   15  C6  UNL     1      26.686  -0.910  53.334  1.00  0.00     0.138 C 
BRANCH  15  16
HETATM   16  C5  UNL     1      27.533   0.327  53.118  1.00  0.00     0.095 C 
BRANCH  16  17
HETATM   17  C4  UNL     1      26.767   1.578  53.219  1.00  0.00    -0.013 C 
HETATM   18  C3  UNL     1      26.357   2.418  52.287  1.00  0.00    -0.004 C 
BRANCH  18  19
HETATM   19  C2  UNL     1      26.627   2.212  50.873  1.00  0.00    -0.011 C 
HETATM   20  C1  UNL     1      26.458   3.218  50.020  1.00  0.00     0.011 C 
ENDBRANCH  18  19
ENDBRANCH  16  17
BRANCH  16  21
HETATM   21  C17 UNL     1      28.757   0.324  53.960  1.00  0.00     0.132 C 
HETATM   22  C18 UNL     1      29.836  -0.667  53.715  1.00  0.00     0.091 C 
HETATM   23  O2  UNL     1      28.958   1.115  54.893  1.00  0.00    -0.298 OA
ENDBRANCH  16  21
ENDBRANCH  15  16
ENDBRANCH   1  15
TORSDOF 7
ENDMDL
MODEL 8
REMARK VINA RESULT:      -7.2      1.981      6.977
REMARK  7 active torsions:
REMARK  status: ('A' for Active; 'I' for Inactive)
REMARK    1  A    between atoms: C2_2  and  C3_3 
REMARK    2  A    between atoms: C4_4  and  C5_5 
REMARK    3  A    between atoms: C5_5  and  C6_6 
REMARK    4  A    between atoms: C5_5  and  C17_20 
REMARK    5  A    between atoms: C6_6  and  N1_7 
REMARK       I    between atoms: N1_7  and  C7_8 
REMARK    6  A    between atoms: C7_8  and  C8_10 
REMARK    7  A    between atoms: C8_10  and  C9_11 
ROOT
HETATM    1  N1  UNL     1      25.404   3.743  51.130  1.00  0.00    -0.360 N 
HETATM    2  C7  UNL     1      24.325   3.368  51.977  1.00  0.00     0.223 C 
HETATM    3  O1  UNL     1      23.153   3.409  51.510  1.00  0.00    -0.273 OA
HETATM    4  H9  UNL     1      26.350   3.703  51.528  1.00  0.00     0.162 HD
ENDROOT
BRANCH   2   5
HETATM    5  C8  UNL     1      24.621   2.940  53.390  1.00  0.00     0.157 C 
BRANCH   5   6
HETATM    6  C9  UNL     1      25.740   1.962  53.384  1.00  0.00     0.026 A 
HETATM    7  N2  UNL     1      26.958   2.206  53.742  1.00  0.00    -0.257 NA
HETATM    8  C10 UNL     1      27.784   1.060  53.619  1.00  0.00     0.063 A 
HETATM    9  C11 UNL     1      29.129   0.971  53.915  1.00  0.00     0.032 A 
HETATM   10  C15 UNL     1      26.991   0.036  53.144  1.00  0.00    -0.024 A 
HETATM   11  C12 UNL     1      29.751  -0.245  53.723  1.00  0.00     0.002 A 
HETATM   12  C13 UNL     1      29.019  -1.325  53.247  1.00  0.00     0.001 A 
HETATM   13  C14 UNL     1      27.675  -1.158  52.974  1.00  0.00     0.010 A 
HETATM   14  C16 UNL     1      25.618   0.540  52.958  1.00  0.00     0.096 A 
ENDBRANCH   5   6
ENDBRANCH   2   5
BRANCH   1  15
HETATM   15  C6  UNL     1      25.006   4.130  49.815  1.00  0.00     0.138 C 
BRANCH  15  16
HETATM   16  C5  UNL     1      25.569   5.460  49.361  1.00  0.00     0.095 C 
BRANCH  16  17
HETATM   17  C4  UNL     1      25.432   6.521  50.369  1.00  0.00    -0.013 C 
HETATM   18  C3  UNL     1      24.396   7.272  50.699  1.00  0.00    -0.004 C 
BRANCH  18  19
HETATM   19  C2  UNL     1      23.101   7.148  50.048  1.00  0.00    -0.011 C 
HETATM   20  C1  UNL     1      22.630   8.163  49.329  1.00  0.00     0.011 C 
ENDBRANCH  18  19
ENDBRANCH  16  17
BRANCH  16  21
HETATM   21  C17 UNL     1      26.953   5.333  48.835  1.00  0.00     0.132 C 
HETATM   22  C18 UNL     1      27.623   6.493  48.193  1.00  0.00     0.091 C 
HETATM   23  O2  UNL     1      27.622   4.291  48.890  1.00  0.00    -0.298 OA
ENDBRANCH  16  21
ENDBRANCH  15  16
ENDBRANCH   1  15
TORSDOF 7
ENDMDL
MODEL 9
REMARK VINA RESULT:      -7.1      1.600      1.970
REMARK  7 active torsions:
REMARK  status: ('A' for Active; 'I' for Inactive)
REMARK    1  A    between atoms: C2_2  and  C3_3 
REMARK    2  A    between atoms: C4_4  and  C5_5 
REMARK    3  A    between atoms: C5_5  and  C6_6 
REMARK    4  A    between atoms: C5_5  and  C17_20 
REMARK    5  A    between atoms: C6_6  and  N1_7 
REMARK       I    between atoms: N1_7  and  C7_8 
REMARK    6  A    between atoms: C7_8  and  C8_10 
REMARK    7  A    between atoms: C8_10  and  C9_11 
ROOT
HETATM    1  N1  UNL     1      25.086   2.959  52.225  1.00  0.00    -0.360 N 
HETATM    2  C7  UNL     1      25.848   2.918  51.025  1.00  0.00     0.223 C 
HETATM    3  O1  UNL     1      26.983   2.366  51.053  1.00  0.00    -0.273 OA
HETATM    4  H9  UNL     1      24.166   3.411  52.183  1.00  0.00     0.162 HD
ENDROOT
BRANCH   2   5
HETATM    5  C8  UNL     1      25.274   3.531  49.775  1.00  0.00     0.157 C 
BRANCH   5   6
HETATM    6  C9  UNL     1      26.240   4.519  49.224  1.00  0.00     0.026 A 
HETATM    7  N2  UNL     1      27.485   4.293  48.966  1.00  0.00    -0.257 NA
HETATM    8  C10 UNL     1      28.134   5.444  48.450  1.00  0.00     0.063 A 
HETATM    9  C11 UNL     1      29.456   5.551  48.071  1.00  0.00     0.032 A 
HETATM   10  C15 UNL     1      27.192   6.450  48.392  1.00  0.00    -0.024 A 
HETATM   11  C12 UNL     1      29.891   6.768  47.589  1.00  0.00     0.002 A 
HETATM   12  C13 UNL     1      29.003   7.831  47.502  1.00  0.00     0.001 A 
HETATM   13  C14 UNL     1      27.692   7.646  47.900  1.00  0.00     0.010 A 
HETATM   14  C16 UNL     1      25.905   5.930  48.886  1.00  0.00     0.096 A 
ENDBRANCH   5   6
ENDBRANCH   2   5
BRANCH   1  15
HETATM   15  C6  UNL     1      25.729   2.349  53.344  1.00  0.00     0.138 C 
BRANCH  15  16
HETATM   16  C5  UNL     1      25.155   1.001  53.732  1.00  0.00     0.095 C 
BRANCH  16  17
HETATM   17  C4  UNL     1      24.164   0.496  52.771  1.00  0.00    -0.013 C 
HETATM   18  C3  UNL     1      23.129  -0.308  52.939  1.00  0.00    -0.004 C 
BRANCH  18  19
HETATM   19  C2  UNL     1      22.778  -0.871  54.233  1.00  0.00    -0.011 C 
HETATM   20  C1  UNL     1      21.695  -0.431  54.867  1.00  0.00     0.011 C 
ENDBRANCH  18  19
ENDBRANCH  16  17
BRANCH  16  21
HETATM   21  C17 UNL     1      26.216   0.010  54.049  1.00  0.00     0.132 C 
HETATM   22  C18 UNL     1      26.966  -0.664  52.958  1.00  0.00     0.091 C 
HETATM   23  O2  UNL     1      26.539  -0.313  55.202  1.00  0.00    -0.298 OA
ENDBRANCH  16  21
ENDBRANCH  15  16
ENDBRANCH   1  15
TORSDOF 7
ENDMDL
