MODEL 1
REMARK VINA RESULT:      -8.0      0.000      0.000
REMARK  1 active torsions:
REMARK  status: ('A' for Active; 'I' for Inactive)
REMARK    1  A    between atoms: N1_2  and  C2_3 
ROOT
HETATM    1  C2  UNL     1      24.954   2.405  51.981  1.00  0.00     0.367 C 
HETATM    2  N2  UNL     1      26.157   2.099  52.626  1.00  0.00    -0.219 NA
HETATM    3  C3  UNL     1      27.383   2.278  52.541  1.00  0.00     0.233 C 
HETATM    4  N3  UNL     1      28.553   1.924  53.253  1.00  0.00    -0.231 NA
HETATM    5  C4  UNL     1      28.831   0.855  53.909  1.00  0.00     0.254 C 
HETATM    6  O1  UNL     1      28.162  -0.433  54.239  1.00  0.00    -0.325 OA
HETATM    7  C5  UNL     1      26.773  -0.258  53.865  1.00  0.00     0.111 A 
HETATM    8  C6  UNL     1      26.614   0.213  55.118  1.00  0.00     0.001 A 
HETATM    9  C7  UNL     1      25.434   0.330  54.428  1.00  0.00     0.092 A 
HETATM   10  C8  UNL     1      25.400  -0.091  53.140  1.00  0.00     0.127 A 
HETATM   11  C9  UNL     1      26.021  -0.641  52.065  1.00  0.00     0.015 A 
HETATM   12  C10 UNL     1      27.230  -0.784  52.701  1.00  0.00     0.015 A 
HETATM   13  O2  UNL     1      24.073   0.233  52.766  1.00  0.00    -0.344 OA
HETATM   14  C11 UNL     1      23.808   1.611  52.520  1.00  0.00     0.292 C 
HETATM   15  N4  UNL     1      22.597   1.742  51.784  1.00  0.00    -0.216 NA
HETATM   16 BR1  UNL     1      21.900  -0.005  51.466  1.00  0.00     0.015 Br
HETATM   17  C12 UNL     1      21.571   2.423  52.566  1.00  0.00     0.109 C 
HETATM   18  C13 UNL     1      21.437   3.813  52.055  1.00  0.00     0.044 C 
HETATM   19  C14 UNL     1      22.456   4.724  52.626  1.00  0.00    -0.009 C 
HETATM   20  C15 UNL     1      23.754   4.760  52.705  1.00  0.00     0.083 C 
HETATM   21  N5  UNL     1      24.728   3.849  52.223  1.00  0.00    -0.344 N 
HETATM   22  H18 UNL     1      25.647   4.290  51.905  1.00  0.00     0.163 HD
ENDROOT
BRANCH   1  23
HETATM   23  N1  UNL     1      25.183   2.204  50.552  1.00  0.00     0.135 N 
HETATM   24  C1  UNL     1      25.156   3.391  49.769  1.00  0.00     0.312 C 
HETATM   25  H4  UNL     1      26.109   1.739  50.418  1.00  0.00     0.321 HD
ENDBRANCH   1  23
TORSDOF 1
ENDMDL
MODEL 2
REMARK VINA RESULT:      -7.6      2.482      3.811
REMARK  1 active torsions:
REMARK  status: ('A' for Active; 'I' for Inactive)
REMARK    1  A    between atoms: N1_2  and  C2_3 
ROOT
HETATM    1  C2  UNL     1      23.017   1.844  51.540  1.00  0.00     0.367 C 
HETATM    2  N2  UNL     1      23.634   0.895  52.361  1.00  0.00    -0.219 NA
HETATM    3  C3  UNL     1      23.432   0.194  53.366  1.00  0.00     0.233 C 
HETATM    4  N3  UNL     1      24.128  -0.759  54.145  1.00  0.00    -0.231 NA
HETATM    5  C4  UNL     1      25.378  -0.838  54.435  1.00  0.00     0.254 C 
HETATM    6  O1  UNL     1      26.620  -0.069  54.147  1.00  0.00    -0.325 OA
HETATM    7  C5  UNL     1      26.267   0.862  53.094  1.00  0.00     0.111 A 
HETATM    8  C6  UNL     1      26.619  -0.133  52.255  1.00  0.00     0.001 A 
HETATM    9  C7  UNL     1      26.128   0.926  51.535  1.00  0.00     0.092 A 
HETATM   10  C8  UNL     1      25.716   2.026  52.212  1.00  0.00     0.127 A 
HETATM   11  C9  UNL     1      25.530   2.684  53.385  1.00  0.00     0.015 A 
HETATM   12  C10 UNL     1      26.010   1.659  54.161  1.00  0.00     0.015 A 
HETATM   13  O2  UNL     1      25.242   2.850  51.162  1.00  0.00    -0.344 OA
HETATM   14  C11 UNL     1      23.983   2.491  50.601  1.00  0.00     0.292 C 
HETATM   15  N4  UNL     1      23.453   3.593  49.871  1.00  0.00    -0.216 NA
HETATM   16 BR1  UNL     1      24.688   5.041  49.995  1.00  0.00     0.015 Br
HETATM   17  C12 UNL     1      23.364   3.291  48.445  1.00  0.00     0.109 C 
HETATM   18  C13 UNL     1      21.939   3.036  48.108  1.00  0.00     0.044 C 
HETATM   19  C14 UNL     1      21.528   1.645  48.413  1.00  0.00    -0.009 C 
HETATM   20  C15 UNL     1      21.537   0.863  49.451  1.00  0.00     0.083 C 
HETATM   21  N5  UNL     1      21.988   1.101  50.775  1.00  0.00    -0.344 N 
HETATM   22  H18 UNL     1      21.439   0.599  51.541  1.00  0.00     0.163 HD
ENDROOT
BRANCH   1  23
HETATM   23  N1  UNL     1      22.342   2.788  52.428  1.00  0.00     0.135 N 
HETATM   24  C1  UNL     1      20.925   2.820  52.304  1.00  0.00     0.312 C 
HETATM   25  H4  UNL     1      22.584   2.557  53.418  1.00  0.00     0.321 HD
ENDBRANCH   1  23
TORSDOF 1
ENDMDL
MODEL 3
REMARK VINA RESULT:      -7.3      3.106      5.422
REMARK  1 active torsions:
REMARK  status: ('A' for Active; 'I' for Inactive)
REMARK    1  A    between atoms: N1_2  and  C2_3 
ROOT
HETATM    1  C2  UNL     1      23.485   3.701  51.581  1.00  0.00     0.367 C 
HETATM    2  N2  UNL     1      22.132   3.351  51.651  1.00  0.00    -0.219 NA
HETATM    3  C3  UNL     1      21.052   3.722  52.139  1.00  0.00     0.233 C 
HETATM    4  N3  UNL     1      19.703   3.297  52.159  1.00  0.00    -0.231 NA
HETATM    5  C4  UNL     1      19.208   2.112  52.155  1.00  0.00     0.254 C 
HETATM    6  O1  UNL     1      19.715   0.712  52.128  1.00  0.00    -0.325 OA
HETATM    7  C5  UNL     1      21.126   0.815  51.813  1.00  0.00     0.111 A 
HETATM    8  C6  UNL     1      20.725   0.756  50.527  1.00  0.00     0.001 A 
HETATM    9  C7  UNL     1      22.081   0.953  50.579  1.00  0.00     0.092 A 
HETATM   10  C8  UNL     1      22.670   1.043  51.797  1.00  0.00     0.127 A 
HETATM   11  C9  UNL     1      22.579   1.029  53.152  1.00  0.00     0.015 A 
HETATM   12  C10 UNL     1      21.220   0.833  53.166  1.00  0.00     0.015 A 
HETATM   13  O2  UNL     1      24.020   1.292  51.447  1.00  0.00    -0.344 OA
HETATM   14  C11 UNL     1      24.320   2.609  50.994  1.00  0.00     0.292 C 
HETATM   15  N4  UNL     1      25.724   2.832  51.067  1.00  0.00    -0.216 NA
HETATM   16 BR1  UNL     1      26.545   1.250  51.747  1.00  0.00     0.015 Br
HETATM   17  C12 UNL     1      26.301   3.018  49.739  1.00  0.00     0.109 C 
HETATM   18  C13 UNL     1      26.594   4.465  49.554  1.00  0.00     0.044 C 
HETATM   19  C14 UNL     1      25.401   5.231  49.127  1.00  0.00    -0.009 C 
HETATM   20  C15 UNL     1      24.191   5.419  49.565  1.00  0.00     0.083 C 
HETATM   21  N5  UNL     1      23.542   4.902  50.716  1.00  0.00    -0.344 N 
HETATM   22  H18 UNL     1      22.830   5.556  51.169  1.00  0.00     0.163 HD
ENDROOT
BRANCH   1  23
HETATM   23  N1  UNL     1      23.887   4.084  52.932  1.00  0.00     0.135 N 
HETATM   24  C1  UNL     1      23.849   5.481  53.195  1.00  0.00     0.312 C 
HETATM   25  H4  UNL     1      23.270   3.599  53.622  1.00  0.00     0.321 HD
ENDBRANCH   1  23
TORSDOF 1
ENDMDL
MODEL 4
REMARK VINA RESULT:      -7.0      2.940      5.458
REMARK  1 active torsions:
REMARK  status: ('A' for Active; 'I' for Inactive)
REMARK    1  A    between atoms: N1_2  and  C2_3 
ROOT
HETATM    1  C2  UNL     1      22.144   1.505  52.213  1.00  0.00     0.367 C 
HETATM    2  N2  UNL     1      21.891   2.862  51.982  1.00  0.00    -0.219 NA
HETATM    3  C3  UNL     1      21.142   3.621  51.347  1.00  0.00     0.233 C 
HETATM    4  N3  UNL     1      20.953   5.012  51.169  1.00  0.00    -0.231 NA
HETATM    5  C4  UNL     1      21.811   5.968  51.152  1.00  0.00     0.254 C 
HETATM    6  O1  UNL     1      23.286   6.120  51.294  1.00  0.00    -0.325 OA
HETATM    7  C5  UNL     1      23.764   4.843  51.783  1.00  0.00     0.111 A 
HETATM    8  C6  UNL     1      23.535   5.357  53.008  1.00  0.00     0.001 A 
HETATM    9  C7  UNL     1      23.937   4.050  53.124  1.00  0.00     0.092 A 
HETATM   10  C8  UNL     1      24.212   3.361  51.989  1.00  0.00     0.127 A 
HETATM   11  C9  UNL     1      24.305   3.313  50.635  1.00  0.00     0.015 A 
HETATM   12  C10 UNL     1      23.907   4.614  50.454  1.00  0.00     0.015 A 
HETATM   13  O2  UNL     1      24.530   2.079  52.500  1.00  0.00    -0.344 OA
HETATM   14  C11 UNL     1      23.431   1.287  52.940  1.00  0.00     0.292 C 
HETATM   15  N4  UNL     1      23.832  -0.075  53.040  1.00  0.00    -0.216 NA
HETATM   16 BR1  UNL     1      25.666  -0.196  52.528  1.00  0.00     0.015 Br
HETATM   17  C12 UNL     1      23.793  -0.539  54.424  1.00  0.00     0.109 C 
HETATM   18  C13 UNL     1      22.598  -1.408  54.593  1.00  0.00     0.044 C 
HETATM   19  C14 UNL     1      21.363  -0.626  54.836  1.00  0.00    -0.009 C 
HETATM   20  C15 UNL     1      20.719   0.334  54.240  1.00  0.00     0.083 C 
HETATM   21  N5  UNL     1      21.010   1.023  53.035  1.00  0.00    -0.344 N 
HETATM   22  H18 UNL     1      20.158   1.333  52.471  1.00  0.00     0.163 HD
ENDROOT
BRANCH   1  23
HETATM   23  N1  UNL     1      22.087   0.844  50.912  1.00  0.00     0.135 N 
HETATM   24  C1  UNL     1      20.812   0.320  50.561  1.00  0.00     0.312 C 
HETATM   25  H4  UNL     1      22.384   1.520  50.172  1.00  0.00     0.321 HD
ENDBRANCH   1  23
TORSDOF 1
ENDMDL
MODEL 5
REMARK VINA RESULT:      -6.9      2.707      5.805
REMARK  1 active torsions:
REMARK  status: ('A' for Active; 'I' for Inactive)
REMARK    1  A    between atoms: N1_2  and  C2_3 
ROOT
HETATM    1  C2  UNL     1      23.532   2.101  51.794  1.00  0.00     0.367 C 
HETATM    2  N2  UNL     1      23.295   2.597  50.507  1.00  0.00    -0.219 NA
HETATM    3  C3  UNL     1      23.541   3.569  49.774  1.00  0.00     0.233 C 
HETATM    4  N3  UNL     1      23.254   3.996  48.457  1.00  0.00    -0.231 NA
HETATM    5  C4  UNL     1      22.203   3.817  47.739  1.00  0.00     0.254 C 
HETATM    6  O1  UNL     1      20.881   3.147  47.879  1.00  0.00    -0.325 OA
HETATM    7  C5  UNL     1      20.978   2.340  49.079  1.00  0.00     0.111 A 
HETATM    8  C6  UNL     1      21.443   1.379  48.256  1.00  0.00     0.001 A 
HETATM    9  C7  UNL     1      21.493   0.939  49.554  1.00  0.00     0.092 A 
HETATM   10  C8  UNL     1      21.067   1.776  50.532  1.00  0.00     0.127 A 
HETATM   11  C9  UNL     1      20.549   2.972  50.914  1.00  0.00     0.015 A 
HETATM   12  C10 UNL     1      20.475   3.470  49.637  1.00  0.00     0.015 A 
HETATM   13  O2  UNL     1      21.318   1.009  51.697  1.00  0.00    -0.344 OA
HETATM   14  C11 UNL     1      22.678   0.916  52.108  1.00  0.00     0.292 C 
HETATM   15  N4  UNL     1      22.740   0.483  53.462  1.00  0.00    -0.216 NA
HETATM   16 BR1  UNL     1      20.956   0.236  54.092  1.00  0.00     0.015 Br
HETATM   17  C12 UNL     1      23.366  -0.832  53.570  1.00  0.00     0.109 C 
HETATM   18  C13 UNL     1      24.745  -0.652  54.097  1.00  0.00     0.044 C 
HETATM   19  C14 UNL     1      25.712  -0.295  53.033  1.00  0.00    -0.009 C 
HETATM   20  C15 UNL     1      25.820   0.628  52.124  1.00  0.00     0.083 C 
HETATM   21  N5  UNL     1      24.962   1.715  51.815  1.00  0.00    -0.344 N 
HETATM   22  H18 UNL     1      25.453   2.598  51.469  1.00  0.00     0.163 HD
ENDROOT
BRANCH   1  23
HETATM   23  N1  UNL     1      23.341   3.221  52.713  1.00  0.00     0.135 N 
HETATM   24  C1  UNL     1      24.502   3.604  53.440  1.00  0.00     0.312 C 
HETATM   25  H4  UNL     1      22.998   4.048  52.176  1.00  0.00     0.321 HD
ENDBRANCH   1  23
TORSDOF 1
ENDMDL
MODEL 6
REMARK VINA RESULT:      -6.9      9.159     11.456
REMARK  1 active torsions:
REMARK  status: ('A' for Active; 'I' for Inactive)
REMARK    1  A    between atoms: N1_2  and  C2_3 
ROOT
HETATM    1  C2  UNL     1      32.651   6.730  46.039  1.00  0.00     0.367 C 
HETATM    2  N2  UNL     1      31.316   7.123  46.183  1.00  0.00    -0.219 NA
HETATM    3  C3  UNL     1      30.506   7.983  45.803  1.00  0.00     0.233 C 
HETATM    4  N3  UNL     1      29.145   8.312  46.005  1.00  0.00    -0.231 NA
HETATM    5  C4  UNL     1      28.410   8.191  47.051  1.00  0.00     0.254 C 
HETATM    6  O1  UNL     1      28.565   7.699  48.448  1.00  0.00    -0.325 OA
HETATM    7  C5  UNL     1      29.837   7.006  48.479  1.00  0.00     0.111 A 
HETATM    8  C6  UNL     1      29.124   5.922  48.114  1.00  0.00     0.001 A 
HETATM    9  C7  UNL     1      30.459   5.606  48.149  1.00  0.00     0.092 A 
HETATM   10  C8  UNL     1      31.339   6.578  48.494  1.00  0.00     0.127 A 
HETATM   11  C9  UNL     1      31.589   7.858  48.872  1.00  0.00     0.015 A 
HETATM   12  C10 UNL     1      30.269   8.236  48.855  1.00  0.00     0.015 A 
HETATM   13  O2  UNL     1      32.577   5.904  48.367  1.00  0.00    -0.344 OA
HETATM   14  C11 UNL     1      33.044   5.690  47.038  1.00  0.00     0.292 C 
HETATM   15  N4  UNL     1      34.434   5.386  47.062  1.00  0.00    -0.216 NA
HETATM   16 BR1  UNL     1      35.020   5.414  48.877  1.00  0.00     0.015 Br
HETATM   17  C12 UNL     1      34.687   4.023  46.603  1.00  0.00     0.109 C 
HETATM   18  C13 UNL     1      35.243   4.088  45.225  1.00  0.00     0.044 C 
HETATM   19  C14 UNL     1      34.185   4.223  44.196  1.00  0.00    -0.009 C 
HETATM   20  C15 UNL     1      33.199   5.035  43.956  1.00  0.00     0.083 C 
HETATM   21  N5  UNL     1      32.759   6.181  44.667  1.00  0.00    -0.344 N 
HETATM   22  H18 UNL     1      32.350   6.962  44.065  1.00  0.00     0.163 HD
ENDROOT
BRANCH   1  23
HETATM   23  N1  UNL     1      33.455   7.948  46.115  1.00  0.00     0.135 N 
HETATM   24  C1  UNL     1      34.106   8.312  44.904  1.00  0.00     0.312 C 
HETATM   25  H4  UNL     1      32.845   8.741  46.416  1.00  0.00     0.321 HD
ENDBRANCH   1  23
TORSDOF 1
ENDMDL
MODEL 7
REMARK VINA RESULT:      -6.7      8.579     10.281
REMARK  1 active torsions:
REMARK  status: ('A' for Active; 'I' for Inactive)
REMARK    1  A    between atoms: N1_2  and  C2_3 
ROOT
HETATM    1  C2  UNL     1      28.839   8.854  48.363  1.00  0.00     0.367 C 
HETATM    2  N2  UNL     1      29.426   7.615  48.086  1.00  0.00    -0.219 NA
HETATM    3  C3  UNL     1      29.315   6.404  48.336  1.00  0.00     0.233 C 
HETATM    4  N3  UNL     1      29.968   5.194  48.005  1.00  0.00    -0.231 NA
HETATM    5  C4  UNL     1      31.212   4.957  47.786  1.00  0.00     0.254 C 
HETATM    6  O1  UNL     1      32.486   5.727  47.763  1.00  0.00    -0.325 OA
HETATM    7  C5  UNL     1      32.099   7.123  47.796  1.00  0.00     0.111 A 
HETATM    8  C6  UNL     1      32.065   7.026  46.452  1.00  0.00     0.001 A 
HETATM    9  C7  UNL     1      31.641   8.273  46.836  1.00  0.00     0.092 A 
HETATM   10  C8  UNL     1      31.604   8.558  48.161  1.00  0.00     0.127 A 
HETATM   11  C9  UNL     1      31.805   8.184  49.451  1.00  0.00     0.015 A 
HETATM   12  C10 UNL     1      32.236   6.920  49.131  1.00  0.00     0.015 A 
HETATM   13  O2  UNL     1      31.081   9.874  48.158  1.00  0.00    -0.344 OA
HETATM   14  C11 UNL     1      29.685   9.995  47.900  1.00  0.00     0.292 C 
HETATM   15  N4  UNL     1      29.231  11.278  48.317  1.00  0.00    -0.216 NA
HETATM   16 BR1  UNL     1      30.718  12.233  49.037  1.00  0.00     0.015 Br
HETATM   17  C12 UNL     1      28.781  12.077  47.182  1.00  0.00     0.109 C 
HETATM   18  C13 UNL     1      27.294  12.109  47.191  1.00  0.00     0.044 C 
HETATM   19  C14 UNL     1      26.700  10.907  46.562  1.00  0.00    -0.009 C 
HETATM   20  C15 UNL     1      26.784   9.619  46.718  1.00  0.00     0.083 C 
HETATM   21  N5  UNL     1      27.547   8.855  47.638  1.00  0.00    -0.344 N 
HETATM   22  H18 UNL     1      27.090   7.946  47.965  1.00  0.00     0.163 HD
ENDROOT
BRANCH   1  23
HETATM   23  N1  UNL     1      28.565   8.873  49.798  1.00  0.00     0.135 N 
HETATM   24  C1  UNL     1      27.194   9.026  50.144  1.00  0.00     0.312 C 
HETATM   25  H4  UNL     1      28.919   7.988  50.225  1.00  0.00     0.321 HD
ENDBRANCH   1  23
TORSDOF 1
ENDMDL
MODEL 8
REMARK VINA RESULT:      -6.5      9.925     11.313
REMARK  1 active torsions:
REMARK  status: ('A' for Active; 'I' for Inactive)
REMARK    1  A    between atoms: N1_2  and  C2_3 
ROOT
HETATM    1  C2  UNL     1      32.836   7.307  45.985  1.00  0.00     0.367 C 
HETATM    2  N2  UNL     1      33.648   6.168  45.938  1.00  0.00    -0.219 NA
HETATM    3  C3  UNL     1      34.145   5.356  45.142  1.00  0.00     0.233 C 
HETATM    4  N3  UNL     1      34.971   4.209  45.183  1.00  0.00    -0.231 NA
HETATM    5  C4  UNL     1      35.053   3.278  46.065  1.00  0.00     0.254 C 
HETATM    6  O1  UNL     1      34.406   2.939  47.363  1.00  0.00    -0.325 OA
HETATM    7  C5  UNL     1      33.667   4.123  47.752  1.00  0.00     0.111 A 
HETATM    8  C6  UNL     1      34.813   4.499  48.354  1.00  0.00     0.001 A 
HETATM    9  C7  UNL     1      33.881   5.499  48.468  1.00  0.00     0.092 A 
HETATM   10  C8  UNL     1      32.658   5.303  47.916  1.00  0.00     0.127 A 
HETATM   11  C9  UNL     1      31.790   4.517  47.229  1.00  0.00     0.015 A 
HETATM   12  C10 UNL     1      32.678   3.480  47.081  1.00  0.00     0.015 A 
HETATM   13  O2  UNL     1      32.018   6.538  48.187  1.00  0.00    -0.344 OA
HETATM   14  C11 UNL     1      32.415   7.642  47.380  1.00  0.00     0.292 C 
HETATM   15  N4  UNL     1      31.442   8.676  47.473  1.00  0.00    -0.216 NA
HETATM   16 BR1  UNL     1      30.053   8.086  48.640  1.00  0.00     0.015 Br
HETATM   17  C12 UNL     1      31.993   9.868  48.111  1.00  0.00     0.109 C 
HETATM   18  C13 UNL     1      32.240  10.891  47.061  1.00  0.00     0.044 C 
HETATM   19  C14 UNL     1      33.532  10.684  46.365  1.00  0.00    -0.009 C 
HETATM   20  C15 UNL     1      34.112   9.718  45.717  1.00  0.00     0.083 C 
HETATM   21  N5  UNL     1      33.658   8.406  45.427  1.00  0.00    -0.344 N 
HETATM   22  H18 UNL     1      33.987   8.006  44.493  1.00  0.00     0.163 HD
ENDROOT
BRANCH   1  23
HETATM   23  N1  UNL     1      31.717   7.059  45.079  1.00  0.00     0.135 N 
HETATM   24  C1  UNL     1      31.616   7.967  43.989  1.00  0.00     0.312 C 
HETATM   25  H4  UNL     1      31.795   6.089  44.698  1.00  0.00     0.321 HD
ENDBRANCH   1  23
TORSDOF 1
ENDMDL
MODEL 9
REMARK VINA RESULT:      -6.5      3.196      5.972
REMARK  1 active torsions:
REMARK  status: ('A' for Active; 'I' for Inactive)
REMARK    1  A    between atoms: N1_2  and  C2_3 
ROOT
HETATM    1  C2  UNL     1      22.268   2.655  50.649  1.00  0.00     0.367 C 
HETATM    2  N2  UNL     1      22.036   3.952  50.179  1.00  0.00    -0.219 NA
HETATM    3  C3  UNL     1      21.401   4.579  49.316  1.00  0.00     0.233 C 
HETATM    4  N3  UNL     1      21.222   5.920  48.904  1.00  0.00    -0.231 NA
HETATM    5  C4  UNL     1      22.051   6.902  48.898  1.00  0.00     0.254 C 
HETATM    6  O1  UNL     1      23.472   7.138  49.273  1.00  0.00    -0.325 OA
HETATM    7  C5  UNL     1      23.878   5.966  50.023  1.00  0.00     0.111 A 
HETATM    8  C6  UNL     1      23.421   6.639  51.098  1.00  0.00     0.001 A 
HETATM    9  C7  UNL     1      23.820   5.381  51.475  1.00  0.00     0.092 A 
HETATM   10  C8  UNL     1      24.308   4.551  50.521  1.00  0.00     0.127 A 
HETATM   11  C9  UNL     1      24.645   4.315  49.227  1.00  0.00     0.015 A 
HETATM   12  C10 UNL     1      24.263   5.558  48.788  1.00  0.00     0.015 A 
HETATM   13  O2  UNL     1      24.552   3.370  51.265  1.00  0.00    -0.344 OA
HETATM   14  C11 UNL     1      23.406   2.600  51.616  1.00  0.00     0.292 C 
HETATM   15  N4  UNL     1      23.808   1.286  51.985  1.00  0.00    -0.216 NA
HETATM   16 BR1  UNL     1      25.706   1.175  51.828  1.00  0.00     0.015 Br
HETATM   17  C12 UNL     1      23.528   1.021  53.393  1.00  0.00     0.109 C 
HETATM   18  C13 UNL     1      22.338   0.133  53.476  1.00  0.00     0.044 C 
HETATM   19  C14 UNL     1      21.065   0.885  53.379  1.00  0.00    -0.009 C 
HETATM   20  C15 UNL     1      20.522   1.720  52.544  1.00  0.00     0.083 C 
HETATM   21  N5  UNL     1      21.013   2.243  51.320  1.00  0.00    -0.344 N 
HETATM   22  H18 UNL     1      20.272   2.432  50.575  1.00  0.00     0.163 HD
ENDROOT
BRANCH   1  23
HETATM   23  N1  UNL     1      22.461   1.813  49.470  1.00  0.00     0.135 N 
HETATM   24  C1  UNL     1      21.341   1.009  49.119  1.00  0.00     0.312 C 
HETATM   25  H4  UNL     1      22.704   2.419  48.654  1.00  0.00     0.321 HD
ENDBRANCH   1  23
TORSDOF 1
ENDMDL
