MODEL 1
REMARK VINA RESULT:      -7.4      0.000      0.000
REMARK  10 active torsions:
REMARK  status: ('A' for Active; 'I' for Inactive)
REMARK    1  A    between atoms: O1_2  and  C2_3 
REMARK    2  A    between atoms: C2_3  and  C3_4 
REMARK    3  A    between atoms: C6_7  and  N2_25 
REMARK    4  A    between atoms: O2_10  and  C9_11 
REMARK    5  A    between atoms: C9_11  and  C10_12 
REMARK    6  A    between atoms: C10_12  and  O3_13 
REMARK    7  A    between atoms: C12_15  and  N1_16 
REMARK    8  A    between atoms: N1_16  and  C13_17 
REMARK    9  A    between atoms: C13_17  and  C14_18 
REMARK   10  A    between atoms: C15_19  and  C16_20 
ROOT
HETATM    1  C3  UNL     1      23.423  -0.440  53.526  1.00  0.00    -0.043 A 
HETATM    2  C4  UNL     1      23.595   0.635  52.580  1.00  0.00     0.014 A 
HETATM    3  C5  UNL     1      24.813   0.725  53.145  1.00  0.00    -0.017 A 
HETATM    4  C6  UNL     1      25.608   0.185  54.100  1.00  0.00     0.051 A 
HETATM    5  C7  UNL     1      25.628  -0.962  55.194  1.00  0.00     0.037 A 
HETATM    6  C8  UNL     1      24.602  -0.670  54.369  1.00  0.00     0.030 A 
HETATM    7  O2  UNL     1      26.180  -0.541  54.653  1.00  0.00     0.000 OA
HETATM    8  C9  UNL     1      26.993  -0.218  53.322  1.00  0.00     0.080 C 
HETATM    9  C12 UNL     1      26.321   1.080  52.933  1.00  0.00     0.097 A 
HETATM   10  C20 UNL     1      26.490   2.238  53.751  1.00  0.00     0.080 A 
HETATM   11  N2  UNL     1      26.719   1.238  54.469  1.00  0.00    -0.252 NA
ENDROOT
BRANCH   9  12
HETATM   12  N1  UNL     1      26.606   1.371  51.564  1.00  0.00    -0.295 NA
HETATM   13  H14 UNL     1      27.558   1.002  51.372  1.00  0.00     0.124 HD
BRANCH  12  14
HETATM   14  C13 UNL     1      26.588   2.763  51.209  1.00  0.00     0.116 C 
BRANCH  14  15
HETATM   15  C14 UNL     1      25.739   2.997  50.021  1.00  0.00    -0.012 C 
HETATM   16  C15 UNL     1      24.482   3.409  50.001  1.00  0.00    -0.003 C 
BRANCH  16  17
HETATM   17  C16 UNL     1      23.698   3.621  48.780  1.00  0.00     0.002 C 
HETATM   18  C17 UNL     1      22.684   2.855  48.493  1.00  0.00    -0.088 C 
HETATM   19  C18 UNL     1      21.943   3.146  47.226  1.00  0.00     0.043 C 
HETATM   20  C19 UNL     1      22.307   1.759  49.395  1.00  0.00     0.043 C 
ENDBRANCH  16  17
ENDBRANCH  14  15
ENDBRANCH  12  14
ENDBRANCH   9  12
BRANCH   8  21
HETATM   21  C10 UNL     1      28.386  -0.207  53.604  1.00  0.00     0.178 C 
BRANCH  21  22
HETATM   22  O3  UNL     1      28.943  -1.445  53.986  1.00  0.00    -0.395 OA
HETATM   23  C11 UNL     1      28.741  -2.418  53.044  1.00  0.00     0.201 C 
ENDBRANCH  21  22
ENDBRANCH   8  21
BRANCH   1  24
HETATM   24  C2  UNL     1      22.120  -1.225  53.587  1.00  0.00     0.202 C 
BRANCH  24  25
HETATM   25  O1  UNL     1      21.408  -1.053  54.729  1.00  0.00    -0.392 OA
HETATM   26  C1  UNL     1      20.724   0.185  54.689  1.00  0.00     0.201 C 
ENDBRANCH  24  25
ENDBRANCH   1  24
TORSDOF 10
ENDMDL
MODEL 2
REMARK VINA RESULT:      -7.4      2.582      5.469
REMARK  10 active torsions:
REMARK  status: ('A' for Active; 'I' for Inactive)
REMARK    1  A    between atoms: O1_2  and  C2_3 
REMARK    2  A    between atoms: C2_3  and  C3_4 
REMARK    3  A    between atoms: C6_7  and  N2_25 
REMARK    4  A    between atoms: O2_10  and  C9_11 
REMARK    5  A    between atoms: C9_11  and  C10_12 
REMARK    6  A    between atoms: C10_12  and  O3_13 
REMARK    7  A    between atoms: C12_15  and  N1_16 
REMARK    8  A    between atoms: N1_16  and  C13_17 
REMARK    9  A    between atoms: C13_17  and  C14_18 
REMARK   10  A    between atoms: C15_19  and  C16_20 
ROOT
HETATM    1  C3  UNL     1      24.890   0.243  53.354  1.00  0.00    -0.043 A 
HETATM    2  C4  UNL     1      25.176   1.073  52.210  1.00  0.00     0.014 A 
HETATM    3  C5  UNL     1      23.840   1.038  52.050  1.00  0.00    -0.017 A 
HETATM    4  C6  UNL     1      22.698   0.538  52.580  1.00  0.00     0.051 A 
HETATM    5  C7  UNL     1      22.174  -0.343  53.790  1.00  0.00     0.037 A 
HETATM    6  C8  UNL     1      23.461  -0.030  53.536  1.00  0.00     0.030 A 
HETATM    7  O2  UNL     1      21.913   0.332  53.288  1.00  0.00     0.000 OA
HETATM    8  C9  UNL     1      21.730   1.840  52.810  1.00  0.00     0.080 C 
HETATM    9  C12 UNL     1      22.570   1.803  51.553  1.00  0.00     0.097 A 
HETATM   10  C20 UNL     1      22.145   1.015  50.440  1.00  0.00     0.080 A 
HETATM   11  N2  UNL     1      21.591   0.548  51.461  1.00  0.00    -0.252 NA
ENDROOT
BRANCH   9  12
HETATM   12  N1  UNL     1      22.883   3.136  51.150  1.00  0.00    -0.295 NA
HETATM   13  H14 UNL     1      22.114   3.742  51.498  1.00  0.00     0.124 HD
BRANCH  12  14
HETATM   14  C13 UNL     1      23.006   3.344  49.734  1.00  0.00     0.116 C 
BRANCH  14  15
HETATM   15  C14 UNL     1      24.426   3.419  49.329  1.00  0.00    -0.012 C 
HETATM   16  C15 UNL     1      25.328   4.302  49.725  1.00  0.00    -0.003 C 
BRANCH  16  17
HETATM   17  C16 UNL     1      26.725   4.316  49.280  1.00  0.00     0.002 C 
HETATM   18  C17 UNL     1      27.233   5.366  48.699  1.00  0.00    -0.088 C 
HETATM   19  C18 UNL     1      28.668   5.289  48.279  1.00  0.00     0.043 C 
HETATM   20  C19 UNL     1      26.408   6.561  48.480  1.00  0.00     0.043 C 
ENDBRANCH  16  17
ENDBRANCH  14  15
ENDBRANCH  12  14
ENDBRANCH   9  12
BRANCH   8  21
HETATM   21  C10 UNL     1      20.345   2.141  52.696  1.00  0.00     0.178 C 
BRANCH  21  22
HETATM   22  O3  UNL     1      20.028   3.501  52.505  1.00  0.00    -0.395 OA
HETATM   23  C11 UNL     1      19.235   3.701  51.406  1.00  0.00     0.201 C 
ENDBRANCH  21  22
ENDBRANCH   8  21
BRANCH   1  24
HETATM   24  C2  UNL     1      26.012  -0.260  54.252  1.00  0.00     0.202 C 
BRANCH  24  25
HETATM   25  O1  UNL     1      26.762   0.716  54.823  1.00  0.00    -0.392 OA
HETATM   26  C1  UNL     1      28.131   0.365  54.773  1.00  0.00     0.201 C 
ENDBRANCH  24  25
ENDBRANCH   1  24
TORSDOF 10
ENDMDL
MODEL 3
REMARK VINA RESULT:      -7.3      3.395      5.713
REMARK  10 active torsions:
REMARK  status: ('A' for Active; 'I' for Inactive)
REMARK    1  A    between atoms: O1_2  and  C2_3 
REMARK    2  A    between atoms: C2_3  and  C3_4 
REMARK    3  A    between atoms: C6_7  and  N2_25 
REMARK    4  A    between atoms: O2_10  and  C9_11 
REMARK    5  A    between atoms: C9_11  and  C10_12 
REMARK    6  A    between atoms: C10_12  and  O3_13 
REMARK    7  A    between atoms: C12_15  and  N1_16 
REMARK    8  A    between atoms: N1_16  and  C13_17 
REMARK    9  A    between atoms: C13_17  and  C14_18 
REMARK   10  A    between atoms: C15_19  and  C16_20 
ROOT
HETATM    1  C3  UNL     1      26.016   0.398  52.700  1.00  0.00    -0.043 A 
HETATM    2  C4  UNL     1      26.609   1.152  51.623  1.00  0.00     0.014 A 
HETATM    3  C5  UNL     1      25.378   1.690  51.534  1.00  0.00    -0.017 A 
HETATM    4  C6  UNL     1      24.137   1.653  52.077  1.00  0.00     0.051 A 
HETATM    5  C7  UNL     1      23.307   0.943  53.227  1.00  0.00     0.037 A 
HETATM    6  C8  UNL     1      24.605   0.722  52.933  1.00  0.00     0.030 A 
HETATM    7  O2  UNL     1      23.345   1.716  52.804  1.00  0.00     0.000 OA
HETATM    8  C9  UNL     1      23.802   3.206  52.478  1.00  0.00     0.080 C 
HETATM    9  C12 UNL     1      24.537   2.959  51.179  1.00  0.00     0.097 A 
HETATM   10  C20 UNL     1      23.810   2.541  50.023  1.00  0.00     0.080 A 
HETATM   11  N2  UNL     1      23.122   2.238  51.025  1.00  0.00    -0.252 NA
ENDROOT
BRANCH   9  12
HETATM   12  N1  UNL     1      25.372   4.079  50.884  1.00  0.00    -0.295 NA
HETATM   13  H14 UNL     1      24.948   4.900  51.358  1.00  0.00     0.124 HD
BRANCH  12  14
HETATM   14  C13 UNL     1      25.517   4.395  49.491  1.00  0.00     0.116 C 
BRANCH  14  15
HETATM   15  C14 UNL     1      26.944   4.498  49.116  1.00  0.00    -0.012 C 
HETATM   16  C15 UNL     1      27.574   5.559  48.640  1.00  0.00    -0.003 C 
BRANCH  16  17
HETATM   17  C16 UNL     1      28.997   5.589  48.288  1.00  0.00     0.002 C 
HETATM   18  C17 UNL     1      29.480   6.531  47.527  1.00  0.00    -0.088 C 
HETATM   19  C18 UNL     1      30.944   6.480  47.221  1.00  0.00     0.043 C 
HETATM   20  C19 UNL     1      28.599   7.585  47.007  1.00  0.00     0.043 C 
ENDBRANCH  16  17
ENDBRANCH  14  15
ENDBRANCH  12  14
ENDBRANCH   9  12
BRANCH   8  21
HETATM   21  C10 UNL     1      22.667   4.061  52.468  1.00  0.00     0.178 C 
BRANCH  21  22
HETATM   22  O3  UNL     1      22.909   5.394  52.077  1.00  0.00    -0.395 OA
HETATM   23  C11 UNL     1      22.023   5.826  51.125  1.00  0.00     0.201 C 
ENDBRANCH  21  22
ENDBRANCH   8  21
BRANCH   1  24
HETATM   24  C2  UNL     1      26.836  -0.616  53.486  1.00  0.00     0.202 C 
BRANCH  24  25
HETATM   25  O1  UNL     1      27.110  -0.253  54.765  1.00  0.00    -0.392 OA
HETATM   26  C1  UNL     1      28.465   0.136  54.876  1.00  0.00     0.201 C 
ENDBRANCH  24  25
ENDBRANCH   1  24
TORSDOF 10
ENDMDL
MODEL 4
REMARK VINA RESULT:      -7.1      3.135      7.261
REMARK  10 active torsions:
REMARK  status: ('A' for Active; 'I' for Inactive)
REMARK    1  A    between atoms: O1_2  and  C2_3 
REMARK    2  A    between atoms: C2_3  and  C3_4 
REMARK    3  A    between atoms: C6_7  and  N2_25 
REMARK    4  A    between atoms: O2_10  and  C9_11 
REMARK    5  A    between atoms: C9_11  and  C10_12 
REMARK    6  A    between atoms: C10_12  and  O3_13 
REMARK    7  A    between atoms: C12_15  and  N1_16 
REMARK    8  A    between atoms: N1_16  and  C13_17 
REMARK    9  A    between atoms: C13_17  and  C14_18 
REMARK   10  A    between atoms: C15_19  and  C16_20 
ROOT
HETATM    1  C3  UNL     1      26.184   4.415  49.699  1.00  0.00    -0.043 A 
HETATM    2  C4  UNL     1      26.444   3.157  50.353  1.00  0.00     0.014 A 
HETATM    3  C5  UNL     1      25.304   3.443  51.010  1.00  0.00    -0.017 A 
HETATM    4  C6  UNL     1      24.323   4.370  51.124  1.00  0.00     0.051 A 
HETATM    5  C7  UNL     1      23.851   5.758  50.518  1.00  0.00     0.037 A 
HETATM    6  C8  UNL     1      24.956   5.072  50.162  1.00  0.00     0.030 A 
HETATM    7  O2  UNL     1      23.507   5.023  50.860  1.00  0.00     0.000 OA
HETATM    8  C9  UNL     1      22.927   3.541  50.909  1.00  0.00     0.080 C 
HETATM    9  C12 UNL     1      24.026   2.872  51.704  1.00  0.00     0.097 A 
HETATM   10  C20 UNL     1      24.226   3.227  53.073  1.00  0.00     0.080 A 
HETATM   11  N2  UNL     1      23.628   4.181  52.524  1.00  0.00    -0.252 NA
ENDROOT
BRANCH   9  12
HETATM   12  N1  UNL     1      23.931   1.456  51.550  1.00  0.00    -0.295 NA
HETATM   13  H14 UNL     1      22.996   1.262  51.140  1.00  0.00     0.124 HD
BRANCH  12  14
HETATM   14  C13 UNL     1      24.055   0.689  52.758  1.00  0.00     0.116 C 
BRANCH  14  15
HETATM   15  C14 UNL     1      25.273  -0.149  52.733  1.00  0.00    -0.012 C 
HETATM   16  C15 UNL     1      26.527   0.255  52.854  1.00  0.00    -0.003 C 
BRANCH  16  17
HETATM   17  C16 UNL     1      27.691  -0.637  52.821  1.00  0.00     0.002 C 
HETATM   18  C17 UNL     1      28.667  -0.498  53.674  1.00  0.00    -0.088 C 
HETATM   19  C18 UNL     1      29.813  -1.454  53.563  1.00  0.00     0.043 C 
HETATM   20  C19 UNL     1      28.615   0.561  54.690  1.00  0.00     0.043 C 
ENDBRANCH  16  17
ENDBRANCH  14  15
ENDBRANCH  12  14
ENDBRANCH   9  12
BRANCH   8  21
HETATM   21  C10 UNL     1      21.611   3.560  51.446  1.00  0.00     0.178 C 
BRANCH  21  22
HETATM   22  O3  UNL     1      20.953   2.315  51.499  1.00  0.00    -0.395 OA
HETATM   23  C11 UNL     1      20.454   2.042  52.745  1.00  0.00     0.201 C 
ENDBRANCH  21  22
ENDBRANCH   8  21
BRANCH   1  24
HETATM   24  C2  UNL     1      27.129   4.951  48.633  1.00  0.00     0.202 C 
BRANCH  24  25
HETATM   25  O1  UNL     1      28.445   4.732  48.881  1.00  0.00    -0.392 OA
HETATM   26  C1  UNL     1      29.230   5.700  48.213  1.00  0.00     0.201 C 
ENDBRANCH  24  25
ENDBRANCH   1  24
TORSDOF 10
ENDMDL
MODEL 5
REMARK VINA RESULT:      -6.8      3.085      6.159
REMARK  10 active torsions:
REMARK  status: ('A' for Active; 'I' for Inactive)
REMARK    1  A    between atoms: O1_2  and  C2_3 
REMARK    2  A    between atoms: C2_3  and  C3_4 
REMARK    3  A    between atoms: C6_7  and  N2_25 
REMARK    4  A    between atoms: O2_10  and  C9_11 
REMARK    5  A    between atoms: C9_11  and  C10_12 
REMARK    6  A    between atoms: C10_12  and  O3_13 
REMARK    7  A    between atoms: C12_15  and  N1_16 
REMARK    8  A    between atoms: N1_16  and  C13_17 
REMARK    9  A    between atoms: C13_17  and  C14_18 
REMARK   10  A    between atoms: C15_19  and  C16_20 
ROOT
HETATM    1  C3  UNL     1      21.720   1.358  52.919  1.00  0.00    -0.043 A 
HETATM    2  C4  UNL     1      23.074   1.153  52.466  1.00  0.00     0.014 A 
HETATM    3  C5  UNL     1      22.844   2.282  51.770  1.00  0.00    -0.017 A 
HETATM    4  C6  UNL     1      21.905   3.224  51.512  1.00  0.00     0.051 A 
HETATM    5  C7  UNL     1      20.423   3.636  51.898  1.00  0.00     0.037 A 
HETATM    6  C8  UNL     1      21.092   2.559  52.358  1.00  0.00     0.030 A 
HETATM    7  O2  UNL     1      21.187   4.011  51.671  1.00  0.00     0.000 OA
HETATM    8  C9  UNL     1      22.633   4.653  51.847  1.00  0.00     0.080 C 
HETATM    9  C12 UNL     1      23.460   3.585  51.166  1.00  0.00     0.097 A 
HETATM   10  C20 UNL     1      23.326   3.376  49.760  1.00  0.00     0.080 A 
HETATM   11  N2  UNL     1      22.276   3.931  50.156  1.00  0.00    -0.252 NA
ENDROOT
BRANCH   9  12
HETATM   12  N1  UNL     1      24.831   3.739  51.535  1.00  0.00    -0.295 NA
HETATM   13  H14 UNL     1      24.984   4.752  51.702  1.00  0.00     0.124 HD
BRANCH  12  14
HETATM   14  C13 UNL     1      25.790   3.299  50.559  1.00  0.00     0.116 C 
BRANCH  14  15
HETATM   15  C14 UNL     1      26.589   2.166  51.072  1.00  0.00    -0.012 C 
HETATM   16  C15 UNL     1      26.750   1.803  52.334  1.00  0.00    -0.003 C 
BRANCH  16  17
HETATM   17  C16 UNL     1      27.561   0.663  52.771  1.00  0.00     0.002 C 
HETATM   18  C17 UNL     1      28.618   0.837  53.514  1.00  0.00    -0.088 C 
HETATM   19  C18 UNL     1      29.384  -0.386  53.912  1.00  0.00     0.043 C 
HETATM   20  C19 UNL     1      29.015   2.189  53.928  1.00  0.00     0.043 C 
ENDBRANCH  16  17
ENDBRANCH  14  15
ENDBRANCH  12  14
ENDBRANCH   9  12
BRANCH   8  21
HETATM   21  C10 UNL     1      22.641   5.969  51.309  1.00  0.00     0.178 C 
BRANCH  21  22
HETATM   22  O3  UNL     1      23.893   6.617  51.295  1.00  0.00    -0.395 OA
HETATM   23  C11 UNL     1      23.815   7.887  50.789  1.00  0.00     0.201 C 
ENDBRANCH  21  22
ENDBRANCH   8  21
BRANCH   1  24
HETATM   24  C2  UNL     1      21.068   0.388  53.894  1.00  0.00     0.202 C 
BRANCH  24  25
HETATM   25  O1  UNL     1      21.098  -0.911  53.504  1.00  0.00    -0.392 OA
HETATM   26  C1  UNL     1      21.622  -1.715  54.543  1.00  0.00     0.201 C 
ENDBRANCH  24  25
ENDBRANCH   1  24
TORSDOF 10
ENDMDL
MODEL 6
REMARK VINA RESULT:      -6.6      2.925      5.827
REMARK  10 active torsions:
REMARK  status: ('A' for Active; 'I' for Inactive)
REMARK    1  A    between atoms: O1_2  and  C2_3 
REMARK    2  A    between atoms: C2_3  and  C3_4 
REMARK    3  A    between atoms: C6_7  and  N2_25 
REMARK    4  A    between atoms: O2_10  and  C9_11 
REMARK    5  A    between atoms: C9_11  and  C10_12 
REMARK    6  A    between atoms: C10_12  and  O3_13 
REMARK    7  A    between atoms: C12_15  and  N1_16 
REMARK    8  A    between atoms: N1_16  and  C13_17 
REMARK    9  A    between atoms: C13_17  and  C14_18 
REMARK   10  A    between atoms: C15_19  and  C16_20 
ROOT
HETATM    1  C3  UNL     1      24.983   0.402  52.969  1.00  0.00    -0.043 A 
HETATM    2  C4  UNL     1      23.561   0.586  53.115  1.00  0.00     0.014 A 
HETATM    3  C5  UNL     1      23.800   1.727  52.442  1.00  0.00    -0.017 A 
HETATM    4  C6  UNL     1      24.783   2.462  51.869  1.00  0.00     0.051 A 
HETATM    5  C7  UNL     1      26.344   2.441  51.588  1.00  0.00     0.037 A 
HETATM    6  C8  UNL     1      25.643   1.492  52.241  1.00  0.00     0.030 A 
HETATM    7  O2  UNL     1      25.599   2.736  51.221  1.00  0.00     0.000 OA
HETATM    8  C9  UNL     1      24.278   2.723  50.332  1.00  0.00     0.080 C 
HETATM    9  C12 UNL     1      23.241   2.781  51.432  1.00  0.00     0.097 A 
HETATM   10  C20 UNL     1      23.126   3.957  52.235  1.00  0.00     0.080 A 
HETATM   11  N2  UNL     1      24.280   3.949  51.749  1.00  0.00    -0.252 NA
ENDROOT
BRANCH   9  12
HETATM   12  N1  UNL     1      21.971   2.389  50.910  1.00  0.00    -0.295 NA
HETATM   13  H14 UNL     1      21.991   2.594  49.892  1.00  0.00     0.124 HD
BRANCH  12  14
HETATM   14  C13 UNL     1      20.833   3.056  51.477  1.00  0.00     0.116 C 
BRANCH  14  15
HETATM   15  C14 UNL     1      19.803   2.084  51.900  1.00  0.00    -0.012 C 
HETATM   16  C15 UNL     1      19.826   0.771  51.744  1.00  0.00    -0.003 C 
BRANCH  16  17
HETATM   17  C16 UNL     1      18.764  -0.136  52.191  1.00  0.00     0.002 C 
HETATM   18  C17 UNL     1      18.974  -0.993  53.151  1.00  0.00    -0.088 C 
HETATM   19  C18 UNL     1      17.831  -1.877  53.540  1.00  0.00     0.043 C 
HETATM   20  C19 UNL     1      20.287  -1.064  53.804  1.00  0.00     0.043 C 
ENDBRANCH  16  17
ENDBRANCH  14  15
ENDBRANCH  12  14
ENDBRANCH   9  12
BRANCH   8  21
HETATM   21  C10 UNL     1      24.329   3.782  49.386  1.00  0.00     0.178 C 
BRANCH  21  22
HETATM   22  O3  UNL     1      23.198   3.915  48.555  1.00  0.00    -0.395 OA
HETATM   23  C11 UNL     1      22.709   5.195  48.542  1.00  0.00     0.201 C 
ENDBRANCH  21  22
ENDBRANCH   8  21
BRANCH   1  24
HETATM   24  C2  UNL     1      25.672  -0.834  53.531  1.00  0.00     0.202 C 
BRANCH  24  25
HETATM   25  O1  UNL     1      26.923  -0.616  54.011  1.00  0.00    -0.392 OA
HETATM   26  C1  UNL     1      27.883  -1.106  53.096  1.00  0.00     0.201 C 
ENDBRANCH  24  25
ENDBRANCH   1  24
TORSDOF 10
ENDMDL
MODEL 7
REMARK VINA RESULT:      -6.4      3.645      6.904
REMARK  10 active torsions:
REMARK  status: ('A' for Active; 'I' for Inactive)
REMARK    1  A    between atoms: O1_2  and  C2_3 
REMARK    2  A    between atoms: C2_3  and  C3_4 
REMARK    3  A    between atoms: C6_7  and  N2_25 
REMARK    4  A    between atoms: O2_10  and  C9_11 
REMARK    5  A    between atoms: C9_11  and  C10_12 
REMARK    6  A    between atoms: C10_12  and  O3_13 
REMARK    7  A    between atoms: C12_15  and  N1_16 
REMARK    8  A    between atoms: N1_16  and  C13_17 
REMARK    9  A    between atoms: C13_17  and  C14_18 
REMARK   10  A    between atoms: C15_19  and  C16_20 
ROOT
HETATM    1  C3  UNL     1      24.403   0.029  53.251  1.00  0.00    -0.043 A 
HETATM    2  C4  UNL     1      23.073  -0.360  53.648  1.00  0.00     0.014 A 
HETATM    3  C5  UNL     1      22.708   0.661  52.850  1.00  0.00    -0.017 A 
HETATM    4  C6  UNL     1      23.196   1.633  52.043  1.00  0.00     0.051 A 
HETATM    5  C7  UNL     1      24.562   2.205  51.476  1.00  0.00     0.037 A 
HETATM    6  C8  UNL     1      24.429   1.166  52.325  1.00  0.00     0.030 A 
HETATM    7  O2  UNL     1      23.720   2.112  51.233  1.00  0.00     0.000 OA
HETATM    8  C9  UNL     1      22.424   1.427  50.613  1.00  0.00     0.080 C 
HETATM    9  C12 UNL     1      21.622   1.227  51.879  1.00  0.00     0.097 A 
HETATM   10  C20 UNL     1      21.126   2.363  52.590  1.00  0.00     0.080 A 
HETATM   11  N2  UNL     1      22.096   2.750  51.897  1.00  0.00    -0.252 NA
ENDROOT
BRANCH   9  12
HETATM   12  N1  UNL     1      20.582   0.278  51.640  1.00  0.00    -0.295 NA
HETATM   13  H14 UNL     1      20.222   0.464  50.684  1.00  0.00     0.124 HD
BRANCH  12  14
HETATM   14  C13 UNL     1      19.473   0.328  52.551  1.00  0.00     0.116 C 
BRANCH  14  15
HETATM   15  C14 UNL     1      19.146  -1.020  53.065  1.00  0.00    -0.012 C 
HETATM   16  C15 UNL     1      17.949  -1.574  53.158  1.00  0.00    -0.003 C 
BRANCH  16  17
HETATM   17  C16 UNL     1      17.698  -2.922  53.681  1.00  0.00     0.002 C 
HETATM   18  C17 UNL     1      16.621  -3.578  53.352  1.00  0.00    -0.088 C 
HETATM   19  C18 UNL     1      16.450  -4.947  53.934  1.00  0.00     0.043 C 
HETATM   20  C19 UNL     1      15.635  -2.974  52.447  1.00  0.00     0.043 C 
ENDBRANCH  16  17
ENDBRANCH  14  15
ENDBRANCH  12  14
ENDBRANCH   9  12
BRANCH   8  21
HETATM   21  C10 UNL     1      21.888   2.255  49.589  1.00  0.00     0.178 C 
BRANCH  21  22
HETATM   22  O3  UNL     1      22.790   2.632  48.573  1.00  0.00    -0.395 OA
HETATM   23  C11 UNL     1      22.845   3.990  48.404  1.00  0.00     0.201 C 
ENDBRANCH  21  22
ENDBRANCH   8  21
BRANCH   1  24
HETATM   24  C2  UNL     1      25.623  -0.718  53.774  1.00  0.00     0.202 C 
BRANCH  24  25
HETATM   25  O1  UNL     1      26.814  -0.157  53.445  1.00  0.00    -0.392 OA
HETATM   26  C1  UNL     1      27.493   0.255  54.616  1.00  0.00     0.201 C 
ENDBRANCH  24  25
ENDBRANCH   1  24
TORSDOF 10
ENDMDL
MODEL 8
REMARK VINA RESULT:      -6.3      4.081      8.123
REMARK  10 active torsions:
REMARK  status: ('A' for Active; 'I' for Inactive)
REMARK    1  A    between atoms: O1_2  and  C2_3 
REMARK    2  A    between atoms: C2_3  and  C3_4 
REMARK    3  A    between atoms: C6_7  and  N2_25 
REMARK    4  A    between atoms: O2_10  and  C9_11 
REMARK    5  A    between atoms: C9_11  and  C10_12 
REMARK    6  A    between atoms: C10_12  and  O3_13 
REMARK    7  A    between atoms: C12_15  and  N1_16 
REMARK    8  A    between atoms: N1_16  and  C13_17 
REMARK    9  A    between atoms: C13_17  and  C14_18 
REMARK   10  A    between atoms: C15_19  and  C16_20 
ROOT
HETATM    1  C3  UNL     1      27.056   5.016  48.872  1.00  0.00    -0.043 A 
HETATM    2  C4  UNL     1      26.696   3.911  49.727  1.00  0.00     0.014 A 
HETATM    3  C5  UNL     1      25.494   4.517  49.737  1.00  0.00    -0.017 A 
HETATM    4  C6  UNL     1      24.818   5.592  49.264  1.00  0.00     0.051 A 
HETATM    5  C7  UNL     1      25.005   6.865  48.337  1.00  0.00     0.037 A 
HETATM    6  C8  UNL     1      25.950   5.948  48.625  1.00  0.00     0.030 A 
HETATM    7  O2  UNL     1      24.379   6.290  48.571  1.00  0.00     0.000 OA
HETATM    8  C9  UNL     1      23.489   4.971  48.534  1.00  0.00     0.080 C 
HETATM    9  C12 UNL     1      23.945   4.330  49.826  1.00  0.00     0.097 A 
HETATM   10  C20 UNL     1      23.624   4.947  51.073  1.00  0.00     0.080 A 
HETATM   11  N2  UNL     1      23.570   5.836  50.193  1.00  0.00    -0.252 NA
ENDROOT
BRANCH   9  12
HETATM   12  N1  UNL     1      23.580   2.949  49.827  1.00  0.00    -0.295 NA
HETATM   13  H14 UNL     1      22.772   2.853  49.182  1.00  0.00     0.124 HD
BRANCH  12  14
HETATM   14  C13 UNL     1      23.200   2.408  51.102  1.00  0.00     0.116 C 
BRANCH  14  15
HETATM   15  C14 UNL     1      24.144   1.357  51.537  1.00  0.00    -0.012 C 
HETATM   16  C15 UNL     1      25.348   1.525  52.059  1.00  0.00    -0.003 C 
BRANCH  16  17
HETATM   17  C16 UNL     1      26.233   0.431  52.470  1.00  0.00     0.002 C 
HETATM   18  C17 UNL     1      27.429   0.673  52.928  1.00  0.00    -0.088 C 
HETATM   19  C18 UNL     1      28.262  -0.507  53.323  1.00  0.00     0.043 C 
HETATM   20  C19 UNL     1      27.912   2.055  53.043  1.00  0.00     0.043 C 
ENDBRANCH  16  17
ENDBRANCH  14  15
ENDBRANCH  12  14
ENDBRANCH   9  12
BRANCH   8  21
HETATM   21  C10 UNL     1      22.119   5.322  48.392  1.00  0.00     0.178 C 
BRANCH  21  22
HETATM   22  O3  UNL     1      21.206   4.248  48.426  1.00  0.00    -0.395 OA
HETATM   23  C11 UNL     1      21.007   3.695  47.189  1.00  0.00     0.201 C 
ENDBRANCH  21  22
ENDBRANCH   8  21
BRANCH   1  24
HETATM   24  C2  UNL     1      28.464   5.138  48.307  1.00  0.00     0.202 C 
BRANCH  24  25
HETATM   25  O1  UNL     1      28.744   6.339  47.740  1.00  0.00    -0.392 OA
HETATM   26  C1  UNL     1      29.923   6.877  48.306  1.00  0.00     0.201 C 
ENDBRANCH  24  25
ENDBRANCH   1  24
TORSDOF 10
ENDMDL
MODEL 9
REMARK VINA RESULT:      -6.3      6.157      8.756
REMARK  10 active torsions:
REMARK  status: ('A' for Active; 'I' for Inactive)
REMARK    1  A    between atoms: O1_2  and  C2_3 
REMARK    2  A    between atoms: C2_3  and  C3_4 
REMARK    3  A    between atoms: C6_7  and  N2_25 
REMARK    4  A    between atoms: O2_10  and  C9_11 
REMARK    5  A    between atoms: C9_11  and  C10_12 
REMARK    6  A    between atoms: C10_12  and  O3_13 
REMARK    7  A    between atoms: C12_15  and  N1_16 
REMARK    8  A    between atoms: N1_16  and  C13_17 
REMARK    9  A    between atoms: C13_17  and  C14_18 
REMARK   10  A    between atoms: C15_19  and  C16_20 
ROOT
HETATM    1  C3  UNL     1      25.795   4.336  49.517  1.00  0.00    -0.043 A 
HETATM    2  C4  UNL     1      27.137   4.436  49.000  1.00  0.00     0.014 A 
HETATM    3  C5  UNL     1      26.786   5.717  48.778  1.00  0.00    -0.017 A 
HETATM    4  C6  UNL     1      25.765   6.598  48.904  1.00  0.00     0.051 A 
HETATM    5  C7  UNL     1      24.275   6.702  49.436  1.00  0.00     0.037 A 
HETATM    6  C8  UNL     1      25.048   5.597  49.452  1.00  0.00     0.030 A 
HETATM    7  O2  UNL     1      24.996   7.202  49.354  1.00  0.00     0.000 OA
HETATM    8  C9  UNL     1      26.394   7.862  49.736  1.00  0.00     0.080 C 
HETATM    9  C12 UNL     1      27.270   7.201  48.695  1.00  0.00     0.097 A 
HETATM   10  C20 UNL     1      27.086   7.515  47.313  1.00  0.00     0.080 A 
HETATM   11  N2  UNL     1      26.016   7.787  47.903  1.00  0.00    -0.252 NA
ENDROOT
BRANCH   9  12
HETATM   12  N1  UNL     1      28.640   7.330  49.073  1.00  0.00    -0.295 NA
HETATM   13  H14 UNL     1      28.750   8.282  49.474  1.00  0.00     0.124 HD
BRANCH  12  14
HETATM   14  C13 UNL     1      29.595   7.182  48.011  1.00  0.00     0.116 C 
BRANCH  14  15
HETATM   15  C14 UNL     1      30.351   5.919  48.148  1.00  0.00    -0.012 C 
HETATM   16  C15 UNL     1      31.375   5.512  47.415  1.00  0.00    -0.003 C 
BRANCH  16  17
HETATM   17  C16 UNL     1      32.080   4.241  47.609  1.00  0.00     0.002 C 
HETATM   18  C17 UNL     1      32.762   3.698  46.641  1.00  0.00    -0.088 C 
HETATM   19  C18 UNL     1      33.449   2.400  46.931  1.00  0.00     0.043 C 
HETATM   20  C19 UNL     1      32.837   4.357  45.330  1.00  0.00     0.043 C 
ENDBRANCH  16  17
ENDBRANCH  14  15
ENDBRANCH  12  14
ENDBRANCH   9  12
BRANCH   8  21
HETATM   21  C10 UNL     1      26.273   9.278  49.727  1.00  0.00     0.178 C 
BRANCH  21  22
HETATM   22  O3  UNL     1      27.455   9.995  50.001  1.00  0.00    -0.395 OA
HETATM   23  C11 UNL     1      27.811  10.826  48.972  1.00  0.00     0.201 C 
ENDBRANCH  21  22
ENDBRANCH   8  21
BRANCH   1  24
HETATM   24  C2  UNL     1      25.268   3.019  50.070  1.00  0.00     0.202 C 
BRANCH  24  25
HETATM   25  O1  UNL     1      23.955   3.035  50.415  1.00  0.00    -0.392 OA
HETATM   26  C1  UNL     1      23.645   1.891  51.186  1.00  0.00     0.201 C 
ENDBRANCH  24  25
ENDBRANCH   1  24
TORSDOF 10
ENDMDL
