MODEL 1
REMARK VINA RESULT:      -8.5      0.000      0.000
REMARK  5 active torsions:
REMARK  status: ('A' for Active; 'I' for Inactive)
REMARK    1  A    between atoms: C6_6  and  N1_7 
REMARK    2  A    between atoms: N1_7  and  C7_8 
REMARK    3  A    between atoms: C13_18  and  C14_20 
REMARK    4  A    between atoms: C16_22  and  N6_24 
REMARK    5  A    between atoms: N6_24  and  C17_25 
ROOT
HETATM    1  C7  UNL     1      25.005  -0.725  53.752  1.00  0.00     0.141 A 
HETATM    2  N2  UNL     1      25.058  -1.363  54.958  1.00  0.00    -0.224 NA
HETATM    3  C8  UNL     1      24.001  -1.485  55.774  1.00  0.00     0.236 A 
HETATM    4  N3  UNL     1      22.774  -0.974  55.456  1.00  0.00    -0.240 NA
HETATM    5  C9  UNL     1      22.655  -0.329  54.274  1.00  0.00     0.089 A 
HETATM    6  C10 UNL     1      21.435   0.192  53.932  1.00  0.00     0.148 A 
HETATM    7  N4  UNL     1      21.328   0.826  52.764  1.00  0.00    -0.237 NA
HETATM    8  C11 UNL     1      22.376   0.977  51.900  1.00  0.00     0.266 A 
HETATM    9  N5  UNL     1      22.178   1.666  50.671  1.00  0.00    -0.314 N 
HETATM   10  C12 UNL     1      21.813   1.446  49.288  1.00  0.00     0.157 C 
HETATM   11  C13 UNL     1      22.467   2.988  51.075  1.00  0.00     0.141 A 
HETATM   12  O1  UNL     1      22.682   2.505  52.239  1.00  0.00    -0.282 OA
HETATM   13  C18 UNL     1      23.567   0.424  52.315  1.00  0.00     0.078 A 
HETATM   14  C19 UNL     1      23.766  -0.239  53.490  1.00  0.00     0.043 A 
ENDROOT
BRANCH  11  15
HETATM   15  C14 UNL     1      22.720   4.386  51.276  1.00  0.00     0.175 A 
HETATM   16  C15 UNL     1      22.144   5.489  51.602  1.00  0.00     0.061 A 
HETATM   17  C16 UNL     1      23.548   5.775  51.352  1.00  0.00     0.182 A 
HETATM   18  O2  UNL     1      24.478   5.016  51.014  1.00  0.00    -0.278 OA
BRANCH  17  19
HETATM   19  N6  UNL     1      23.912   7.121  51.518  1.00  0.00    -0.308 N 
HETATM   20  H16 UNL     1      24.071   7.720  52.339  1.00  0.00     0.171 HD
BRANCH  19  21
HETATM   21  C17 UNL     1      24.190   8.136  50.614  1.00  0.00     0.355 C 
HETATM   22  O3  UNL     1      23.160   8.469  49.942  1.00  0.00    -0.283 OA
ENDBRANCH  19  21
ENDBRANCH  17  19
ENDBRANCH  11  15
BRANCH   1  23
HETATM   23  N1  UNL     1      26.158  -0.626  52.934  1.00  0.00    -0.343 N 
HETATM   24  H8  UNL     1      26.390  -1.254  52.145  1.00  0.00     0.167 HD
BRANCH  23  25
HETATM   25  C6  UNL     1      27.053   0.448  53.258  1.00  0.00     0.018 A 
HETATM   26  C2  UNL     1      26.954   1.916  53.100  1.00  0.00     0.054 A 
HETATM   27  C1  UNL     1      26.781   2.330  51.662  1.00  0.00     0.020 C 
HETATM   28  C3  UNL     1      28.257   2.365  53.657  1.00  0.00    -0.016 A 
HETATM   29  C4  UNL     1      29.022   1.374  54.081  1.00  0.00    -0.001 A 
HETATM   30  C5  UNL     1      28.244   0.168  53.821  1.00  0.00     0.025 A 
ENDBRANCH  23  25
ENDBRANCH   1  23
TORSDOF 5
ENDMDL
MODEL 2
REMARK VINA RESULT:      -7.8      1.596      2.080
REMARK  5 active torsions:
REMARK  status: ('A' for Active; 'I' for Inactive)
REMARK    1  A    between atoms: C6_6  and  N1_7 
REMARK    2  A    between atoms: N1_7  and  C7_8 
REMARK    3  A    between atoms: C13_18  and  C14_20 
REMARK    4  A    between atoms: C16_22  and  N6_24 
REMARK    5  A    between atoms: N6_24  and  C17_25 
ROOT
HETATM    1  C7  UNL     1      23.095  -0.118  53.168  1.00  0.00     0.141 A 
HETATM    2  N2  UNL     1      22.535  -0.618  54.310  1.00  0.00    -0.224 NA
HETATM    3  C8  UNL     1      21.333  -0.238  54.768  1.00  0.00     0.236 A 
HETATM    4  N3  UNL     1      20.567   0.689  54.119  1.00  0.00    -0.240 NA
HETATM    5  C9  UNL     1      21.065   1.223  52.981  1.00  0.00     0.089 A 
HETATM    6  C10 UNL     1      20.315   2.154  52.312  1.00  0.00     0.148 A 
HETATM    7  N4  UNL     1      20.816   2.675  51.190  1.00  0.00    -0.237 NA
HETATM    8  C11 UNL     1      22.035   2.321  50.684  1.00  0.00     0.266 A 
HETATM    9  N5  UNL     1      22.496   2.923  49.481  1.00  0.00    -0.314 N 
HETATM   10  C12 UNL     1      22.488   2.747  48.044  1.00  0.00     0.157 C 
HETATM   11  C13 UNL     1      23.166   4.050  50.004  1.00  0.00     0.141 A 
HETATM   12  O1  UNL     1      22.822   3.624  51.159  1.00  0.00    -0.282 OA
HETATM   13  C18 UNL     1      22.726   1.378  51.414  1.00  0.00     0.078 A 
HETATM   14  C19 UNL     1      22.291   0.796  52.568  1.00  0.00     0.043 A 
ENDROOT
BRANCH  11  15
HETATM   15  C14 UNL     1      23.893   5.244  50.326  1.00  0.00     0.175 A 
HETATM   16  C15 UNL     1      23.741   6.444  50.765  1.00  0.00     0.061 A 
HETATM   17  C16 UNL     1      25.157   6.240  50.508  1.00  0.00     0.182 A 
HETATM   18  O2  UNL     1      25.763   5.237  50.080  1.00  0.00    -0.278 OA
BRANCH  17  19
HETATM   19  N6  UNL     1      25.971   7.349  50.787  1.00  0.00    -0.308 N 
HETATM   20  H16 UNL     1      26.384   7.731  51.649  1.00  0.00     0.171 HD
BRANCH  19  21
HETATM   21  C17 UNL     1      26.514   8.340  49.982  1.00  0.00     0.355 C 
HETATM   22  O3  UNL     1      25.643   9.205  49.640  1.00  0.00    -0.283 OA
ENDBRANCH  19  21
ENDBRANCH  17  19
ENDBRANCH  11  15
BRANCH   1  23
HETATM   23  N1  UNL     1      24.370  -0.557  52.736  1.00  0.00    -0.343 N 
HETATM   24  H8  UNL     1      24.547  -1.352  52.098  1.00  0.00     0.167 HD
BRANCH  23  25
HETATM   25  C6  UNL     1      25.484   0.190  53.246  1.00  0.00     0.018 A 
HETATM   26  C2  UNL     1      26.002   1.544  52.950  1.00  0.00     0.054 A 
HETATM   27  C1  UNL     1      26.398   1.705  51.505  1.00  0.00     0.020 C 
HETATM   28  C3  UNL     1      27.174   1.623  53.860  1.00  0.00    -0.016 A 
HETATM   29  C4  UNL     1      27.355   0.532  54.586  1.00  0.00    -0.001 A 
HETATM   30  C5  UNL     1      26.277  -0.364  54.184  1.00  0.00     0.025 A 
ENDBRANCH  23  25
ENDBRANCH   1  23
TORSDOF 5
ENDMDL
MODEL 3
REMARK VINA RESULT:      -7.3      2.386      6.516
REMARK  5 active torsions:
REMARK  status: ('A' for Active; 'I' for Inactive)
REMARK    1  A    between atoms: C6_6  and  N1_7 
REMARK    2  A    between atoms: N1_7  and  C7_8 
REMARK    3  A    between atoms: C13_18  and  C14_20 
REMARK    4  A    between atoms: C16_22  and  N6_24 
REMARK    5  A    between atoms: N6_24  and  C17_25 
ROOT
HETATM    1  C7  UNL     1      21.020   4.506  49.510  1.00  0.00     0.141 A 
HETATM    2  N2  UNL     1      20.885   4.802  48.183  1.00  0.00    -0.224 NA
HETATM    3  C8  UNL     1      20.892   3.873  47.216  1.00  0.00     0.236 A 
HETATM    4  N3  UNL     1      21.036   2.542  47.487  1.00  0.00    -0.240 NA
HETATM    5  C9  UNL     1      21.174   2.181  48.784  1.00  0.00     0.089 A 
HETATM    6  C10 UNL     1      21.319   0.852  49.081  1.00  0.00     0.148 A 
HETATM    7  N4  UNL     1      21.455   0.507  50.362  1.00  0.00    -0.237 NA
HETATM    8  C11 UNL     1      21.455   1.416  51.383  1.00  0.00     0.266 A 
HETATM    9  N5  UNL     1      21.604   0.965  52.723  1.00  0.00    -0.314 N 
HETATM   10  C12 UNL     1      20.836   0.534  53.871  1.00  0.00     0.157 C 
HETATM   11  C13 UNL     1      23.010   0.997  52.845  1.00  0.00     0.141 A 
HETATM   12  O1  UNL     1      23.030   1.414  51.636  1.00  0.00    -0.282 OA
HETATM   13  C18 UNL     1      21.303   2.731  51.001  1.00  0.00     0.078 A 
HETATM   14  C19 UNL     1      21.159   3.172  49.718  1.00  0.00     0.043 A 
ENDROOT
BRANCH  11  15
HETATM   15  C14 UNL     1      24.407   0.959  53.174  1.00  0.00     0.175 A 
HETATM   16  C15 UNL     1      25.434   0.185  53.171  1.00  0.00     0.061 A 
HETATM   17  C16 UNL     1      25.850   1.475  53.697  1.00  0.00     0.182 A 
HETATM   18  O2  UNL     1      25.194   2.521  53.879  1.00  0.00    -0.278 OA
BRANCH  17  19
HETATM   19  N6  UNL     1      27.204   1.554  54.057  1.00  0.00    -0.308 N 
HETATM   20  H16 UNL     1      27.725   1.347  54.920  1.00  0.00     0.171 HD
BRANCH  19  21
HETATM   21  C17 UNL     1      28.338   1.948  53.362  1.00  0.00     0.355 C 
HETATM   22  O3  UNL     1      28.047   2.520  52.262  1.00  0.00    -0.283 OA
ENDBRANCH  19  21
ENDBRANCH  17  19
ENDBRANCH  11  15
BRANCH   1  23
HETATM   23  N1  UNL     1      21.007   5.532  50.486  1.00  0.00    -0.343 N 
HETATM   24  H8  UNL     1      20.179   5.837  51.026  1.00  0.00     0.167 HD
BRANCH  23  25
HETATM   25  C6  UNL     1      22.269   6.176  50.718  1.00  0.00     0.018 A 
HETATM   26  C2  UNL     1      23.575   5.676  51.200  1.00  0.00     0.054 A 
HETATM   27  C1  UNL     1      23.488   5.076  52.579  1.00  0.00     0.020 C 
HETATM   28  C3  UNL     1      24.395   6.916  51.183  1.00  0.00    -0.016 A 
HETATM   29  C4  UNL     1      23.733   7.984  50.770  1.00  0.00    -0.001 A 
HETATM   30  C5  UNL     1      22.388   7.497  50.481  1.00  0.00     0.025 A 
ENDBRANCH  23  25
ENDBRANCH   1  23
TORSDOF 5
ENDMDL
MODEL 4
REMARK VINA RESULT:      -7.1     21.168     24.905
REMARK  5 active torsions:
REMARK  status: ('A' for Active; 'I' for Inactive)
REMARK    1  A    between atoms: C6_6  and  N1_7 
REMARK    2  A    between atoms: N1_7  and  C7_8 
REMARK    3  A    between atoms: C13_18  and  C14_20 
REMARK    4  A    between atoms: C16_22  and  N6_24 
REMARK    5  A    between atoms: N6_24  and  C17_25 
ROOT
HETATM    1  C7  UNL     1      44.584   5.812  67.880  1.00  0.00     0.141 A 
HETATM    2  N2  UNL     1      44.306   7.140  67.725  1.00  0.00    -0.224 NA
HETATM    3  C8  UNL     1      43.302   7.762  68.360  1.00  0.00     0.236 A 
HETATM    4  N3  UNL     1      42.470   7.106  69.223  1.00  0.00    -0.240 NA
HETATM    5  C9  UNL     1      42.691   5.786  69.420  1.00  0.00     0.089 A 
HETATM    6  C10 UNL     1      41.871   5.107  70.281  1.00  0.00     0.148 A 
HETATM    7  N4  UNL     1      42.098   3.805  70.468  1.00  0.00    -0.237 NA
HETATM    8  C11 UNL     1      43.106   3.128  69.843  1.00  0.00     0.266 A 
HETATM    9  N5  UNL     1      43.282   1.740  70.099  1.00  0.00    -0.314 N 
HETATM   10  C12 UNL     1      43.980   0.823  70.974  1.00  0.00     0.157 C 
HETATM   11  C13 UNL     1      42.448   1.192  69.101  1.00  0.00     0.141 A 
HETATM   12  O1  UNL     1      42.197   2.398  68.755  1.00  0.00    -0.282 OA
HETATM   13  C18 UNL     1      43.887   3.882  68.996  1.00  0.00     0.078 A 
HETATM   14  C19 UNL     1      43.727   5.213  68.745  1.00  0.00     0.043 A 
ENDROOT
BRANCH  11  15
HETATM   15  C14 UNL     1      41.661   0.440  68.165  1.00  0.00     0.175 A 
HETATM   16  C15 UNL     1      41.749  -0.468  67.258  1.00  0.00     0.061 A 
HETATM   17  C16 UNL     1      40.353  -0.072  67.360  1.00  0.00     0.182 A 
HETATM   18  O2  UNL     1      39.805   0.769  68.101  1.00  0.00    -0.278 OA
BRANCH  17  19
HETATM   19  N6  UNL     1      39.486  -0.745  66.484  1.00  0.00    -0.308 N 
HETATM   20  H16 UNL     1      39.169  -0.568  65.522  1.00  0.00     0.171 HD
BRANCH  19  21
HETATM   21  C17 UNL     1      38.738  -1.906  66.612  1.00  0.00     0.355 C 
HETATM   22  O3  UNL     1      37.522  -1.727  66.276  1.00  0.00    -0.283 OA
ENDBRANCH  19  21
ENDBRANCH  17  19
ENDBRANCH  11  15
BRANCH   1  23
HETATM   23  N1  UNL     1      45.657   5.210  67.178  1.00  0.00    -0.343 N 
HETATM   24  H8  UNL     1      46.537   4.870  67.604  1.00  0.00     0.167 HD
BRANCH  23  25
HETATM   25  C6  UNL     1      45.470   5.078  65.761  1.00  0.00     0.018 A 
HETATM   26  C2  UNL     1      45.890   5.911  64.613  1.00  0.00     0.054 A 
HETATM   27  C1  UNL     1      45.330   7.308  64.681  1.00  0.00     0.020 C 
HETATM   28  C3  UNL     1      45.336   5.144  63.467  1.00  0.00    -0.016 A 
HETATM   29  C4  UNL     1      44.695   4.044  63.826  1.00  0.00    -0.001 A 
HETATM   30  C5  UNL     1      44.790   4.019  65.282  1.00  0.00     0.025 A 
ENDBRANCH  23  25
ENDBRANCH   1  23
TORSDOF 5
ENDMDL
MODEL 5
REMARK VINA RESULT:      -7.0      2.899      4.347
REMARK  5 active torsions:
REMARK  status: ('A' for Active; 'I' for Inactive)
REMARK    1  A    between atoms: C6_6  and  N1_7 
REMARK    2  A    between atoms: N1_7  and  C7_8 
REMARK    3  A    between atoms: C13_18  and  C14_20 
REMARK    4  A    between atoms: C16_22  and  N6_24 
REMARK    5  A    between atoms: N6_24  and  C17_25 
ROOT
HETATM    1  C7  UNL     1      26.296   2.751  50.676  1.00  0.00     0.141 A 
HETATM    2  N2  UNL     1      27.257   2.600  51.634  1.00  0.00    -0.224 NA
HETATM    3  C8  UNL     1      26.984   2.281  52.908  1.00  0.00     0.236 A 
HETATM    4  N3  UNL     1      25.707   2.080  53.349  1.00  0.00    -0.240 NA
HETATM    5  C9  UNL     1      24.707   2.215  52.448  1.00  0.00     0.089 A 
HETATM    6  C10 UNL     1      23.418   2.017  52.867  1.00  0.00     0.148 A 
HETATM    7  N4  UNL     1      22.439   2.153  51.970  1.00  0.00    -0.237 NA
HETATM    8  C11 UNL     1      22.667   2.477  50.662  1.00  0.00     0.266 A 
HETATM    9  N5  UNL     1      21.567   2.601  49.769  1.00  0.00    -0.314 N 
HETATM   10  C12 UNL     1      20.761   1.835  48.843  1.00  0.00     0.157 C 
HETATM   11  C13 UNL     1      21.259   3.968  49.937  1.00  0.00     0.141 A 
HETATM   12  O1  UNL     1      22.230   4.007  50.768  1.00  0.00    -0.282 OA
HETATM   13  C18 UNL     1      23.990   2.657  50.321  1.00  0.00     0.078 A 
HETATM   14  C19 UNL     1      25.050   2.539  51.170  1.00  0.00     0.043 A 
ENDROOT
BRANCH  11  15
HETATM   15  C14 UNL     1      20.787   5.323  49.960  1.00  0.00     0.175 A 
HETATM   16  C15 UNL     1      19.751   6.046  49.718  1.00  0.00     0.061 A 
HETATM   17  C16 UNL     1      20.812   6.928  50.178  1.00  0.00     0.182 A 
HETATM   18  O2  UNL     1      21.982   6.668  50.525  1.00  0.00    -0.278 OA
BRANCH  17  19
HETATM   19  N6  UNL     1      20.463   8.286  50.239  1.00  0.00    -0.308 N 
HETATM   20  H16 UNL     1      20.753   9.070  50.839  1.00  0.00     0.171 HD
BRANCH  19  21
HETATM   21  C17 UNL     1      19.585   9.063  49.497  1.00  0.00     0.355 C 
HETATM   22  O3  UNL     1      19.861  10.304  49.582  1.00  0.00    -0.283 OA
ENDBRANCH  19  21
ENDBRANCH  17  19
ENDBRANCH  11  15
BRANCH   1  23
HETATM   23  N1  UNL     1      26.647   3.091  49.346  1.00  0.00    -0.343 N 
HETATM   24  H8  UNL     1      26.756   2.423  48.564  1.00  0.00     0.167 HD
BRANCH  23  25
HETATM   25  C6  UNL     1      26.857   4.490  49.104  1.00  0.00     0.018 A 
HETATM   26  C2  UNL     1      26.031   5.688  49.368  1.00  0.00     0.054 A 
HETATM   27  C1  UNL     1      24.703   5.640  48.657  1.00  0.00     0.020 C 
HETATM   28  C3  UNL     1      26.902   6.774  48.847  1.00  0.00    -0.016 A 
HETATM   29  C4  UNL     1      28.050   6.342  48.354  1.00  0.00    -0.001 A 
HETATM   30  C5  UNL     1      28.005   4.894  48.524  1.00  0.00     0.025 A 
ENDBRANCH  23  25
ENDBRANCH   1  23
TORSDOF 5
ENDMDL
MODEL 6
REMARK VINA RESULT:      -6.9      5.016      6.732
REMARK  5 active torsions:
REMARK  status: ('A' for Active; 'I' for Inactive)
REMARK    1  A    between atoms: C6_6  and  N1_7 
REMARK    2  A    between atoms: N1_7  and  C7_8 
REMARK    3  A    between atoms: C13_18  and  C14_20 
REMARK    4  A    between atoms: C16_22  and  N6_24 
REMARK    5  A    between atoms: N6_24  and  C17_25 
ROOT
HETATM    1  C7  UNL     1      21.503   0.385  52.197  1.00  0.00     0.141 A 
HETATM    2  N2  UNL     1      22.405  -0.022  53.138  1.00  0.00    -0.224 NA
HETATM    3  C8  UNL     1      22.096  -0.854  54.144  1.00  0.00     0.236 A 
HETATM    4  N3  UNL     1      20.838  -1.363  54.306  1.00  0.00    -0.240 NA
HETATM    5  C9  UNL     1      19.897  -0.997  53.407  1.00  0.00     0.089 A 
HETATM    6  C10 UNL     1      18.628  -1.495  53.548  1.00  0.00     0.148 A 
HETATM    7  N4  UNL     1      17.707  -1.128  52.655  1.00  0.00    -0.237 NA
HETATM    8  C11 UNL     1      17.973  -0.284  51.615  1.00  0.00     0.266 A 
HETATM    9  N5  UNL     1      16.934   0.057  50.705  1.00  0.00    -0.314 N 
HETATM   10  C12 UNL     1      16.328  -0.363  49.460  1.00  0.00     0.157 C 
HETATM   11  C13 UNL     1      16.402   1.197  51.346  1.00  0.00     0.141 A 
HETATM   12  O1  UNL     1      17.293   1.013  52.246  1.00  0.00    -0.282 OA
HETATM   13  C18 UNL     1      19.272   0.172  51.541  1.00  0.00     0.078 A 
HETATM   14  C19 UNL     1      20.274  -0.151  52.408  1.00  0.00     0.043 A 
ENDROOT
BRANCH  11  15
HETATM   15  C14 UNL     1      15.721   2.363  51.830  1.00  0.00     0.175 A 
HETATM   16  C15 UNL     1      15.698   3.646  51.728  1.00  0.00     0.061 A 
HETATM   17  C16 UNL     1      14.661   3.254  52.670  1.00  0.00     0.182 A 
HETATM   18  O2  UNL     1      14.322   2.123  53.071  1.00  0.00    -0.278 OA
BRANCH  17  19
HETATM   19  N6  UNL     1      13.927   4.320  53.212  1.00  0.00    -0.308 N 
HETATM   20  H16 UNL     1      14.187   5.226  53.626  1.00  0.00     0.171 HD
BRANCH  19  21
HETATM   21  C17 UNL     1      12.567   4.531  53.385  1.00  0.00     0.355 C 
HETATM   22  O3  UNL     1      12.198   4.295  54.581  1.00  0.00    -0.283 OA
ENDBRANCH  19  21
ENDBRANCH  17  19
ENDBRANCH  11  15
BRANCH   1  23
HETATM   23  N1  UNL     1      21.889   1.268  51.158  1.00  0.00    -0.343 N 
HETATM   24  H8  UNL     1      22.030   1.004  50.168  1.00  0.00     0.167 HD
BRANCH  23  25
HETATM   25  C6  UNL     1      22.089   2.633  51.553  1.00  0.00     0.018 A 
HETATM   26  C2  UNL     1      21.222   3.615  52.241  1.00  0.00     0.054 A 
HETATM   27  C1  UNL     1      19.951   3.892  51.481  1.00  0.00     0.020 C 
HETATM   28  C3  UNL     1      22.107   4.807  52.300  1.00  0.00    -0.016 A 
HETATM   29  C4  UNL     1      23.297   4.611  51.756  1.00  0.00    -0.001 A 
HETATM   30  C5  UNL     1      23.267   3.230  51.288  1.00  0.00     0.025 A 
ENDBRANCH  23  25
ENDBRANCH   1  23
TORSDOF 5
ENDMDL
MODEL 7
REMARK VINA RESULT:      -6.9      2.734      7.521
REMARK  5 active torsions:
REMARK  status: ('A' for Active; 'I' for Inactive)
REMARK    1  A    between atoms: C6_6  and  N1_7 
REMARK    2  A    between atoms: N1_7  and  C7_8 
REMARK    3  A    between atoms: C13_18  and  C14_20 
REMARK    4  A    between atoms: C16_22  and  N6_24 
REMARK    5  A    between atoms: N6_24  and  C17_25 
ROOT
HETATM    1  C7  UNL     1      23.200   4.265  49.559  1.00  0.00     0.141 A 
HETATM    2  N2  UNL     1      23.021   5.605  49.366  1.00  0.00    -0.224 NA
HETATM    3  C8  UNL     1      23.188   6.518  50.334  1.00  0.00     0.236 A 
HETATM    4  N3  UNL     1      23.556   6.173  51.603  1.00  0.00    -0.240 NA
HETATM    5  C9  UNL     1      23.750   4.859  51.861  1.00  0.00     0.089 A 
HETATM    6  C10 UNL     1      24.119   4.488  53.127  1.00  0.00     0.148 A 
HETATM    7  N4  UNL     1      24.307   3.190  53.370  1.00  0.00    -0.237 NA
HETATM    8  C11 UNL     1      24.148   2.223  52.418  1.00  0.00     0.266 A 
HETATM    9  N5  UNL     1      24.370   0.860  52.759  1.00  0.00    -0.314 N 
HETATM   10  C12 UNL     1      25.405  -0.151  52.794  1.00  0.00     0.157 C 
HETATM   11  C13 UNL     1      23.075   0.494  53.186  1.00  0.00     0.141 A 
HETATM   12  O1  UNL     1      22.729   1.696  52.919  1.00  0.00    -0.282 OA
HETATM   13  C18 UNL     1      23.777   2.678  51.171  1.00  0.00     0.078 A 
HETATM   14  C19 UNL     1      23.564   3.982  50.835  1.00  0.00     0.043 A 
ENDROOT
BRANCH  11  15
HETATM   15  C14 UNL     1      21.845  -0.077  53.655  1.00  0.00     0.175 A 
HETATM   16  C15 UNL     1      21.293  -0.594  54.696  1.00  0.00     0.061 A 
HETATM   17  C16 UNL     1      20.312  -0.597  53.622  1.00  0.00     0.182 A 
HETATM   18  O2  UNL     1      20.404  -0.195  52.445  1.00  0.00    -0.278 OA
BRANCH  17  19
HETATM   19  N6  UNL     1      19.064  -1.138  53.968  1.00  0.00    -0.308 N 
HETATM   20  H16 UNL     1      18.623  -1.399  54.861  1.00  0.00     0.171 HD
BRANCH  19  21
HETATM   21  C17 UNL     1      17.965  -1.520  53.212  1.00  0.00     0.355 C 
HETATM   22  O3  UNL     1      17.030  -0.657  53.263  1.00  0.00    -0.283 OA
ENDBRANCH  19  21
ENDBRANCH  17  19
ENDBRANCH  11  15
BRANCH   1  23
HETATM   23  N1  UNL     1      23.006   3.348  48.497  1.00  0.00    -0.343 N 
HETATM   24  H8  UNL     1      23.746   2.780  48.051  1.00  0.00     0.167 HD
BRANCH  23  25
HETATM   25  C6  UNL     1      21.654   3.224  48.030  1.00  0.00     0.018 A 
HETATM   26  C2  UNL     1      20.409   2.755  48.678  1.00  0.00     0.054 A 
HETATM   27  C1  UNL     1      20.508   1.327  49.147  1.00  0.00     0.020 C 
HETATM   28  C3  UNL     1      19.422   2.913  47.578  1.00  0.00    -0.016 A 
HETATM   29  C4  UNL     1      19.944   3.389  46.460  1.00  0.00    -0.001 A 
HETATM   30  C5  UNL     1      21.358   3.579  46.764  1.00  0.00     0.025 A 
ENDBRANCH  23  25
ENDBRANCH   1  23
TORSDOF 5
ENDMDL
MODEL 8
REMARK VINA RESULT:      -6.9      3.137      5.726
REMARK  5 active torsions:
REMARK  status: ('A' for Active; 'I' for Inactive)
REMARK    1  A    between atoms: C6_6  and  N1_7 
REMARK    2  A    between atoms: N1_7  and  C7_8 
REMARK    3  A    between atoms: C13_18  and  C14_20 
REMARK    4  A    between atoms: C16_22  and  N6_24 
REMARK    5  A    between atoms: N6_24  and  C17_25 
ROOT
HETATM    1  C7  UNL     1      22.110   0.572  53.630  1.00  0.00     0.141 A 
HETATM    2  N2  UNL     1      22.525  -0.587  54.222  1.00  0.00    -0.224 NA
HETATM    3  C8  UNL     1      23.778  -1.055  54.127  1.00  0.00     0.236 A 
HETATM    4  N3  UNL     1      24.748  -0.400  53.421  1.00  0.00    -0.240 NA
HETATM    5  C9  UNL     1      24.401   0.755  52.810  1.00  0.00     0.089 A 
HETATM    6  C10 UNL     1      25.356   1.430  52.097  1.00  0.00     0.148 A 
HETATM    7  N4  UNL     1      25.003   2.569  51.498  1.00  0.00    -0.237 NA
HETATM    8  C11 UNL     1      23.740   3.086  51.564  1.00  0.00     0.266 A 
HETATM    9  N5  UNL     1      23.446   4.307  50.898  1.00  0.00    -0.314 N 
HETATM   10  C12 UNL     1      23.426   5.740  51.102  1.00  0.00     0.157 C 
HETATM   11  C13 UNL     1      23.056   3.816  49.633  1.00  0.00     0.141 A 
HETATM   12  O1  UNL     1      23.279   2.647  50.103  1.00  0.00    -0.282 OA
HETATM   13  C18 UNL     1      22.839   2.349  52.301  1.00  0.00     0.078 A 
HETATM   14  C19 UNL     1      23.113   1.177  52.945  1.00  0.00     0.043 A 
ENDROOT
BRANCH  11  15
HETATM   15  C14 UNL     1      22.628   3.527  48.294  1.00  0.00     0.175 A 
HETATM   16  C15 UNL     1      22.212   2.571  47.541  1.00  0.00     0.061 A 
HETATM   17  C16 UNL     1      22.262   3.782  46.737  1.00  0.00     0.182 A 
HETATM   18  O2  UNL     1      22.603   4.942  47.047  1.00  0.00    -0.278 OA
BRANCH  17  19
HETATM   19  N6  UNL     1      21.866   3.618  45.401  1.00  0.00    -0.308 N 
HETATM   20  H16 UNL     1      22.322   3.227  44.566  1.00  0.00     0.171 HD
BRANCH  19  21
HETATM   21  C17 UNL     1      20.696   3.932  44.724  1.00  0.00     0.355 C 
HETATM   22  O3  UNL     1      20.732   3.547  43.510  1.00  0.00    -0.283 OA
ENDBRANCH  19  21
ENDBRANCH  17  19
ENDBRANCH  11  15
BRANCH   1  23
HETATM   23  N1  UNL     1      20.771   1.014  53.764  1.00  0.00    -0.343 N 
HETATM   24  H8  UNL     1      20.418   1.641  54.508  1.00  0.00     0.167 HD
BRANCH  23  25
HETATM   25  C6  UNL     1      19.860   0.533  52.766  1.00  0.00     0.018 A 
HETATM   26  C2  UNL     1      19.714   0.818  51.321  1.00  0.00     0.054 A 
HETATM   27  C1  UNL     1      19.438   2.274  51.048  1.00  0.00     0.020 C 
HETATM   28  C3  UNL     1      18.560  -0.045  50.960  1.00  0.00    -0.016 A 
HETATM   29  C4  UNL     1      18.077  -0.738  51.978  1.00  0.00    -0.001 A 
HETATM   30  C5  UNL     1      18.911  -0.359  53.113  1.00  0.00     0.025 A 
ENDBRANCH  23  25
ENDBRANCH   1  23
TORSDOF 5
ENDMDL
MODEL 9
REMARK VINA RESULT:      -6.9      1.851      2.271
REMARK  5 active torsions:
REMARK  status: ('A' for Active; 'I' for Inactive)
REMARK    1  A    between atoms: C6_6  and  N1_7 
REMARK    2  A    between atoms: N1_7  and  C7_8 
REMARK    3  A    between atoms: C13_18  and  C14_20 
REMARK    4  A    between atoms: C16_22  and  N6_24 
REMARK    5  A    between atoms: N6_24  and  C17_25 
ROOT
HETATM    1  C7  UNL     1      24.093   0.570  53.122  1.00  0.00     0.141 A 
HETATM    2  N2  UNL     1      23.887  -0.207  54.226  1.00  0.00    -0.224 NA
HETATM    3  C8  UNL     1      22.742  -0.866  54.459  1.00  0.00     0.236 A 
HETATM    4  N3  UNL     1      21.682  -0.810  53.599  1.00  0.00    -0.240 NA
HETATM    5  C9  UNL     1      21.822  -0.056  52.485  1.00  0.00     0.089 A 
HETATM    6  C10 UNL     1      20.774   0.016  51.606  1.00  0.00     0.148 A 
HETATM    7  N4  UNL     1      20.923   0.763  50.511  1.00  0.00    -0.237 NA
HETATM    8  C11 UNL     1      22.067   1.453  50.230  1.00  0.00     0.266 A 
HETATM    9  N5  UNL     1      22.146   2.225  49.038  1.00  0.00    -0.314 N 
HETATM   10  C12 UNL     1      22.538   2.138  47.648  1.00  0.00     0.157 C 
HETATM   11  C13 UNL     1      21.650   3.461  49.507  1.00  0.00     0.141 A 
HETATM   12  O1  UNL     1      21.526   2.894  50.646  1.00  0.00    -0.282 OA
HETATM   13  C18 UNL     1      23.076   1.328  51.161  1.00  0.00     0.078 A 
HETATM   14  C19 UNL     1      23.009   0.589  52.305  1.00  0.00     0.043 A 
ENDROOT
BRANCH  11  15
HETATM   15  C14 UNL     1      21.179   4.790  49.778  1.00  0.00     0.175 A 
HETATM   16  C15 UNL     1      20.117   5.516  49.771  1.00  0.00     0.061 A 
HETATM   17  C16 UNL     1      21.225   6.349  50.211  1.00  0.00     0.182 A 
HETATM   18  O2  UNL     1      22.430   6.070  50.369  1.00  0.00    -0.278 OA
BRANCH  17  19
HETATM   19  N6  UNL     1      20.880   7.678  50.505  1.00  0.00    -0.308 N 
HETATM   20  H16 UNL     1      20.616   8.171  51.368  1.00  0.00     0.171 HD
BRANCH  19  21
HETATM   21  C17 UNL     1      20.772   8.815  49.717  1.00  0.00     0.355 C 
HETATM   22  O3  UNL     1      21.167   8.606  48.525  1.00  0.00    -0.283 OA
ENDBRANCH  19  21
ENDBRANCH  17  19
ENDBRANCH  11  15
BRANCH   1  23
HETATM   23  N1  UNL     1      25.324   1.245  52.932  1.00  0.00    -0.343 N 
HETATM   24  H8  UNL     1      25.429   2.233  52.641  1.00  0.00     0.167 HD
BRANCH  23  25
HETATM   25  C6  UNL     1      26.501   0.460  53.173  1.00  0.00     0.018 A 
HETATM   26  C2  UNL     1      27.696   0.679  54.016  1.00  0.00     0.054 A 
HETATM   27  C1  UNL     1      28.456   1.920  53.626  1.00  0.00     0.020 C 
HETATM   28  C3  UNL     1      28.478  -0.557  53.756  1.00  0.00    -0.016 A 
HETATM   29  C4  UNL     1      27.888  -1.390  52.914  1.00  0.00    -0.001 A 
HETATM   30  C5  UNL     1      26.638  -0.730  52.555  1.00  0.00     0.025 A 
ENDBRANCH  23  25
ENDBRANCH   1  23
TORSDOF 5
ENDMDL
