MODEL 1
REMARK VINA RESULT:      -7.6      0.000      0.000
REMARK  8 active torsions:
REMARK  status: ('A' for Active; 'I' for Inactive)
REMARK    1  A    between atoms: C2_2  and  N1_3 
REMARK    2  A    between atoms: N1_3  and  C3_4 
REMARK    3  A    between atoms: C6_8  and  C7_9 
REMARK    4  A    between atoms: C7_9  and  O1_10 
REMARK    5  A    between atoms: O1_10  and  C8_11 
REMARK    6  A    between atoms: C11_14  and  N3_15 
REMARK       I    between atoms: N3_15  and  C12_16 
REMARK       I    between atoms: C12_16  and  N4_18 
REMARK    7  A    between atoms: N4_18  and  C13_19 
REMARK    8  A    between atoms: C16_22  and  C17_23 
ROOT
HETATM    1  C8  UNL     1      23.404   4.700  50.797  1.00  0.00     0.075 A 
HETATM    2  C9  UNL     1      23.046   3.557  50.096  1.00  0.00     0.039 A 
HETATM    3  C10 UNL     1      23.072   2.341  50.774  1.00  0.00     0.032 A 
HETATM    4  C11 UNL     1      23.449   2.337  52.100  1.00  0.00     0.036 A 
HETATM    5  C19 UNL     1      23.801   3.513  52.765  1.00  0.00     0.032 A 
HETATM    6  C20 UNL     1      23.785   4.734  52.119  1.00  0.00     0.039 A 
ENDROOT
BRANCH   4   7
HETATM    7  N3  UNL     1      23.524   1.182  52.967  1.00  0.00    -0.309 N 
HETATM    8  C12 UNL     1      24.793   0.543  52.732  1.00  0.00     0.325 C 
HETATM    9  O2  UNL     1      25.467   1.168  51.850  1.00  0.00    -0.247 OA
HETATM   10  N4  UNL     1      25.261  -0.652  53.395  1.00  0.00    -0.308 N 
HETATM   11  H13 UNL     1      24.559  -1.011  54.083  1.00  0.00     0.170 HD
HETATM   12  H12 UNL     1      22.911   0.710  53.699  1.00  0.00     0.170 HD
BRANCH  10  13
HETATM   13  C13 UNL     1      26.536  -1.216  53.094  1.00  0.00     0.048 A 
HETATM   14  C14 UNL     1      26.781  -2.328  52.418  1.00  0.00     0.031 A 
HETATM   15  C15 UNL     1      28.198  -2.069  52.631  1.00  0.00     0.018 A 
HETATM   16  C16 UNL     1      27.953  -0.949  53.313  1.00  0.00     0.039 A 
BRANCH  16  17
HETATM   17  C17 UNL     1      28.713   0.107  53.999  1.00  0.00     0.269 C 
HETATM   18  C18 UNL     1      30.175   0.103  53.626  1.00  0.00     0.096 C 
HETATM   19  F1  UNL     1      28.546  -0.026  55.369  1.00  0.00    -0.201 F 
HETATM   20  F2  UNL     1      28.174   1.329  53.671  1.00  0.00    -0.201 F 
ENDBRANCH  16  17
ENDBRANCH  10  13
ENDBRANCH   4   7
BRANCH   1  21
HETATM   21  O1  UNL     1      23.336   5.831  50.022  1.00  0.00    -0.321 OA
BRANCH  21  22
HETATM   22  C7  UNL     1      24.307   6.664  49.617  1.00  0.00     0.174 C 
BRANCH  22  23
HETATM   23  C6  UNL     1      25.398   7.381  49.701  1.00  0.00     0.083 A 
HETATM   24  C3  UNL     1      26.605   7.025  49.001  1.00  0.00     0.081 A 
HETATM   25  C4  UNL     1      27.528   8.113  49.396  1.00  0.00     0.050 A 
HETATM   26  C5  UNL     1      26.879   8.947  50.212  1.00  0.00     0.091 A 
HETATM   27  N2  UNL     1      25.536   8.567  50.460  1.00  0.00    -0.362 N 
HETATM   28  H8  UNL     1      24.820   9.034  51.050  1.00  0.00     0.165 HD
BRANCH  24  29
HETATM   29  N1  UNL     1      27.091   6.168  48.235  1.00  0.00    -0.288 NA
BRANCH  29  30
HETATM   30  C2  UNL     1      27.759   4.988  48.652  1.00  0.00     0.145 C 
HETATM   31  C1  UNL     1      26.796   4.002  49.325  1.00  0.00     0.028 C 
ENDBRANCH  29  30
ENDBRANCH  24  29
ENDBRANCH  22  23
ENDBRANCH  21  22
ENDBRANCH   1  21
TORSDOF 8
ENDMDL
MODEL 2
REMARK VINA RESULT:      -7.6      3.277      6.517
REMARK  8 active torsions:
REMARK  status: ('A' for Active; 'I' for Inactive)
REMARK    1  A    between atoms: C2_2  and  N1_3 
REMARK    2  A    between atoms: N1_3  and  C3_4 
REMARK    3  A    between atoms: C6_8  and  C7_9 
REMARK    4  A    between atoms: C7_9  and  O1_10 
REMARK    5  A    between atoms: O1_10  and  C8_11 
REMARK    6  A    between atoms: C11_14  and  N3_15 
REMARK       I    between atoms: N3_15  and  C12_16 
REMARK       I    between atoms: C12_16  and  N4_18 
REMARK    7  A    between atoms: N4_18  and  C13_19 
REMARK    8  A    between atoms: C16_22  and  C17_23 
ROOT
HETATM    1  C8  UNL     1      21.412   3.113  51.441  1.00  0.00     0.075 A 
HETATM    2  C9  UNL     1      22.054   2.292  50.525  1.00  0.00     0.039 A 
HETATM    3  C10 UNL     1      23.440   2.389  50.422  1.00  0.00     0.032 A 
HETATM    4  C11 UNL     1      24.097   3.290  51.232  1.00  0.00     0.036 A 
HETATM    5  C19 UNL     1      23.407   4.096  52.140  1.00  0.00     0.032 A 
HETATM    6  C20 UNL     1      22.035   4.023  52.265  1.00  0.00     0.039 A 
ENDROOT
BRANCH   4   7
HETATM    7  N3  UNL     1      25.523   3.522  51.277  1.00  0.00    -0.309 N 
HETATM    8  C12 UNL     1      26.103   2.500  52.111  1.00  0.00     0.325 C 
HETATM    9  O2  UNL     1      25.212   1.706  52.554  1.00  0.00    -0.247 OA
HETATM   10  N4  UNL     1      27.508   2.374  52.421  1.00  0.00    -0.308 N 
HETATM   11  H13 UNL     1      28.074   3.124  51.960  1.00  0.00     0.170 HD
HETATM   12  H12 UNL     1      26.219   4.218  50.870  1.00  0.00     0.170 HD
BRANCH  10  13
HETATM   13  C13 UNL     1      27.992   1.327  53.260  1.00  0.00     0.048 A 
HETATM   14  C14 UNL     1      28.861   1.434  54.255  1.00  0.00     0.031 A 
HETATM   15  C15 UNL     1      28.714  -0.001  54.453  1.00  0.00     0.018 A 
HETATM   16  C16 UNL     1      27.839  -0.111  53.451  1.00  0.00     0.039 A 
BRANCH  16  17
HETATM   17  C17 UNL     1      27.053  -1.163  52.791  1.00  0.00     0.269 C 
HETATM   18  C18 UNL     1      27.779  -2.487  52.748  1.00  0.00     0.096 C 
HETATM   19  F1  UNL     1      26.706  -0.743  51.516  1.00  0.00    -0.201 F 
HETATM   20  F2  UNL     1      25.868  -1.329  53.469  1.00  0.00    -0.201 F 
ENDBRANCH  16  17
ENDBRANCH  10  13
ENDBRANCH   4   7
BRANCH   1  21
HETATM   21  O1  UNL     1      20.053   2.922  51.449  1.00  0.00    -0.321 OA
BRANCH  21  22
HETATM   22  C7  UNL     1      19.333   1.822  51.717  1.00  0.00     0.174 C 
BRANCH  22  23
HETATM   23  C6  UNL     1      19.048   0.665  52.255  1.00  0.00     0.083 A 
HETATM   24  C3  UNL     1      20.030  -0.109  52.971  1.00  0.00     0.081 A 
HETATM   25  C4  UNL     1      19.250  -1.298  53.384  1.00  0.00     0.050 A 
HETATM   26  C5  UNL     1      18.000  -1.165  52.936  1.00  0.00     0.091 A 
HETATM   27  N2  UNL     1      17.781   0.037  52.217  1.00  0.00    -0.362 N 
HETATM   28  H8  UNL     1      16.910   0.384  51.767  1.00  0.00     0.165 HD
BRANCH  24  29
HETATM   29  N1  UNL     1      21.227  -0.109  53.325  1.00  0.00    -0.288 NA
BRANCH  29  30
HETATM   30  C2  UNL     1      21.973  -1.263  53.674  1.00  0.00     0.145 C 
HETATM   31  C1  UNL     1      22.512  -1.176  55.108  1.00  0.00     0.028 C 
ENDBRANCH  29  30
ENDBRANCH  24  29
ENDBRANCH  22  23
ENDBRANCH  21  22
ENDBRANCH   1  21
TORSDOF 8
ENDMDL
MODEL 3
REMARK VINA RESULT:      -7.5      2.305      3.555
REMARK  8 active torsions:
REMARK  status: ('A' for Active; 'I' for Inactive)
REMARK    1  A    between atoms: C2_2  and  N1_3 
REMARK    2  A    between atoms: N1_3  and  C3_4 
REMARK    3  A    between atoms: C6_8  and  C7_9 
REMARK    4  A    between atoms: C7_9  and  O1_10 
REMARK    5  A    between atoms: O1_10  and  C8_11 
REMARK    6  A    between atoms: C11_14  and  N3_15 
REMARK       I    between atoms: N3_15  and  C12_16 
REMARK       I    between atoms: C12_16  and  N4_18 
REMARK    7  A    between atoms: N4_18  and  C13_19 
REMARK    8  A    between atoms: C16_22  and  C17_23 
ROOT
HETATM    1  C8  UNL     1      25.662   7.098  50.099  1.00  0.00     0.075 A 
HETATM    2  C9  UNL     1      24.554   7.075  50.933  1.00  0.00     0.039 A 
HETATM    3  C10 UNL     1      23.764   5.927  50.936  1.00  0.00     0.032 A 
HETATM    4  C11 UNL     1      24.124   4.881  50.114  1.00  0.00     0.036 A 
HETATM    5  C19 UNL     1      25.249   4.950  49.291  1.00  0.00     0.032 A 
HETATM    6  C20 UNL     1      26.051   6.073  49.266  1.00  0.00     0.039 A 
ENDROOT
BRANCH   4   7
HETATM    7  N3  UNL     1      23.440   3.612  49.991  1.00  0.00    -0.309 N 
HETATM    8  C12 UNL     1      23.897   2.767  51.064  1.00  0.00     0.325 C 
HETATM    9  O2  UNL     1      24.749   3.368  51.794  1.00  0.00    -0.247 OA
HETATM   10  N4  UNL     1      23.462   1.410  51.299  1.00  0.00    -0.308 N 
HETATM   11  H13 UNL     1      22.760   1.100  50.588  1.00  0.00     0.170 HD
HETATM   12  H12 UNL     1      22.720   3.168  49.344  1.00  0.00     0.170 HD
BRANCH  10  13
HETATM   13  C13 UNL     1      23.974   0.645  52.390  1.00  0.00     0.048 A 
HETATM   14  C14 UNL     1      23.286   0.127  53.397  1.00  0.00     0.031 A 
HETATM   15  C15 UNL     1      24.548  -0.394  53.905  1.00  0.00     0.018 A 
HETATM   16  C16 UNL     1      25.241   0.128  52.892  1.00  0.00     0.039 A 
BRANCH  16  17
HETATM   17  C17 UNL     1      26.638   0.193  52.436  1.00  0.00     0.269 C 
HETATM   18  C18 UNL     1      27.549   0.839  53.453  1.00  0.00     0.096 C 
HETATM   19  F1  UNL     1      26.692   0.860  51.222  1.00  0.00    -0.201 F 
HETATM   20  F2  UNL     1      27.086  -1.083  52.186  1.00  0.00    -0.201 F 
ENDBRANCH  16  17
ENDBRANCH  10  13
ENDBRANCH   4   7
BRANCH   1  21
HETATM   21  O1  UNL     1      26.357   8.278  50.188  1.00  0.00    -0.321 OA
BRANCH  21  22
HETATM   22  C7  UNL     1      27.471   8.678  49.555  1.00  0.00     0.174 C 
BRANCH  22  23
HETATM   23  C6  UNL     1      28.751   8.861  49.359  1.00  0.00     0.083 A 
HETATM   24  C3  UNL     1      29.521   8.013  48.485  1.00  0.00     0.081 A 
HETATM   25  C4  UNL     1      30.874   8.606  48.587  1.00  0.00     0.050 A 
HETATM   26  C5  UNL     1      30.821   9.648  49.420  1.00  0.00     0.091 A 
HETATM   27  N2  UNL     1      29.529   9.882  49.953  1.00  0.00    -0.362 N 
HETATM   28  H8  UNL     1      29.216  10.618  50.617  1.00  0.00     0.165 HD
BRANCH  24  29
HETATM   29  N1  UNL     1      29.430   7.021  47.733  1.00  0.00    -0.288 NA
BRANCH  29  30
HETATM   30  C2  UNL     1      29.562   5.671  48.147  1.00  0.00     0.145 C 
HETATM   31  C1  UNL     1      30.886   5.061  47.671  1.00  0.00     0.028 C 
ENDBRANCH  29  30
ENDBRANCH  24  29
ENDBRANCH  22  23
ENDBRANCH  21  22
ENDBRANCH   1  21
TORSDOF 8
ENDMDL
MODEL 4
REMARK VINA RESULT:      -7.2      2.704      4.390
REMARK  8 active torsions:
REMARK  status: ('A' for Active; 'I' for Inactive)
REMARK    1  A    between atoms: C2_2  and  N1_3 
REMARK    2  A    between atoms: N1_3  and  C3_4 
REMARK    3  A    between atoms: C6_8  and  C7_9 
REMARK    4  A    between atoms: C7_9  and  O1_10 
REMARK    5  A    between atoms: O1_10  and  C8_11 
REMARK    6  A    between atoms: C11_14  and  N3_15 
REMARK       I    between atoms: N3_15  and  C12_16 
REMARK       I    between atoms: C12_16  and  N4_18 
REMARK    7  A    between atoms: N4_18  and  C13_19 
REMARK    8  A    between atoms: C16_22  and  C17_23 
ROOT
HETATM    1  C8  UNL     1      25.305   7.516  50.099  1.00  0.00     0.075 A 
HETATM    2  C9  UNL     1      25.949   6.578  49.304  1.00  0.00     0.039 A 
HETATM    3  C10 UNL     1      25.369   5.317  49.185  1.00  0.00     0.032 A 
HETATM    4  C11 UNL     1      24.193   5.069  49.859  1.00  0.00     0.036 A 
HETATM    5  C19 UNL     1      23.581   6.045  50.647  1.00  0.00     0.032 A 
HETATM    6  C20 UNL     1      24.131   7.304  50.785  1.00  0.00     0.039 A 
ENDROOT
BRANCH   4   7
HETATM    7  N3  UNL     1      23.442   3.833  49.846  1.00  0.00    -0.309 N 
HETATM    8  C12 UNL     1      23.967   2.995  50.893  1.00  0.00     0.325 C 
HETATM    9  O2  UNL     1      24.918   3.572  51.513  1.00  0.00    -0.247 OA
HETATM   10  N4  UNL     1      23.496   1.667  51.214  1.00  0.00    -0.308 N 
HETATM   11  H13 UNL     1      22.710   1.375  50.588  1.00  0.00     0.170 HD
HETATM   12  H12 UNL     1      22.639   3.409  49.291  1.00  0.00     0.170 HD
BRANCH  10  13
HETATM   13  C13 UNL     1      24.081   0.908  52.270  1.00  0.00     0.048 A 
HETATM   14  C14 UNL     1      23.450   0.292  53.259  1.00  0.00     0.031 A 
HETATM   15  C15 UNL     1      24.756  -0.138  53.739  1.00  0.00     0.018 A 
HETATM   16  C16 UNL     1      25.393   0.482  52.744  1.00  0.00     0.039 A 
BRANCH  16  17
HETATM   17  C17 UNL     1      26.774   0.686  52.283  1.00  0.00     0.269 C 
HETATM   18  C18 UNL     1      27.537   1.655  53.153  1.00  0.00     0.096 C 
HETATM   19  F1  UNL     1      26.759   1.106  50.962  1.00  0.00    -0.201 F 
HETATM   20  F2  UNL     1      27.429  -0.524  52.287  1.00  0.00    -0.201 F 
ENDBRANCH  16  17
ENDBRANCH  10  13
ENDBRANCH   4   7
BRANCH   1  21
HETATM   21  O1  UNL     1      25.971   8.716  50.134  1.00  0.00    -0.321 OA
BRANCH  21  22
HETATM   22  C7  UNL     1      27.285   8.979  50.079  1.00  0.00     0.174 C 
BRANCH  22  23
HETATM   23  C6  UNL     1      28.391   9.533  49.653  1.00  0.00     0.083 A 
HETATM   24  C3  UNL     1      28.427  10.883  49.150  1.00  0.00     0.081 A 
HETATM   25  C4  UNL     1      29.857  11.050  48.806  1.00  0.00     0.050 A 
HETATM   26  C5  UNL     1      30.501   9.916  49.095  1.00  0.00     0.091 A 
HETATM   27  N2  UNL     1      29.660   8.909  49.631  1.00  0.00    -0.362 N 
HETATM   28  H8  UNL     1      29.902   7.946  49.938  1.00  0.00     0.165 HD
BRANCH  24  29
HETATM   29  N1  UNL     1      27.706  11.876  48.924  1.00  0.00    -0.288 NA
BRANCH  29  30
HETATM   30  C2  UNL     1      28.163  13.109  48.392  1.00  0.00     0.145 C 
HETATM   31  C1  UNL     1      27.009  14.100  48.192  1.00  0.00     0.028 C 
ENDBRANCH  29  30
ENDBRANCH  24  29
ENDBRANCH  22  23
ENDBRANCH  21  22
ENDBRANCH   1  21
TORSDOF 8
ENDMDL
MODEL 5
REMARK VINA RESULT:      -7.1      3.011      4.072
REMARK  8 active torsions:
REMARK  status: ('A' for Active; 'I' for Inactive)
REMARK    1  A    between atoms: C2_2  and  N1_3 
REMARK    2  A    between atoms: N1_3  and  C3_4 
REMARK    3  A    between atoms: C6_8  and  C7_9 
REMARK    4  A    between atoms: C7_9  and  O1_10 
REMARK    5  A    between atoms: O1_10  and  C8_11 
REMARK    6  A    between atoms: C11_14  and  N3_15 
REMARK       I    between atoms: N3_15  and  C12_16 
REMARK       I    between atoms: C12_16  and  N4_18 
REMARK    7  A    between atoms: N4_18  and  C13_19 
REMARK    8  A    between atoms: C16_22  and  C17_23 
ROOT
HETATM    1  C8  UNL     1      26.670   5.683  48.932  1.00  0.00     0.075 A 
HETATM    2  C9  UNL     1      27.192   4.398  48.975  1.00  0.00     0.039 A 
HETATM    3  C10 UNL     1      26.341   3.361  49.353  1.00  0.00     0.032 A 
HETATM    4  C11 UNL     1      25.033   3.665  49.662  1.00  0.00     0.036 A 
HETATM    5  C19 UNL     1      24.552   4.975  49.603  1.00  0.00     0.032 A 
HETATM    6  C20 UNL     1      25.371   6.023  49.232  1.00  0.00     0.039 A 
ENDROOT
BRANCH   4   7
HETATM    7  N3  UNL     1      24.005   2.729  50.059  1.00  0.00    -0.309 N 
HETATM    8  C12 UNL     1      24.515   1.971  51.172  1.00  0.00     0.325 C 
HETATM    9  O2  UNL     1      25.696   2.338  51.478  1.00  0.00    -0.247 OA
HETATM   10  N4  UNL     1      23.802   0.923  51.865  1.00  0.00    -0.308 N 
HETATM   11  H13 UNL     1      22.849   0.772  51.460  1.00  0.00     0.170 HD
HETATM   12  H12 UNL     1      23.018   2.472  49.755  1.00  0.00     0.170 HD
BRANCH  10  13
HETATM   13  C13 UNL     1      24.391   0.223  52.960  1.00  0.00     0.048 A 
HETATM   14  C14 UNL     1      23.893   0.077  54.179  1.00  0.00     0.031 A 
HETATM   15  C15 UNL     1      25.086  -0.690  54.505  1.00  0.00     0.018 A 
HETATM   16  C16 UNL     1      25.590  -0.544  53.278  1.00  0.00     0.039 A 
BRANCH  16  17
HETATM   17  C17 UNL     1      26.792  -0.941  52.531  1.00  0.00     0.269 C 
HETATM   18  C18 UNL     1      28.068  -0.601  53.263  1.00  0.00     0.096 C 
HETATM   19  F1  UNL     1      26.764  -0.353  51.275  1.00  0.00    -0.201 F 
HETATM   20  F2  UNL     1      26.754  -2.299  52.312  1.00  0.00    -0.201 F 
ENDBRANCH  16  17
ENDBRANCH  10  13
ENDBRANCH   4   7
BRANCH   1  21
HETATM   21  O1  UNL     1      27.603   6.612  48.545  1.00  0.00    -0.321 OA
BRANCH  21  22
HETATM   22  C7  UNL     1      28.942   6.530  48.499  1.00  0.00     0.174 C 
BRANCH  22  23
HETATM   23  C6  UNL     1      30.183   6.913  48.653  1.00  0.00     0.083 A 
HETATM   24  C3  UNL     1      31.276   6.258  47.981  1.00  0.00     0.081 A 
HETATM   25  C4  UNL     1      32.444   7.033  48.456  1.00  0.00     0.050 A 
HETATM   26  C5  UNL     1      32.014   7.988  49.285  1.00  0.00     0.091 A 
HETATM   27  N2  UNL     1      30.608   7.988  49.468  1.00  0.00    -0.362 N 
HETATM   28  H8  UNL     1      30.022   8.617  50.052  1.00  0.00     0.165 HD
BRANCH  24  29
HETATM   29  N1  UNL     1      31.541   5.325  47.196  1.00  0.00    -0.288 NA
BRANCH  29  30
HETATM   30  C2  UNL     1      32.337   4.195  47.513  1.00  0.00     0.145 C 
HETATM   31  C1  UNL     1      32.780   3.444  46.252  1.00  0.00     0.028 C 
ENDBRANCH  29  30
ENDBRANCH  24  29
ENDBRANCH  22  23
ENDBRANCH  21  22
ENDBRANCH   1  21
TORSDOF 8
ENDMDL
MODEL 6
REMARK VINA RESULT:      -7.1      3.972      7.835
REMARK  8 active torsions:
REMARK  status: ('A' for Active; 'I' for Inactive)
REMARK    1  A    between atoms: C2_2  and  N1_3 
REMARK    2  A    between atoms: N1_3  and  C3_4 
REMARK    3  A    between atoms: C6_8  and  C7_9 
REMARK    4  A    between atoms: C7_9  and  O1_10 
REMARK    5  A    between atoms: O1_10  and  C8_11 
REMARK    6  A    between atoms: C11_14  and  N3_15 
REMARK       I    between atoms: N3_15  and  C12_16 
REMARK       I    between atoms: C12_16  and  N4_18 
REMARK    7  A    between atoms: N4_18  and  C13_19 
REMARK    8  A    between atoms: C16_22  and  C17_23 
ROOT
HETATM    1  C8  UNL     1      25.751   4.932  49.967  1.00  0.00     0.075 A 
HETATM    2  C9  UNL     1      26.679   4.063  49.411  1.00  0.00     0.039 A 
HETATM    3  C10 UNL     1      27.668   4.602  48.591  1.00  0.00     0.032 A 
HETATM    4  C11 UNL     1      27.673   5.964  48.377  1.00  0.00     0.036 A 
HETATM    5  C19 UNL     1      26.718   6.800  48.959  1.00  0.00     0.032 A 
HETATM    6  C20 UNL     1      25.726   6.295  49.776  1.00  0.00     0.039 A 
ENDROOT
BRANCH   4   7
HETATM    7  N3  UNL     1      28.622   6.703  47.574  1.00  0.00    -0.309 N 
HETATM    8  C12 UNL     1      29.943   6.308  47.989  1.00  0.00     0.325 C 
HETATM    9  O2  UNL     1      29.894   5.442  48.921  1.00  0.00    -0.247 OA
HETATM   10  N4  UNL     1      31.178   6.817  47.439  1.00  0.00    -0.308 N 
HETATM   11  H13 UNL     1      31.002   7.521  46.685  1.00  0.00     0.170 HD
HETATM   12  H12 UNL     1      28.593   7.425  46.792  1.00  0.00     0.170 HD
BRANCH  10  13
HETATM   13  C13 UNL     1      32.444   6.368  47.917  1.00  0.00     0.048 A 
HETATM   14  C14 UNL     1      33.309   7.047  48.657  1.00  0.00     0.031 A 
HETATM   15  C15 UNL     1      34.168   5.872  48.615  1.00  0.00     0.018 A 
HETATM   16  C16 UNL     1      33.300   5.187  47.870  1.00  0.00     0.039 A 
BRANCH  16  17
HETATM   17  C17 UNL     1      33.194   3.858  47.249  1.00  0.00     0.269 C 
HETATM   18  C18 UNL     1      33.811   3.811  45.873  1.00  0.00     0.096 C 
HETATM   19  F1  UNL     1      31.861   3.475  47.213  1.00  0.00    -0.201 F 
HETATM   20  F2  UNL     1      33.829   2.939  48.052  1.00  0.00    -0.201 F 
ENDBRANCH  16  17
ENDBRANCH  10  13
ENDBRANCH   4   7
BRANCH   1  21
HETATM   21  O1  UNL     1      24.833   4.282  50.753  1.00  0.00    -0.321 OA
BRANCH  21  22
HETATM   22  C7  UNL     1      24.755   2.991  51.108  1.00  0.00     0.174 C 
BRANCH  22  23
HETATM   23  C6  UNL     1      24.499   1.960  51.870  1.00  0.00     0.083 A 
HETATM   24  C3  UNL     1      25.502   0.977  52.192  1.00  0.00     0.081 A 
HETATM   25  C4  UNL     1      24.753   0.040  53.061  1.00  0.00     0.050 A 
HETATM   26  C5  UNL     1      23.498   0.480  53.181  1.00  0.00     0.091 A 
HETATM   27  N2  UNL     1      23.248   1.679  52.468  1.00  0.00    -0.362 N 
HETATM   28  H8  UNL     1      22.368   2.227  52.394  1.00  0.00     0.165 HD
BRANCH  24  29
HETATM   29  N1  UNL     1      26.697   0.678  51.994  1.00  0.00    -0.288 NA
BRANCH  29  30
HETATM   30  C2  UNL     1      27.737   0.802  52.950  1.00  0.00     0.145 C 
HETATM   31  C1  UNL     1      28.016   2.270  53.294  1.00  0.00     0.028 C 
ENDBRANCH  29  30
ENDBRANCH  24  29
ENDBRANCH  22  23
ENDBRANCH  21  22
ENDBRANCH   1  21
TORSDOF 8
ENDMDL
MODEL 7
REMARK VINA RESULT:      -7.1      4.465      7.735
REMARK  8 active torsions:
REMARK  status: ('A' for Active; 'I' for Inactive)
REMARK    1  A    between atoms: C2_2  and  N1_3 
REMARK    2  A    between atoms: N1_3  and  C3_4 
REMARK    3  A    between atoms: C6_8  and  C7_9 
REMARK    4  A    between atoms: C7_9  and  O1_10 
REMARK    5  A    between atoms: O1_10  and  C8_11 
REMARK    6  A    between atoms: C11_14  and  N3_15 
REMARK       I    between atoms: N3_15  and  C12_16 
REMARK       I    between atoms: C12_16  and  N4_18 
REMARK    7  A    between atoms: N4_18  and  C13_19 
REMARK    8  A    between atoms: C16_22  and  C17_23 
ROOT
HETATM    1  C8  UNL     1      20.641   2.228  51.685  1.00  0.00     0.075 A 
HETATM    2  C9  UNL     1      21.039   3.423  52.267  1.00  0.00     0.039 A 
HETATM    3  C10 UNL     1      22.338   3.865  52.026  1.00  0.00     0.032 A 
HETATM    4  C11 UNL     1      23.155   3.096  51.225  1.00  0.00     0.036 A 
HETATM    5  C19 UNL     1      22.709   1.899  50.660  1.00  0.00     0.032 A 
HETATM    6  C20 UNL     1      21.428   1.435  50.880  1.00  0.00     0.039 A 
ENDROOT
BRANCH   4   7
HETATM    7  N3  UNL     1      24.519   3.395  50.853  1.00  0.00    -0.309 N 
HETATM    8  C12 UNL     1      25.383   2.700  51.772  1.00  0.00     0.325 C 
HETATM    9  O2  UNL     1      24.710   2.035  52.624  1.00  0.00    -0.247 OA
HETATM   10  N4  UNL     1      26.827   2.737  51.751  1.00  0.00    -0.308 N 
HETATM   11  H13 UNL     1      27.186   3.340  50.974  1.00  0.00     0.170 HD
HETATM   12  H12 UNL     1      25.022   3.968  50.109  1.00  0.00     0.170 HD
BRANCH  10  13
HETATM   13  C13 UNL     1      27.602   2.015  52.706  1.00  0.00     0.048 A 
HETATM   14  C14 UNL     1      28.518   2.503  53.529  1.00  0.00     0.031 A 
HETATM   15  C15 UNL     1      28.703   1.147  54.026  1.00  0.00     0.018 A 
HETATM   16  C16 UNL     1      27.780   0.653  53.197  1.00  0.00     0.039 A 
BRANCH  16  17
HETATM   17  C17 UNL     1      27.179  -0.650  52.874  1.00  0.00     0.269 C 
HETATM   18  C18 UNL     1      25.989  -0.970  53.746  1.00  0.00     0.096 C 
HETATM   19  F1  UNL     1      28.149  -1.637  52.969  1.00  0.00    -0.201 F 
HETATM   20  F2  UNL     1      26.777  -0.642  51.559  1.00  0.00    -0.201 F 
ENDBRANCH  16  17
ENDBRANCH  10  13
ENDBRANCH   4   7
BRANCH   1  21
HETATM   21  O1  UNL     1      19.344   1.903  51.995  1.00  0.00    -0.321 OA
BRANCH  21  22
HETATM   22  C7  UNL     1      18.739   0.706  52.046  1.00  0.00     0.174 C 
BRANCH  22  23
HETATM   23  C6  UNL     1      18.300  -0.406  52.578  1.00  0.00     0.083 A 
HETATM   24  C3  UNL     1      16.978  -0.912  52.314  1.00  0.00     0.081 A 
HETATM   25  C4  UNL     1      16.955  -2.158  53.113  1.00  0.00     0.050 A 
HETATM   26  C5  UNL     1      18.133  -2.291  53.728  1.00  0.00     0.091 A 
HETATM   27  N2  UNL     1      19.039  -1.238  53.450  1.00  0.00    -0.362 N 
HETATM   28  H8  UNL     1      20.010  -1.099  53.795  1.00  0.00     0.165 HD
BRANCH  24  29
HETATM   29  N1  UNL     1      15.928  -0.664  51.686  1.00  0.00    -0.288 NA
BRANCH  29  30
HETATM   30  C2  UNL     1      15.595  -1.196  50.414  1.00  0.00     0.145 C 
HETATM   31  C1  UNL     1      16.356  -0.486  49.288  1.00  0.00     0.028 C 
ENDBRANCH  29  30
ENDBRANCH  24  29
ENDBRANCH  22  23
ENDBRANCH  21  22
ENDBRANCH   1  21
TORSDOF 8
ENDMDL
MODEL 8
REMARK VINA RESULT:      -7.0      2.979      8.179
REMARK  8 active torsions:
REMARK  status: ('A' for Active; 'I' for Inactive)
REMARK    1  A    between atoms: C2_2  and  N1_3 
REMARK    2  A    between atoms: N1_3  and  C3_4 
REMARK    3  A    between atoms: C6_8  and  C7_9 
REMARK    4  A    between atoms: C7_9  and  O1_10 
REMARK    5  A    between atoms: O1_10  and  C8_11 
REMARK    6  A    between atoms: C11_14  and  N3_15 
REMARK       I    between atoms: N3_15  and  C12_16 
REMARK       I    between atoms: C12_16  and  N4_18 
REMARK    7  A    between atoms: N4_18  and  C13_19 
REMARK    8  A    between atoms: C16_22  and  C17_23 
ROOT
HETATM    1  C8  UNL     1      23.401   2.524  51.450  1.00  0.00     0.075 A 
HETATM    2  C9  UNL     1      23.339   2.950  50.130  1.00  0.00     0.039 A 
HETATM    3  C10 UNL     1      23.378   4.321  49.885  1.00  0.00     0.032 A 
HETATM    4  C11 UNL     1      23.477   5.177  50.960  1.00  0.00     0.036 A 
HETATM    5  C19 UNL     1      23.538   4.702  52.272  1.00  0.00     0.032 A 
HETATM    6  C20 UNL     1      23.501   3.350  52.547  1.00  0.00     0.039 A 
ENDROOT
BRANCH   4   7
HETATM    7  N3  UNL     1      23.544   6.621  50.904  1.00  0.00    -0.309 N 
HETATM    8  C12 UNL     1      24.877   6.978  50.492  1.00  0.00     0.325 C 
HETATM    9  O2  UNL     1      25.593   5.943  50.299  1.00  0.00    -0.247 OA
HETATM   10  N4  UNL     1      25.363   8.327  50.316  1.00  0.00    -0.308 N 
HETATM   11  H13 UNL     1      24.620   9.034  50.525  1.00  0.00     0.170 HD
HETATM   12  H12 UNL     1      22.891   7.444  51.077  1.00  0.00     0.170 HD
BRANCH  10  13
HETATM   13  C13 UNL     1      26.705   8.585  49.906  1.00  0.00     0.048 A 
HETATM   14  C14 UNL     1      27.543   9.472  50.420  1.00  0.00     0.031 A 
HETATM   15  C15 UNL     1      28.521   9.020  49.441  1.00  0.00     0.018 A 
HETATM   16  C16 UNL     1      27.678   8.126  48.921  1.00  0.00     0.039 A 
BRANCH  16  17
HETATM   17  C17 UNL     1      27.668   7.120  47.849  1.00  0.00     0.269 C 
HETATM   18  C18 UNL     1      28.307   5.819  48.272  1.00  0.00     0.096 C 
HETATM   19  F1  UNL     1      28.292   7.641  46.726  1.00  0.00    -0.201 F 
HETATM   20  F2  UNL     1      26.367   6.875  47.478  1.00  0.00    -0.201 F 
ENDBRANCH  16  17
ENDBRANCH  10  13
ENDBRANCH   4   7
BRANCH   1  21
HETATM   21  O1  UNL     1      23.356   1.157  51.560  1.00  0.00    -0.321 OA
BRANCH  21  22
HETATM   22  C7  UNL     1      23.107   0.381  52.626  1.00  0.00     0.174 C 
BRANCH  22  23
HETATM   23  C6  UNL     1      23.367  -0.305  53.709  1.00  0.00     0.083 A 
HETATM   24  C3  UNL     1      24.710  -0.489  54.196  1.00  0.00     0.081 A 
HETATM   25  C4  UNL     1      24.492  -1.303  55.413  1.00  0.00     0.050 A 
HETATM   26  C5  UNL     1      23.182  -1.523  55.551  1.00  0.00     0.091 A 
HETATM   27  N2  UNL     1      22.399  -0.933  54.526  1.00  0.00    -0.362 N 
HETATM   28  H8  UNL     1      21.367  -0.951  54.397  1.00  0.00     0.165 HD
BRANCH  24  29
HETATM   29  N1  UNL     1      25.901  -0.213  53.947  1.00  0.00    -0.288 NA
BRANCH  29  30
HETATM   30  C2  UNL     1      26.628  -0.682  52.823  1.00  0.00     0.145 C 
HETATM   31  C1  UNL     1      28.090  -0.977  53.179  1.00  0.00     0.028 C 
ENDBRANCH  29  30
ENDBRANCH  24  29
ENDBRANCH  22  23
ENDBRANCH  21  22
ENDBRANCH   1  21
TORSDOF 8
ENDMDL
MODEL 9
REMARK VINA RESULT:      -7.0      4.289      8.094
REMARK  8 active torsions:
REMARK  status: ('A' for Active; 'I' for Inactive)
REMARK    1  A    between atoms: C2_2  and  N1_3 
REMARK    2  A    between atoms: N1_3  and  C3_4 
REMARK    3  A    between atoms: C6_8  and  C7_9 
REMARK    4  A    between atoms: C7_9  and  O1_10 
REMARK    5  A    between atoms: O1_10  and  C8_11 
REMARK    6  A    between atoms: C11_14  and  N3_15 
REMARK       I    between atoms: N3_15  and  C12_16 
REMARK       I    between atoms: C12_16  and  N4_18 
REMARK    7  A    between atoms: N4_18  and  C13_19 
REMARK    8  A    between atoms: C16_22  and  C17_23 
ROOT
HETATM    1  C8  UNL     1      25.712   4.894  49.984  1.00  0.00     0.075 A 
HETATM    2  C9  UNL     1      26.657   4.061  49.400  1.00  0.00     0.039 A 
HETATM    3  C10 UNL     1      27.634   4.646  48.598  1.00  0.00     0.032 A 
HETATM    4  C11 UNL     1      27.611   6.013  48.426  1.00  0.00     0.036 A 
HETATM    5  C19 UNL     1      26.641   6.811  49.035  1.00  0.00     0.032 A 
HETATM    6  C20 UNL     1      25.660   6.262  49.836  1.00  0.00     0.039 A 
ENDROOT
BRANCH   4   7
HETATM    7  N3  UNL     1      28.544   6.795  47.646  1.00  0.00    -0.309 N 
HETATM    8  C12 UNL     1      29.860   6.256  47.873  1.00  0.00     0.325 C 
HETATM    9  O2  UNL     1      29.821   5.268  48.675  1.00  0.00    -0.247 OA
HETATM   10  N4  UNL     1      31.080   6.755  47.282  1.00  0.00    -0.308 N 
HETATM   11  H13 UNL     1      30.898   7.572  46.653  1.00  0.00     0.170 HD
HETATM   12  H12 UNL     1      28.507   7.624  46.979  1.00  0.00     0.170 HD
BRANCH  10  13
HETATM   13  C13 UNL     1      32.342   6.156  47.568  1.00  0.00     0.048 A 
HETATM   14  C14 UNL     1      33.251   6.576  48.436  1.00  0.00     0.031 A 
HETATM   15  C15 UNL     1      34.066   5.438  48.036  1.00  0.00     0.018 A 
HETATM   16  C16 UNL     1      33.153   5.014  47.161  1.00  0.00     0.039 A 
BRANCH  16  17
HETATM   17  C17 UNL     1      32.982   3.916  46.197  1.00  0.00     0.269 C 
HETATM   18  C18 UNL     1      31.904   2.944  46.612  1.00  0.00     0.096 C 
HETATM   19  F1  UNL     1      34.197   3.270  46.021  1.00  0.00    -0.201 F 
HETATM   20  F2  UNL     1      32.655   4.445  44.971  1.00  0.00    -0.201 F 
ENDBRANCH  16  17
ENDBRANCH  10  13
ENDBRANCH   4   7
BRANCH   1  21
HETATM   21  O1  UNL     1      24.808   4.202  50.750  1.00  0.00    -0.321 OA
BRANCH  21  22
HETATM   22  C7  UNL     1      24.983   3.136  51.546  1.00  0.00     0.174 C 
BRANCH  22  23
HETATM   23  C6  UNL     1      25.571   2.367  52.426  1.00  0.00     0.083 A 
HETATM   24  C3  UNL     1      24.863   1.331  53.133  1.00  0.00     0.081 A 
HETATM   25  C4  UNL     1      25.926   0.753  53.986  1.00  0.00     0.050 A 
HETATM   26  C5  UNL     1      27.064   1.411  53.755  1.00  0.00     0.091 A 
HETATM   27  N2  UNL     1      26.936   2.442  52.790  1.00  0.00    -0.362 N 
HETATM   28  H8  UNL     1      27.658   3.097  52.430  1.00  0.00     0.165 HD
BRANCH  24  29
HETATM   29  N1  UNL     1      23.738   0.805  53.255  1.00  0.00    -0.288 NA
BRANCH  29  30
HETATM   30  C2  UNL     1      23.498  -0.590  53.352  1.00  0.00     0.145 C 
HETATM   31  C1  UNL     1      21.997  -0.904  53.379  1.00  0.00     0.028 C 
ENDBRANCH  29  30
ENDBRANCH  24  29
ENDBRANCH  22  23
ENDBRANCH  21  22
ENDBRANCH   1  21
TORSDOF 8
ENDMDL
