MODEL 1
REMARK VINA RESULT:      -8.7      0.000      0.000
REMARK  3 active torsions:
REMARK  status: ('A' for Active; 'I' for Inactive)
REMARK    1  A    between atoms: N1_1  and  C1_2 
REMARK    2  A    between atoms: C2_4  and  N3_5 
REMARK    3  A    between atoms: N3_5  and  C3_6 
ROOT
HETATM    1  C1  UNL     1      23.141   5.775  51.013  1.00  0.00     0.724 A 
HETATM    2  N2  UNL     1      23.404   4.460  51.078  1.00  0.00    -0.044 NA
HETATM    3  C2  UNL     1      24.502   3.873  50.596  1.00  0.00     0.161 A 
HETATM    4  C9  UNL     1      25.443   4.673  49.980  1.00  0.00     0.059 A 
HETATM    5  C10 UNL     1      26.662   4.489  49.375  1.00  0.00     0.044 A 
HETATM    6  C11 UNL     1      27.166   5.715  48.925  1.00  0.00     0.020 A 
HETATM    7  N4  UNL     1      26.252   6.632  49.258  1.00  0.00    -0.310 N 
HETATM    8  C12 UNL     1      25.205   6.028  49.894  1.00  0.00     0.165 A 
HETATM    9  N5  UNL     1      24.073   6.536  50.407  1.00  0.00    -0.044 NA
HETATM   10  C13 UNL     1      26.147   8.043  49.101  1.00  0.00     0.233 C 
HETATM   11 CL1  UNL     1      27.198   8.850  50.323  1.00  0.00    -0.096 Cl
HETATM   12  C14 UNL     1      26.371   8.579  47.761  1.00  0.00     0.049 C 
HETATM   13 CL2  UNL     1      25.093   9.610  47.106  1.00  0.00    -0.086 Cl
HETATM   14  C15 UNL     1      27.358   8.485  46.851  1.00  0.00     0.022 C 
HETATM   15  C16 UNL     1      28.644   7.773  46.860  1.00  0.00    -0.002 C 
HETATM   16  C17 UNL     1      28.957   6.625  47.455  1.00  0.00    -0.021 C 
HETATM   17  C18 UNL     1      28.476   5.524  48.284  1.00  0.00     0.084 C 
ENDROOT
BRANCH   3  18
HETATM   18  N3  UNL     1      24.742   2.477  50.697  1.00  0.00    -0.340 N 
HETATM   19  H3  UNL     1      24.638   2.265  49.683  1.00  0.00     0.167 HD
BRANCH  18  20
HETATM   20  C3  UNL     1      25.029   1.546  51.713  1.00  0.00     0.035 A 
HETATM   21  C4  UNL     1      23.906   1.067  52.390  1.00  0.00     0.029 A 
HETATM   22  C5  UNL     1      24.086   0.140  53.392  1.00  0.00     0.004 A 
HETATM   23  C6  UNL     1      25.398  -0.267  53.670  1.00  0.00     0.019 A 
HETATM   24  C7  UNL     1      26.487   0.219  52.991  1.00  0.00     0.013 A 
HETATM   25 BR1  UNL     1      28.251  -0.371  53.411  1.00  0.00    -0.051 Br
HETATM   26  C8  UNL     1      26.314   1.151  51.981  1.00  0.00     0.048 A 
ENDBRANCH  18  20
ENDBRANCH   3  18
BRANCH   1  27
HETATM   27  N1  UNL     1      21.914   6.216  51.582  1.00  0.00    -0.231 N 
HETATM   28  H1  UNL     1      21.881   7.186  51.986  1.00  0.00     0.174 HD
HETATM   29  H2  UNL     1      21.225   5.419  51.481  1.00  0.00     0.174 HD
ENDBRANCH   1  27
TORSDOF 3
ENDMDL
MODEL 2
REMARK VINA RESULT:      -8.7      1.215      1.546
REMARK  3 active torsions:
REMARK  status: ('A' for Active; 'I' for Inactive)
REMARK    1  A    between atoms: N1_1  and  C1_2 
REMARK    2  A    between atoms: C2_4  and  N3_5 
REMARK    3  A    between atoms: N3_5  and  C3_6 
ROOT
HETATM    1  C1  UNL     1      23.135   5.778  51.009  1.00  0.00     0.724 A 
HETATM    2  N2  UNL     1      23.398   4.462  51.066  1.00  0.00    -0.044 NA
HETATM    3  C2  UNL     1      24.497   3.878  50.580  1.00  0.00     0.161 A 
HETATM    4  C9  UNL     1      25.437   4.682  49.968  1.00  0.00     0.059 A 
HETATM    5  C10 UNL     1      26.656   4.502  49.362  1.00  0.00     0.044 A 
HETATM    6  C11 UNL     1      27.160   5.730  48.919  1.00  0.00     0.020 A 
HETATM    7  N4  UNL     1      26.246   6.645  49.258  1.00  0.00    -0.310 N 
HETATM    8  C12 UNL     1      25.199   6.037  49.890  1.00  0.00     0.165 A 
HETATM    9  N5  UNL     1      24.067   6.542  50.407  1.00  0.00    -0.044 NA
HETATM   10  C13 UNL     1      26.140   8.057  49.109  1.00  0.00     0.233 C 
HETATM   11 CL1  UNL     1      27.192   8.857  50.335  1.00  0.00    -0.096 Cl
HETATM   12  C14 UNL     1      26.364   8.601  47.772  1.00  0.00     0.049 C 
HETATM   13 CL2  UNL     1      25.085   9.636  47.123  1.00  0.00    -0.086 Cl
HETATM   14  C15 UNL     1      27.351   8.512  46.862  1.00  0.00     0.022 C 
HETATM   15  C16 UNL     1      28.637   7.801  46.865  1.00  0.00    -0.002 C 
HETATM   16  C17 UNL     1      28.950   6.649  47.454  1.00  0.00    -0.021 C 
HETATM   17  C18 UNL     1      28.469   5.544  48.277  1.00  0.00     0.084 C 
ENDROOT
BRANCH   3  18
HETATM   18  N3  UNL     1      24.737   2.481  50.673  1.00  0.00    -0.340 N 
HETATM   19  H3  UNL     1      24.924   2.325  49.660  1.00  0.00     0.167 HD
BRANCH  18  20
HETATM   20  C3  UNL     1      24.756   1.498  51.679  1.00  0.00     0.035 A 
HETATM   21  C4  UNL     1      26.029   1.022  51.996  1.00  0.00     0.029 A 
HETATM   22  C5  UNL     1      26.149   0.067  52.981  1.00  0.00     0.004 A 
HETATM   23  C6  UNL     1      24.974  -0.371  53.606  1.00  0.00     0.019 A 
HETATM   24  C7  UNL     1      23.732   0.111  53.276  1.00  0.00     0.013 A 
HETATM   25 BR1  UNL     1      22.166  -0.519  54.161  1.00  0.00    -0.051 Br
HETATM   26  C8  UNL     1      23.603   1.073  52.288  1.00  0.00     0.048 A 
ENDBRANCH  18  20
ENDBRANCH   3  18
BRANCH   1  27
HETATM   27  N1  UNL     1      21.908   6.215  51.581  1.00  0.00    -0.231 N 
HETATM   28  H1  UNL     1      21.657   5.856  52.535  1.00  0.00     0.174 HD
HETATM   29  H2  UNL     1      21.456   6.864  50.876  1.00  0.00     0.174 HD
ENDBRANCH   1  27
TORSDOF 3
ENDMDL
MODEL 3
REMARK VINA RESULT:      -8.7      3.738      5.605
REMARK  3 active torsions:
REMARK  status: ('A' for Active; 'I' for Inactive)
REMARK    1  A    between atoms: N1_1  and  C1_2 
REMARK    2  A    between atoms: C2_4  and  N3_5 
REMARK    3  A    between atoms: N3_5  and  C3_6 
ROOT
HETATM    1  C1  UNL     1      22.243  -0.153  54.078  1.00  0.00     0.724 A 
HETATM    2  N2  UNL     1      23.408  -0.818  54.133  1.00  0.00    -0.044 NA
HETATM    3  C2  UNL     1      24.517  -0.479  53.471  1.00  0.00     0.161 A 
HETATM    4  C9  UNL     1      24.469   0.639  52.664  1.00  0.00     0.059 A 
HETATM    5  C10 UNL     1      25.342   1.313  51.846  1.00  0.00     0.044 A 
HETATM    6  C11 UNL     1      24.706   2.419  51.270  1.00  0.00     0.020 A 
HETATM    7  N4  UNL     1      23.455   2.409  51.741  1.00  0.00    -0.310 N 
HETATM    8  C12 UNL     1      23.289   1.345  52.582  1.00  0.00     0.165 A 
HETATM    9  N5  UNL     1      22.220   0.935  53.284  1.00  0.00    -0.044 NA
HETATM   10  C13 UNL     1      22.312   3.238  51.563  1.00  0.00     0.233 C 
HETATM   11 CL1  UNL     1      22.517   4.741  52.537  1.00  0.00    -0.096 Cl
HETATM   12  C14 UNL     1      21.920   3.539  50.188  1.00  0.00     0.049 C 
HETATM   13 CL2  UNL     1      20.244   3.177  49.754  1.00  0.00    -0.086 Cl
HETATM   14  C15 UNL     1      22.542   4.053  49.112  1.00  0.00     0.022 C 
HETATM   15  C16 UNL     1      23.917   4.527  48.899  1.00  0.00    -0.002 C 
HETATM   16  C17 UNL     1      25.043   4.094  49.461  1.00  0.00    -0.021 C 
HETATM   17  C18 UNL     1      25.639   3.150  50.400  1.00  0.00     0.084 C 
ENDROOT
BRANCH   3  18
HETATM   18  N3  UNL     1      25.732  -1.209  53.569  1.00  0.00    -0.340 N 
HETATM   19  H3  UNL     1      25.298  -2.154  53.618  1.00  0.00     0.167 HD
BRANCH  18  20
HETATM   20  C3  UNL     1      27.110  -0.927  53.605  1.00  0.00     0.035 A 
HETATM   21  C4  UNL     1      27.920  -1.945  53.096  1.00  0.00     0.029 A 
HETATM   22  C5  UNL     1      29.283  -1.754  53.077  1.00  0.00     0.004 A 
HETATM   23  C6  UNL     1      29.775  -0.540  53.574  1.00  0.00     0.019 A 
HETATM   24  C7  UNL     1      28.959   0.446  54.071  1.00  0.00     0.013 A 
HETATM   25 BR1  UNL     1      29.682   2.080  54.734  1.00  0.00    -0.051 Br
HETATM   26  C8  UNL     1      27.586   0.262  54.093  1.00  0.00     0.048 A 
ENDBRANCH  18  20
ENDBRANCH   3  18
BRANCH   1  27
HETATM   27  N1  UNL     1      21.169  -0.669  54.855  1.00  0.00    -0.231 N 
HETATM   28  H1  UNL     1      20.609  -1.462  54.452  1.00  0.00     0.174 HD
HETATM   29  H2  UNL     1      21.142  -0.107  55.753  1.00  0.00     0.174 HD
ENDBRANCH   1  27
TORSDOF 3
ENDMDL
MODEL 4
REMARK VINA RESULT:      -8.3      4.184      7.417
REMARK  3 active torsions:
REMARK  status: ('A' for Active; 'I' for Inactive)
REMARK    1  A    between atoms: N1_1  and  C1_2 
REMARK    2  A    between atoms: C2_4  and  N3_5 
REMARK    3  A    between atoms: N3_5  and  C3_6 
ROOT
HETATM    1  C1  UNL     1      22.065   0.942  51.327  1.00  0.00     0.724 A 
HETATM    2  N2  UNL     1      22.217   2.106  50.675  1.00  0.00    -0.044 NA
HETATM    3  C2  UNL     1      23.348   2.815  50.624  1.00  0.00     0.161 A 
HETATM    4  C9  UNL     1      24.448   2.320  51.293  1.00  0.00     0.059 A 
HETATM    5  C10 UNL     1      25.751   2.709  51.490  1.00  0.00     0.044 A 
HETATM    6  C11 UNL     1      26.421   1.768  52.280  1.00  0.00     0.020 A 
HETATM    7  N4  UNL     1      25.524   0.817  52.558  1.00  0.00    -0.310 N 
HETATM    8  C12 UNL     1      24.328   1.128  51.974  1.00  0.00     0.165 A 
HETATM    9  N5  UNL     1      23.153   0.479  51.973  1.00  0.00    -0.044 NA
HETATM   10  C13 UNL     1      25.551  -0.400  53.297  1.00  0.00     0.233 C 
HETATM   11 CL1  UNL     1      26.381  -1.664  52.316  1.00  0.00    -0.096 Cl
HETATM   12  C14 UNL     1      26.085  -0.338  54.655  1.00  0.00     0.049 C 
HETATM   13 CL2  UNL     1      25.044  -0.976  55.935  1.00  0.00    -0.086 Cl
HETATM   14  C15 UNL     1      27.230   0.102  55.209  1.00  0.00     0.022 C 
HETATM   15  C16 UNL     1      28.433   0.716  54.632  1.00  0.00    -0.002 C 
HETATM   16  C17 UNL     1      28.535   1.507  53.566  1.00  0.00    -0.021 C 
HETATM   17  C18 UNL     1      27.818   2.177  52.486  1.00  0.00     0.084 C 
ENDROOT
BRANCH   3  18
HETATM   18  N3  UNL     1      23.464   4.038  49.912  1.00  0.00    -0.340 N 
HETATM   19  H3  UNL     1      22.692   3.856  49.237  1.00  0.00     0.167 HD
BRANCH  18  20
HETATM   20  C3  UNL     1      24.270   5.191  49.958  1.00  0.00     0.035 A 
HETATM   21  C4  UNL     1      23.858   6.145  50.890  1.00  0.00     0.029 A 
HETATM   22  C5  UNL     1      24.594   7.302  51.017  1.00  0.00     0.004 A 
HETATM   23  C6  UNL     1      25.718   7.449  50.193  1.00  0.00     0.019 A 
HETATM   24  C7  UNL     1      26.102   6.497  49.282  1.00  0.00     0.013 A 
HETATM   25 BR1  UNL     1      27.643   6.748  48.188  1.00  0.00    -0.051 Br
HETATM   26  C8  UNL     1      25.368   5.330  49.150  1.00  0.00     0.048 A 
ENDBRANCH  18  20
ENDBRANCH   3  18
BRANCH   1  27
HETATM   27  N1  UNL     1      20.780   0.333  51.269  1.00  0.00    -0.231 N 
HETATM   28  H1  UNL     1      20.700  -0.597  50.788  1.00  0.00     0.174 HD
HETATM   29  H2  UNL     1      20.108   0.990  51.758  1.00  0.00     0.174 HD
ENDBRANCH   1  27
TORSDOF 3
ENDMDL
MODEL 5
REMARK VINA RESULT:      -8.1      4.103      7.472
REMARK  3 active torsions:
REMARK  status: ('A' for Active; 'I' for Inactive)
REMARK    1  A    between atoms: N1_1  and  C1_2 
REMARK    2  A    between atoms: C2_4  and  N3_5 
REMARK    3  A    between atoms: N3_5  and  C3_6 
ROOT
HETATM    1  C1  UNL     1      26.283   2.497  52.578  1.00  0.00     0.724 A 
HETATM    2  N2  UNL     1      26.922   2.943  51.484  1.00  0.00    -0.044 NA
HETATM    3  C2  UNL     1      26.341   3.205  50.311  1.00  0.00     0.161 A 
HETATM    4  C9  UNL     1      24.980   3.003  50.206  1.00  0.00     0.059 A 
HETATM    5  C10 UNL     1      24.026   3.143  49.228  1.00  0.00     0.044 A 
HETATM    6  C11 UNL     1      22.770   2.777  49.724  1.00  0.00     0.020 A 
HETATM    7  N4  UNL     1      22.969   2.417  50.996  1.00  0.00    -0.310 N 
HETATM    8  C12 UNL     1      24.292   2.544  51.308  1.00  0.00     0.165 A 
HETATM    9  N5  UNL     1      24.956   2.307  52.451  1.00  0.00    -0.044 NA
HETATM   10  C13 UNL     1      22.129   1.954  52.048  1.00  0.00     0.233 C 
HETATM   11 CL1  UNL     1      21.219   3.352  52.732  1.00  0.00    -0.096 Cl
HETATM   12  C14 UNL     1      21.242   0.834  51.744  1.00  0.00     0.049 C 
HETATM   13 CL2  UNL     1      21.348  -0.564  52.822  1.00  0.00    -0.086 Cl
HETATM   14  C15 UNL     1      20.314   0.583  50.803  1.00  0.00     0.022 C 
HETATM   15  C16 UNL     1      19.816   1.377  49.670  1.00  0.00    -0.002 C 
HETATM   16  C17 UNL     1      20.471   2.262  48.922  1.00  0.00    -0.021 C 
HETATM   17  C18 UNL     1      21.744   2.934  48.683  1.00  0.00     0.084 C 
ENDROOT
BRANCH   3  18
HETATM   18  N3  UNL     1      27.057   3.686  49.182  1.00  0.00    -0.340 N 
HETATM   19  H3  UNL     1      27.240   2.755  48.753  1.00  0.00     0.167 HD
BRANCH  18  20
HETATM   20  C3  UNL     1      27.469   4.930  48.669  1.00  0.00     0.035 A 
HETATM   21  C4  UNL     1      26.439   5.862  48.520  1.00  0.00     0.029 A 
HETATM   22  C5  UNL     1      26.749   7.113  48.038  1.00  0.00     0.004 A 
HETATM   23  C6  UNL     1      28.089   7.374  47.723  1.00  0.00     0.019 A 
HETATM   24  C7  UNL     1      29.084   6.441  47.877  1.00  0.00     0.013 A 
HETATM   25 BR1  UNL     1      30.893   6.851  47.434  1.00  0.00    -0.051 Br
HETATM   26  C8  UNL     1      28.781   5.180  48.362  1.00  0.00     0.048 A 
ENDBRANCH  18  20
ENDBRANCH   3  18
BRANCH   1  27
HETATM   27  N1  UNL     1      27.073   2.272  53.739  1.00  0.00    -0.231 N 
HETATM   28  H1  UNL     1      27.308   1.279  53.988  1.00  0.00     0.174 HD
HETATM   29  H2  UNL     1      27.283   3.223  54.156  1.00  0.00     0.174 HD
ENDBRANCH   1  27
TORSDOF 3
ENDMDL
MODEL 6
REMARK VINA RESULT:      -8.0      2.001      2.653
REMARK  3 active torsions:
REMARK  status: ('A' for Active; 'I' for Inactive)
REMARK    1  A    between atoms: N1_1  and  C1_2 
REMARK    2  A    between atoms: C2_4  and  N3_5 
REMARK    3  A    between atoms: N3_5  and  C3_6 
ROOT
HETATM    1  C1  UNL     1      24.554   7.398  49.366  1.00  0.00     0.724 A 
HETATM    2  N2  UNL     1      24.410   6.070  49.504  1.00  0.00    -0.044 NA
HETATM    3  C2  UNL     1      25.370   5.168  49.287  1.00  0.00     0.161 A 
HETATM    4  C9  UNL     1      26.607   5.628  48.886  1.00  0.00     0.059 A 
HETATM    5  C10 UNL     1      27.822   5.069  48.570  1.00  0.00     0.044 A 
HETATM    6  C11 UNL     1      28.738   6.070  48.228  1.00  0.00     0.020 A 
HETATM    7  N4  UNL     1      28.076   7.226  48.337  1.00  0.00    -0.310 N 
HETATM    8  C12 UNL     1      26.791   6.985  48.731  1.00  0.00     0.165 A 
HETATM    9  N5  UNL     1      25.770   7.823  48.973  1.00  0.00    -0.044 NA
HETATM   10  C13 UNL     1      28.415   8.595  48.142  1.00  0.00     0.233 C 
HETATM   11 CL1  UNL     1      29.372   9.172  49.556  1.00  0.00    -0.096 Cl
HETATM   12  C14 UNL     1      29.059   8.945  46.878  1.00  0.00     0.049 C 
HETATM   13 CL2  UNL     1      28.296  10.237  45.941  1.00  0.00    -0.086 Cl
HETATM   14  C15 UNL     1      30.146   8.513  46.213  1.00  0.00     0.022 C 
HETATM   15  C16 UNL     1      31.143   7.477  46.517  1.00  0.00    -0.002 C 
HETATM   16  C17 UNL     1      30.981   6.336  47.182  1.00  0.00    -0.021 C 
HETATM   17  C18 UNL     1      30.043   5.478  47.897  1.00  0.00     0.084 C 
ENDROOT
BRANCH   3  18
HETATM   18  N3  UNL     1      25.174   3.772  49.457  1.00  0.00    -0.340 N 
HETATM   19  H3  UNL     1      24.912   3.567  48.471  1.00  0.00     0.167 HD
BRANCH  18  20
HETATM   20  C3  UNL     1      25.254   2.834  50.504  1.00  0.00     0.035 A 
HETATM   21  C4  UNL     1      26.557   2.511  50.889  1.00  0.00     0.029 A 
HETATM   22  C5  UNL     1      26.736   1.611  51.916  1.00  0.00     0.004 A 
HETATM   23  C6  UNL     1      25.588   1.072  52.513  1.00  0.00     0.019 A 
HETATM   24  C7  UNL     1      24.317   1.404  52.116  1.00  0.00     0.013 A 
HETATM   25 BR1  UNL     1      22.790   0.642  52.965  1.00  0.00    -0.051 Br
HETATM   26  C8  UNL     1      24.129   2.309  51.084  1.00  0.00     0.048 A 
ENDBRANCH  18  20
ENDBRANCH   3  18
BRANCH   1  27
HETATM   27  N1  UNL     1      23.414   8.203  49.641  1.00  0.00    -0.231 N 
HETATM   28  H1  UNL     1      23.186   8.977  48.969  1.00  0.00     0.174 HD
HETATM   29  H2  UNL     1      22.989   7.835  50.539  1.00  0.00     0.174 HD
ENDBRANCH   1  27
TORSDOF 3
ENDMDL
MODEL 7
REMARK VINA RESULT:      -7.9      4.678      7.068
REMARK  3 active torsions:
REMARK  status: ('A' for Active; 'I' for Inactive)
REMARK    1  A    between atoms: N1_1  and  C1_2 
REMARK    2  A    between atoms: C2_4  and  N3_5 
REMARK    3  A    between atoms: N3_5  and  C3_6 
ROOT
HETATM    1  C1  UNL     1      22.498   5.717  51.501  1.00  0.00     0.724 A 
HETATM    2  N2  UNL     1      23.462   5.083  52.188  1.00  0.00    -0.044 NA
HETATM    3  C2  UNL     1      23.429   3.797  52.547  1.00  0.00     0.161 A 
HETATM    4  C9  UNL     1      22.321   3.057  52.188  1.00  0.00     0.059 A 
HETATM    5  C10 UNL     1      21.899   1.759  52.345  1.00  0.00     0.044 A 
HETATM    6  C11 UNL     1      20.648   1.583  51.743  1.00  0.00     0.020 A 
HETATM    7  N4  UNL     1      20.319   2.772  51.227  1.00  0.00    -0.310 N 
HETATM    8  C12 UNL     1      21.312   3.675  51.483  1.00  0.00     0.165 A 
HETATM    9  N5  UNL     1      21.427   4.973  51.162  1.00  0.00    -0.044 NA
HETATM   10  C13 UNL     1      19.205   3.271  50.495  1.00  0.00     0.233 C 
HETATM   11 CL1  UNL     1      19.331   2.720  48.783  1.00  0.00    -0.096 Cl
HETATM   12  C14 UNL     1      17.878   3.010  51.048  1.00  0.00     0.049 C 
HETATM   13 CL2  UNL     1      16.836   4.419  51.283  1.00  0.00    -0.086 Cl
HETATM   14  C15 UNL     1      17.211   1.910  51.441  1.00  0.00     0.022 C 
HETATM   15  C16 UNL     1      17.580   0.487  51.466  1.00  0.00    -0.002 C 
HETATM   16  C17 UNL     1      18.780  -0.058  51.655  1.00  0.00    -0.021 C 
HETATM   17  C18 UNL     1      20.196   0.193  51.901  1.00  0.00     0.084 C 
ENDROOT
BRANCH   3  18
HETATM   18  N3  UNL     1      24.478   3.166  53.266  1.00  0.00    -0.340 N 
HETATM   19  H3  UNL     1      24.314   3.656  54.170  1.00  0.00     0.167 HD
BRANCH  18  20
HETATM   20  C3  UNL     1      25.479   2.209  53.014  1.00  0.00     0.035 A 
HETATM   21  C4  UNL     1      25.507   1.737  51.700  1.00  0.00     0.029 A 
HETATM   22  C5  UNL     1      26.461   0.807  51.354  1.00  0.00     0.004 A 
HETATM   23  C6  UNL     1      27.351   0.389  52.353  1.00  0.00     0.019 A 
HETATM   24  C7  UNL     1      27.303   0.867  53.639  1.00  0.00     0.013 A 
HETATM   25 BR1  UNL     1      28.541   0.265  54.958  1.00  0.00    -0.051 Br
HETATM   26  C8  UNL     1      26.346   1.803  53.994  1.00  0.00     0.048 A 
ENDBRANCH  18  20
ENDBRANCH   3  18
BRANCH   1  27
HETATM   27  N1  UNL     1      22.711   7.093  51.212  1.00  0.00    -0.231 N 
HETATM   28  H1  UNL     1      23.355   7.633  51.843  1.00  0.00     0.174 HD
HETATM   29  H2  UNL     1      22.132   7.320  50.354  1.00  0.00     0.174 HD
ENDBRANCH   1  27
TORSDOF 3
ENDMDL
MODEL 8
REMARK VINA RESULT:      -7.9      4.616      7.501
REMARK  3 active torsions:
REMARK  status: ('A' for Active; 'I' for Inactive)
REMARK    1  A    between atoms: N1_1  and  C1_2 
REMARK    2  A    between atoms: C2_4  and  N3_5 
REMARK    3  A    between atoms: N3_5  and  C3_6 
ROOT
HETATM    1  C1  UNL     1      24.309   3.771  51.319  1.00  0.00     0.724 A 
HETATM    2  N2  UNL     1      25.251   3.339  52.172  1.00  0.00    -0.044 NA
HETATM    3  C2  UNL     1      25.141   2.261  52.954  1.00  0.00     0.161 A 
HETATM    4  C9  UNL     1      23.971   1.534  52.887  1.00  0.00     0.059 A 
HETATM    5  C10 UNL     1      23.465   0.407  53.488  1.00  0.00     0.044 A 
HETATM    6  C11 UNL     1      22.182   0.135  52.999  1.00  0.00     0.020 A 
HETATM    7  N4  UNL     1      21.918   1.096  52.107  1.00  0.00    -0.310 N 
HETATM    8  C12 UNL     1      22.982   1.949  52.023  1.00  0.00     0.165 A 
HETATM    9  N5  UNL     1      23.176   3.045  51.271  1.00  0.00    -0.044 NA
HETATM   10  C13 UNL     1      20.815   1.400  51.260  1.00  0.00     0.233 C 
HETATM   11 CL1  UNL     1      20.836   0.285  49.845  1.00  0.00    -0.096 Cl
HETATM   12  C14 UNL     1      19.495   1.451  51.885  1.00  0.00     0.049 C 
HETATM   13 CL2  UNL     1      18.566   2.934  51.630  1.00  0.00    -0.086 Cl
HETATM   14  C15 UNL     1      18.768   0.610  52.642  1.00  0.00     0.022 C 
HETATM   15  C16 UNL     1      19.036  -0.741  53.154  1.00  0.00    -0.002 C 
HETATM   16  C17 UNL     1      20.200  -1.282  53.506  1.00  0.00    -0.021 C 
HETATM   17  C18 UNL     1      21.639  -1.075  53.633  1.00  0.00     0.084 C 
ENDROOT
BRANCH   3  18
HETATM   18  N3  UNL     1      26.171   1.836  53.835  1.00  0.00    -0.340 N 
HETATM   19  H3  UNL     1      25.765   2.248  54.700  1.00  0.00     0.167 HD
BRANCH  18  20
HETATM   20  C3  UNL     1      27.376   1.115  53.749  1.00  0.00     0.035 A 
HETATM   21  C4  UNL     1      28.524   1.883  53.957  1.00  0.00     0.029 A 
HETATM   22  C5  UNL     1      29.751   1.261  53.906  1.00  0.00     0.004 A 
HETATM   23  C6  UNL     1      29.770  -0.116  53.645  1.00  0.00     0.019 A 
HETATM   24  C7  UNL     1      28.628  -0.850  53.442  1.00  0.00     0.013 A 
HETATM   25 BR1  UNL     1      28.712  -2.722  53.093  1.00  0.00    -0.051 Br
HETATM   26  C8  UNL     1      27.389  -0.232  53.493  1.00  0.00     0.048 A 
ENDBRANCH  18  20
ENDBRANCH   3  18
BRANCH   1  27
HETATM   27  N1  UNL     1      24.607   4.943  50.569  1.00  0.00    -0.231 N 
HETATM   28  H1  UNL     1      25.617   5.217  50.468  1.00  0.00     0.174 HD
HETATM   29  H2  UNL     1      23.682   5.338  50.237  1.00  0.00     0.174 HD
ENDBRANCH   1  27
TORSDOF 3
ENDMDL
MODEL 9
REMARK VINA RESULT:      -7.9      3.695      7.384
REMARK  3 active torsions:
REMARK  status: ('A' for Active; 'I' for Inactive)
REMARK    1  A    between atoms: N1_1  and  C1_2 
REMARK    2  A    between atoms: C2_4  and  N3_5 
REMARK    3  A    between atoms: N3_5  and  C3_6 
ROOT
HETATM    1  C1  UNL     1      24.627   6.277  48.364  1.00  0.00     0.724 A 
HETATM    2  N2  UNL     1      25.969   6.296  48.359  1.00  0.00    -0.044 NA
HETATM    3  C2  UNL     1      26.751   5.392  48.957  1.00  0.00     0.161 A 
HETATM    4  C9  UNL     1      26.138   4.360  49.636  1.00  0.00     0.059 A 
HETATM    5  C10 UNL     1      26.546   3.263  50.356  1.00  0.00     0.044 A 
HETATM    6  C11 UNL     1      25.434   2.549  50.818  1.00  0.00     0.020 A 
HETATM    7  N4  UNL     1      24.362   3.216  50.377  1.00  0.00    -0.310 N 
HETATM    8  C12 UNL     1      24.762   4.309  49.663  1.00  0.00     0.165 A 
HETATM    9  N5  UNL     1      24.052   5.259  49.033  1.00  0.00    -0.044 NA
HETATM   10  C13 UNL     1      22.954   3.031  50.486  1.00  0.00     0.233 C 
HETATM   11 CL1  UNL     1      22.442   1.732  49.346  1.00  0.00    -0.096 Cl
HETATM   12  C14 UNL     1      22.417   2.812  51.826  1.00  0.00     0.049 C 
HETATM   13 CL2  UNL     1      21.111   3.893  52.332  1.00  0.00    -0.086 Cl
HETATM   14  C15 UNL     1      22.674   1.949  52.826  1.00  0.00     0.022 C 
HETATM   15  C16 UNL     1      23.639   0.849  52.956  1.00  0.00    -0.002 C 
HETATM   16  C17 UNL     1      24.853   0.738  52.423  1.00  0.00    -0.021 C 
HETATM   17  C18 UNL     1      25.865   1.370  51.582  1.00  0.00     0.084 C 
ENDROOT
BRANCH   3  18
HETATM   18  N3  UNL     1      28.169   5.448  48.916  1.00  0.00    -0.340 N 
HETATM   19  H3  UNL     1      28.338   4.667  49.584  1.00  0.00     0.167 HD
BRANCH  18  20
HETATM   20  C3  UNL     1      29.158   6.213  48.270  1.00  0.00     0.035 A 
HETATM   21  C4  UNL     1      30.272   5.481  47.853  1.00  0.00     0.029 A 
HETATM   22  C5  UNL     1      31.286   6.143  47.198  1.00  0.00     0.004 A 
HETATM   23  C6  UNL     1      31.135   7.520  46.991  1.00  0.00     0.019 A 
HETATM   24  C7  UNL     1      30.031   8.219  47.412  1.00  0.00     0.013 A 
HETATM   25 BR1  UNL     1      29.876  10.093  47.102  1.00  0.00    -0.051 Br
HETATM   26  C8  UNL     1      29.006   7.560  48.070  1.00  0.00     0.048 A 
ENDBRANCH  18  20
ENDBRANCH   3  18
BRANCH   1  27
HETATM   27  N1  UNL     1      23.965   7.329  47.672  1.00  0.00    -0.231 N 
HETATM   28  H1  UNL     1      24.363   7.636  46.749  1.00  0.00     0.174 HD
HETATM   29  H2  UNL     1      23.140   7.618  48.270  1.00  0.00     0.174 HD
ENDBRANCH   1  27
TORSDOF 3
ENDMDL
