MODEL 1
REMARK VINA RESULT:      -9.0      0.000      0.000
REMARK  6 active torsions:
REMARK  status: ('A' for Active; 'I' for Inactive)
REMARK    1  A    between atoms: C4_5  and  C5_6 
REMARK    2  A    between atoms: C5_6  and  O1_7 
REMARK    3  A    between atoms: O1_7  and  C6_8 
REMARK    4  A    between atoms: C10_14  and  C11_15 
REMARK    5  A    between atoms: C19_25  and  O2_26 
REMARK    6  A    between atoms: O2_26  and  N4_27 
ROOT
HETATM    1  C6  UNL     1      24.846   2.062  51.166  1.00  0.00     0.106 A 
HETATM    2  C7  UNL     1      23.868   2.768  50.528  1.00  0.00     0.072 A 
HETATM    3  C8  UNL     1      24.083   3.896  49.795  1.00  0.00     0.073 A 
HETATM    4  N2  UNL     1      23.056   4.511  49.205  1.00  0.00    -0.241 NA
HETATM    5  C9  UNL     1      23.207   5.631  48.461  1.00  0.00     0.234 A 
HETATM    6  N3  UNL     1      24.466   6.086  48.356  1.00  0.00    -0.240 NA
HETATM    7  C10 UNL     1      25.524   5.510  48.925  1.00  0.00     0.084 A 
HETATM    8  C17 UNL     1      25.370   4.370  49.682  1.00  0.00     0.025 A 
HETATM    9  C18 UNL     1      26.417   3.735  50.282  1.00  0.00     0.057 A 
HETATM   10  C19 UNL     1      26.140   2.579  51.024  1.00  0.00     0.126 A 
ENDROOT
BRANCH   1  11
HETATM   11  O1  UNL     1      24.876   0.946  51.935  1.00  0.00    -0.348 OA
BRANCH  11  12
HETATM   12  C5  UNL     1      24.710   0.728  53.276  1.00  0.00     0.180 C 
BRANCH  12  13
HETATM   13  C4  UNL     1      25.402  -0.493  53.848  1.00  0.00     0.013 C 
HETATM   14  C3  UNL     1      26.165  -0.138  55.115  1.00  0.00     0.037 C 
HETATM   15  C2  UNL     1      27.483   0.466  54.689  1.00  0.00     0.272 C 
HETATM   16  N1  UNL     1      28.230  -0.657  54.105  1.00  0.00     0.084 N 
HETATM   17  C1  UNL     1      29.625  -0.321  53.884  1.00  0.00     0.309 C 
HETATM   18  C21 UNL     1      27.667  -1.014  52.829  1.00  0.00     0.272 C 
HETATM   19  C20 UNL     1      26.204  -1.213  52.827  1.00  0.00     0.037 C 
ENDBRANCH  12  13
ENDBRANCH  11  12
ENDBRANCH   1  11
BRANCH  10  20
HETATM   20  O2  UNL     1      27.310   2.030  51.587  1.00  0.00    -0.264 OA
BRANCH  20  21
HETATM   21  N4  UNL     1      28.063   2.867  52.370  1.00  0.00    -0.209 NA
HETATM   22  H17 UNL     1      27.424   3.309  53.062  1.00  0.00     0.150 HD
HETATM   23  H18 UNL     1      28.494   3.623  51.793  1.00  0.00     0.150 HD
ENDBRANCH  20  21
ENDBRANCH  10  20
BRANCH   7  24
HETATM   24  C11 UNL     1      26.832   6.118  48.726  1.00  0.00     0.032 A 
HETATM   25  C12 UNL     1      27.936   5.401  48.292  1.00  0.00     0.018 A 
HETATM   26  C13 UNL     1      29.199   5.908  48.097  1.00  0.00     0.020 A 
HETATM   27  C14 UNL     1      29.403   7.247  48.349  1.00  0.00     0.013 A 
HETATM   28 BR1  UNL     1      31.135   7.986  48.090  1.00  0.00    -0.051 Br
HETATM   29  C15 UNL     1      28.322   7.987  48.782  1.00  0.00     0.062 A 
HETATM   30  C16 UNL     1      27.070   7.463  48.971  1.00  0.00     0.130 A 
HETATM   31  F1  UNL     1      26.053   8.266  49.403  1.00  0.00    -0.205 F 
ENDBRANCH   7  24
TORSDOF 6
ENDMDL
MODEL 2
REMARK VINA RESULT:      -8.7      6.149      8.270
REMARK  6 active torsions:
REMARK  status: ('A' for Active; 'I' for Inactive)
REMARK    1  A    between atoms: C4_5  and  C5_6 
REMARK    2  A    between atoms: C5_6  and  O1_7 
REMARK    3  A    between atoms: O1_7  and  C6_8 
REMARK    4  A    between atoms: C10_14  and  C11_15 
REMARK    5  A    between atoms: C19_25  and  O2_26 
REMARK    6  A    between atoms: O2_26  and  N4_27 
ROOT
HETATM    1  C6  UNL     1      22.689   0.279  52.971  1.00  0.00     0.106 A 
HETATM    2  C7  UNL     1      22.842   0.736  51.695  1.00  0.00     0.072 A 
HETATM    3  C8  UNL     1      21.816   1.013  50.843  1.00  0.00     0.073 A 
HETATM    4  N2  UNL     1      22.074   1.461  49.614  1.00  0.00    -0.241 NA
HETATM    5  C9  UNL     1      21.097   1.758  48.726  1.00  0.00     0.234 A 
HETATM    6  N3  UNL     1      19.843   1.568  49.166  1.00  0.00    -0.240 NA
HETATM    7  C10 UNL     1      19.532   1.123  50.384  1.00  0.00     0.084 A 
HETATM    8  C17 UNL     1      20.527   0.822  51.287  1.00  0.00     0.025 A 
HETATM    9  C18 UNL     1      20.268   0.369  52.546  1.00  0.00     0.057 A 
HETATM   10  C19 UNL     1      21.361   0.100  53.381  1.00  0.00     0.126 A 
ENDROOT
BRANCH   1  11
HETATM   11  O1  UNL     1      23.532  -0.060  53.977  1.00  0.00    -0.348 OA
BRANCH  11  12
HETATM   12  C5  UNL     1      24.806  -0.559  54.003  1.00  0.00     0.180 C 
BRANCH  12  13
HETATM   13  C4  UNL     1      25.895   0.354  53.475  1.00  0.00     0.013 C 
HETATM   14  C3  UNL     1      26.583  -0.266  52.269  1.00  0.00     0.037 C 
HETATM   15  C2  UNL     1      27.601  -1.253  52.793  1.00  0.00     0.272 C 
HETATM   16  N1  UNL     1      28.632  -0.417  53.423  1.00  0.00     0.084 N 
HETATM   17  C1  UNL     1      29.824  -1.181  53.746  1.00  0.00     0.309 C 
HETATM   18  C21 UNL     1      28.133   0.141  54.653  1.00  0.00     0.272 C 
HETATM   19  C20 UNL     1      26.818   0.804  54.548  1.00  0.00     0.037 C 
ENDBRANCH  12  13
ENDBRANCH  11  12
ENDBRANCH   1  11
BRANCH  10  20
HETATM   20  O2  UNL     1      20.947  -0.361  54.647  1.00  0.00    -0.264 OA
BRANCH  20  21
HETATM   21  N4  UNL     1      21.188  -1.681  54.927  1.00  0.00    -0.209 NA
HETATM   22  H17 UNL     1      20.556  -1.958  55.705  1.00  0.00     0.150 HD
HETATM   23  H18 UNL     1      22.174  -1.818  55.241  1.00  0.00     0.150 HD
ENDBRANCH  20  21
ENDBRANCH  10  20
BRANCH   7  24
HETATM   24  C11 UNL     1      18.126   0.964  50.722  1.00  0.00     0.032 A 
HETATM   25  C12 UNL     1      17.402  -0.176  50.407  1.00  0.00     0.018 A 
HETATM   26  C13 UNL     1      16.070  -0.386  50.683  1.00  0.00     0.020 A 
HETATM   27  C14 UNL     1      15.381   0.615  51.331  1.00  0.00     0.013 A 
HETATM   28 BR1  UNL     1      13.539   0.363  51.731  1.00  0.00    -0.051 Br
HETATM   29  C15 UNL     1      16.075   1.762  51.657  1.00  0.00     0.062 A 
HETATM   30  C16 UNL     1      17.402   1.953  51.374  1.00  0.00     0.130 A 
HETATM   31  F1  UNL     1      18.015   3.119  51.732  1.00  0.00    -0.205 F 
ENDBRANCH   7  24
TORSDOF 6
ENDMDL
MODEL 3
REMARK VINA RESULT:      -8.7      3.518      7.737
REMARK  6 active torsions:
REMARK  status: ('A' for Active; 'I' for Inactive)
REMARK    1  A    between atoms: C4_5  and  C5_6 
REMARK    2  A    between atoms: C5_6  and  O1_7 
REMARK    3  A    between atoms: O1_7  and  C6_8 
REMARK    4  A    between atoms: C10_14  and  C11_15 
REMARK    5  A    between atoms: C19_25  and  O2_26 
REMARK    6  A    between atoms: O2_26  and  N4_27 
ROOT
HETATM    1  C6  UNL     1      25.609   5.229  49.290  1.00  0.00     0.106 A 
HETATM    2  C7  UNL     1      24.515   5.075  50.091  1.00  0.00     0.072 A 
HETATM    3  C8  UNL     1      24.383   4.110  51.043  1.00  0.00     0.073 A 
HETATM    4  N2  UNL     1      23.271   4.047  51.778  1.00  0.00    -0.241 NA
HETATM    5  C9  UNL     1      23.085   3.115  52.741  1.00  0.00     0.234 A 
HETATM    6  N3  UNL     1      24.099   2.251  52.908  1.00  0.00    -0.240 NA
HETATM    7  C10 UNL     1      25.229   2.270  52.200  1.00  0.00     0.084 A 
HETATM    8  C17 UNL     1      25.418   3.219  51.221  1.00  0.00     0.025 A 
HETATM    9  C18 UNL     1      26.554   3.290  50.471  1.00  0.00     0.057 A 
HETATM   10  C19 UNL     1      26.637   4.303  49.506  1.00  0.00     0.126 A 
ENDROOT
BRANCH   1  11
HETATM   11  O1  UNL     1      25.959   6.085  48.299  1.00  0.00    -0.348 OA
BRANCH  11  12
HETATM   12  C5  UNL     1      25.529   7.335  47.945  1.00  0.00     0.180 C 
BRANCH  12  13
HETATM   13  C4  UNL     1      25.552   8.387  49.036  1.00  0.00     0.013 C 
HETATM   14  C3  UNL     1      25.298   9.771  48.457  1.00  0.00     0.037 C 
HETATM   15  C2  UNL     1      26.608  10.265  47.889  1.00  0.00     0.272 C 
HETATM   16  N1  UNL     1      27.454  10.502  49.067  1.00  0.00     0.084 N 
HETATM   17  C1  UNL     1      28.660  11.235  48.728  1.00  0.00     0.309 C 
HETATM   18  C21 UNL     1      27.862   9.247  49.643  1.00  0.00     0.272 C 
HETATM   19  C20 UNL     1      26.766   8.287  49.886  1.00  0.00     0.037 C 
ENDBRANCH  12  13
ENDBRANCH  11  12
ENDBRANCH   1  11
BRANCH  10  20
HETATM   20  O2  UNL     1      27.861   4.256  48.808  1.00  0.00    -0.264 OA
BRANCH  20  21
HETATM   21  N4  UNL     1      28.702   5.326  48.976  1.00  0.00    -0.209 NA
HETATM   22  H17 UNL     1      28.528   5.988  48.193  1.00  0.00     0.150 HD
HETATM   23  H18 UNL     1      29.699   5.021  48.931  1.00  0.00     0.150 HD
ENDBRANCH  20  21
ENDBRANCH  10  20
BRANCH   7  24
HETATM   24  C11 UNL     1      26.242   1.266  52.491  1.00  0.00     0.032 A 
HETATM   25  C12 UNL     1      26.152  -0.043  52.043  1.00  0.00     0.018 A 
HETATM   26  C13 UNL     1      27.063  -1.043  52.292  1.00  0.00     0.020 A 
HETATM   27  C14 UNL     1      28.169  -0.733  53.052  1.00  0.00     0.013 A 
HETATM   28 BR1  UNL     1      29.452  -2.088  53.417  1.00  0.00    -0.051 Br
HETATM   29  C15 UNL     1      28.286   0.563  53.512  1.00  0.00     0.062 A 
HETATM   30  C16 UNL     1      27.367   1.546  53.253  1.00  0.00     0.130 A 
HETATM   31  F1  UNL     1      27.558   2.805  53.747  1.00  0.00    -0.205 F 
ENDBRANCH   7  24
TORSDOF 6
ENDMDL
MODEL 4
REMARK VINA RESULT:      -8.6      4.872      8.135
REMARK  6 active torsions:
REMARK  status: ('A' for Active; 'I' for Inactive)
REMARK    1  A    between atoms: C4_5  and  C5_6 
REMARK    2  A    between atoms: C5_6  and  O1_7 
REMARK    3  A    between atoms: O1_7  and  C6_8 
REMARK    4  A    between atoms: C10_14  and  C11_15 
REMARK    5  A    between atoms: C19_25  and  O2_26 
REMARK    6  A    between atoms: O2_26  and  N4_27 
ROOT
HETATM    1  C6  UNL     1      22.020   2.570  51.892  1.00  0.00     0.106 A 
HETATM    2  C7  UNL     1      21.485   1.617  52.709  1.00  0.00     0.072 A 
HETATM    3  C8  UNL     1      22.210   0.689  53.393  1.00  0.00     0.073 A 
HETATM    4  N2  UNL     1      21.588  -0.199  54.171  1.00  0.00    -0.241 NA
HETATM    5  C9  UNL     1      22.255  -1.141  54.878  1.00  0.00     0.234 A 
HETATM    6  N3  UNL     1      23.590  -1.125  54.742  1.00  0.00    -0.240 NA
HETATM    7  C10 UNL     1      24.258  -0.261  53.977  1.00  0.00     0.084 A 
HETATM    8  C17 UNL     1      23.580   0.699  53.259  1.00  0.00     0.025 A 
HETATM    9  C18 UNL     1      24.210   1.611  52.466  1.00  0.00     0.057 A 
HETATM   10  C19 UNL     1      23.416   2.543  51.786  1.00  0.00     0.126 A 
ENDROOT
BRANCH   1  11
HETATM   11  O1  UNL     1      21.517   3.569  51.127  1.00  0.00    -0.348 OA
BRANCH  11  12
HETATM   12  C5  UNL     1      20.459   4.424  51.279  1.00  0.00     0.180 C 
BRANCH  12  13
HETATM   13  C4  UNL     1      19.286   4.214  50.343  1.00  0.00     0.013 C 
HETATM   14  C3  UNL     1      18.024   3.881  51.124  1.00  0.00     0.037 C 
HETATM   15  C2  UNL     1      18.081   2.408  51.459  1.00  0.00     0.272 C 
HETATM   16  N1  UNL     1      17.910   1.731  50.166  1.00  0.00     0.084 N 
HETATM   17  C1  UNL     1      17.670   0.308  50.328  1.00  0.00     0.309 C 
HETATM   18  C21 UNL     1      19.101   1.877  49.370  1.00  0.00     0.272 C 
HETATM   19  C20 UNL     1      19.605   3.260  49.250  1.00  0.00     0.037 C 
ENDBRANCH  12  13
ENDBRANCH  11  12
ENDBRANCH   1  11
BRANCH  10  20
HETATM   20  O2  UNL     1      24.198   3.420  51.006  1.00  0.00    -0.264 OA
BRANCH  20  21
HETATM   21  N4  UNL     1      24.395   4.679  51.514  1.00  0.00    -0.209 NA
HETATM   22  H17 UNL     1      25.176   4.623  52.198  1.00  0.00     0.150 HD
HETATM   23  H18 UNL     1      23.543   5.012  52.017  1.00  0.00     0.150 HD
ENDBRANCH  20  21
ENDBRANCH  10  20
BRANCH   7  24
HETATM   24  C11 UNL     1      25.709  -0.364  53.925  1.00  0.00     0.032 A 
HETATM   25  C12 UNL     1      26.542   0.306  54.807  1.00  0.00     0.018 A 
HETATM   26  C13 UNL     1      27.917   0.264  54.805  1.00  0.00     0.020 A 
HETATM   27  C14 UNL     1      28.538  -0.509  53.848  1.00  0.00     0.013 A 
HETATM   28 BR1  UNL     1      30.437  -0.594  53.814  1.00  0.00    -0.051 Br
HETATM   29  C15 UNL     1      27.734  -1.188  52.956  1.00  0.00     0.062 A 
HETATM   30  C16 UNL     1      26.365  -1.134  52.974  1.00  0.00     0.130 A 
HETATM   31  F1  UNL     1      25.642  -1.838  52.053  1.00  0.00    -0.205 F 
ENDBRANCH   7  24
TORSDOF 6
ENDMDL
MODEL 5
REMARK VINA RESULT:      -8.6      3.626      7.738
REMARK  6 active torsions:
REMARK  status: ('A' for Active; 'I' for Inactive)
REMARK    1  A    between atoms: C4_5  and  C5_6 
REMARK    2  A    between atoms: C5_6  and  O1_7 
REMARK    3  A    between atoms: O1_7  and  C6_8 
REMARK    4  A    between atoms: C10_14  and  C11_15 
REMARK    5  A    between atoms: C19_25  and  O2_26 
REMARK    6  A    between atoms: O2_26  and  N4_27 
ROOT
HETATM    1  C6  UNL     1      23.124   4.082  50.820  1.00  0.00     0.106 A 
HETATM    2  C7  UNL     1      22.242   3.276  51.478  1.00  0.00     0.072 A 
HETATM    3  C8  UNL     1      22.591   2.176  52.202  1.00  0.00     0.073 A 
HETATM    4  N2  UNL     1      21.649   1.455  52.813  1.00  0.00    -0.241 NA
HETATM    5  C9  UNL     1      21.935   0.357  53.549  1.00  0.00     0.234 A 
HETATM    6  N3  UNL     1      23.237   0.037  53.623  1.00  0.00    -0.240 NA
HETATM    7  C10 UNL     1      24.215   0.723  53.032  1.00  0.00     0.084 A 
HETATM    8  C17 UNL     1      23.924   1.841  52.283  1.00  0.00     0.025 A 
HETATM    9  C18 UNL     1      24.883   2.584  51.661  1.00  0.00     0.057 A 
HETATM   10  C19 UNL     1      24.468   3.705  50.930  1.00  0.00     0.126 A 
ENDROOT
BRANCH   1  11
HETATM   11  O1  UNL     1      23.018   5.196  50.055  1.00  0.00    -0.348 OA
BRANCH  11  12
HETATM   12  C5  UNL     1      22.108   6.218  50.008  1.00  0.00     0.180 C 
BRANCH  12  13
HETATM   13  C4  UNL     1      22.602   7.578  50.458  1.00  0.00     0.013 C 
HETATM   14  C3  UNL     1      22.302   8.637  49.408  1.00  0.00     0.037 C 
HETATM   15  C2  UNL     1      23.383   8.541  48.355  1.00  0.00     0.272 C 
HETATM   16  N1  UNL     1      24.598   9.019  49.032  1.00  0.00     0.084 N 
HETATM   17  C1  UNL     1      25.683   9.250  48.096  1.00  0.00     0.309 C 
HETATM   18  C21 UNL     1      25.053   8.037  49.982  1.00  0.00     0.272 C 
HETATM   19  C20 UNL     1      24.017   7.540  50.909  1.00  0.00     0.037 C 
ENDBRANCH  12  13
ENDBRANCH  11  12
ENDBRANCH   1  11
BRANCH  10  20
HETATM   20  O2  UNL     1      25.561   4.375  50.342  1.00  0.00    -0.264 OA
BRANCH  20  21
HETATM   21  N4  UNL     1      26.785   3.769  50.461  1.00  0.00    -0.209 NA
HETATM   22  H17 UNL     1      27.193   4.061  51.371  1.00  0.00     0.150 HD
HETATM   23  H18 UNL     1      27.427   4.082  49.699  1.00  0.00     0.150 HD
ENDBRANCH  20  21
ENDBRANCH  10  20
BRANCH   7  24
HETATM   24  C11 UNL     1      25.584   0.256  53.198  1.00  0.00     0.032 A 
HETATM   25  C12 UNL     1      26.062  -0.898  52.596  1.00  0.00     0.018 A 
HETATM   26  C13 UNL     1      27.335  -1.404  52.722  1.00  0.00     0.020 A 
HETATM   27  C14 UNL     1      28.228  -0.713  53.512  1.00  0.00     0.013 A 
HETATM   28 BR1  UNL     1      29.998  -1.379  53.710  1.00  0.00    -0.051 Br
HETATM   29  C15 UNL     1      27.781   0.440  54.124  1.00  0.00     0.062 A 
HETATM   30  C16 UNL     1      26.507   0.927  53.987  1.00  0.00     0.130 A 
HETATM   31  F1  UNL     1      26.145   2.077  54.628  1.00  0.00    -0.205 F 
ENDBRANCH   7  24
TORSDOF 6
ENDMDL
MODEL 6
REMARK VINA RESULT:      -8.6      5.778      8.239
REMARK  6 active torsions:
REMARK  status: ('A' for Active; 'I' for Inactive)
REMARK    1  A    between atoms: C4_5  and  C5_6 
REMARK    2  A    between atoms: C5_6  and  O1_7 
REMARK    3  A    between atoms: O1_7  and  C6_8 
REMARK    4  A    between atoms: C10_14  and  C11_15 
REMARK    5  A    between atoms: C19_25  and  O2_26 
REMARK    6  A    between atoms: O2_26  and  N4_27 
ROOT
HETATM    1  C6  UNL     1      20.318  -0.056  52.962  1.00  0.00     0.106 A 
HETATM    2  C7  UNL     1      20.491   1.002  52.119  1.00  0.00     0.072 A 
HETATM    3  C8  UNL     1      21.699   1.538  51.788  1.00  0.00     0.073 A 
HETATM    4  N2  UNL     1      21.759   2.573  50.948  1.00  0.00    -0.241 NA
HETATM    5  C9  UNL     1      22.929   3.144  50.578  1.00  0.00     0.234 A 
HETATM    6  N3  UNL     1      24.031   2.599  51.118  1.00  0.00    -0.240 NA
HETATM    7  C10 UNL     1      24.024   1.567  51.961  1.00  0.00     0.084 A 
HETATM    8  C17 UNL     1      22.834   0.985  52.336  1.00  0.00     0.025 A 
HETATM    9  C18 UNL     1      22.767  -0.075  53.190  1.00  0.00     0.057 A 
HETATM   10  C19 UNL     1      21.499  -0.588  53.496  1.00  0.00     0.126 A 
ENDROOT
BRANCH   1  11
HETATM   11  O1  UNL     1      19.249  -0.744  53.432  1.00  0.00    -0.348 OA
BRANCH  11  12
HETATM   12  C5  UNL     1      18.105  -1.214  52.845  1.00  0.00     0.180 C 
BRANCH  12  13
HETATM   13  C4  UNL     1      17.196  -0.175  52.219  1.00  0.00     0.013 C 
HETATM   14  C3  UNL     1      15.772  -0.324  52.732  1.00  0.00     0.037 C 
HETATM   15  C2  UNL     1      15.125  -1.436  51.937  1.00  0.00     0.272 C 
HETATM   16  N1  UNL     1      14.980  -0.883  50.583  1.00  0.00     0.084 N 
HETATM   17  C1  UNL     1      14.132  -1.714  49.748  1.00  0.00     0.309 C 
HETATM   18  C21 UNL     1      16.266  -0.801  49.942  1.00  0.00     0.272 C 
HETATM   19  C20 UNL     1      17.319  -0.141  50.739  1.00  0.00     0.037 C 
ENDBRANCH  12  13
ENDBRANCH  11  12
ENDBRANCH   1  11
BRANCH  10  20
HETATM   20  O2  UNL     1      21.581  -1.677  54.388  1.00  0.00    -0.264 OA
BRANCH  20  21
HETATM   21  N4  UNL     1      22.513  -1.580  55.388  1.00  0.00    -0.209 NA
HETATM   22  H17 UNL     1      23.369  -1.154  54.979  1.00  0.00     0.150 HD
HETATM   23  H18 UNL     1      22.762  -2.526  55.753  1.00  0.00     0.150 HD
ENDBRANCH  20  21
ENDBRANCH  10  20
BRANCH   7  24
HETATM   24  C11 UNL     1      25.299   1.083  52.469  1.00  0.00     0.032 A 
HETATM   25  C12 UNL     1      25.930  -0.044  51.963  1.00  0.00     0.018 A 
HETATM   26  C13 UNL     1      27.125  -0.564  52.404  1.00  0.00     0.020 A 
HETATM   27  C14 UNL     1      27.766   0.082  53.439  1.00  0.00     0.013 A 
HETATM   28 BR1  UNL     1      29.421  -0.605  54.075  1.00  0.00    -0.051 Br
HETATM   29  C15 UNL     1      27.163   1.206  53.963  1.00  0.00     0.062 A 
HETATM   30  C16 UNL     1      25.971   1.709  53.509  1.00  0.00     0.130 A 
HETATM   31  F1  UNL     1      25.441   2.829  54.084  1.00  0.00    -0.205 F 
ENDBRANCH   7  24
TORSDOF 6
ENDMDL
MODEL 7
REMARK VINA RESULT:      -8.6      2.662      3.676
REMARK  6 active torsions:
REMARK  status: ('A' for Active; 'I' for Inactive)
REMARK    1  A    between atoms: C4_5  and  C5_6 
REMARK    2  A    between atoms: C5_6  and  O1_7 
REMARK    3  A    between atoms: O1_7  and  C6_8 
REMARK    4  A    between atoms: C10_14  and  C11_15 
REMARK    5  A    between atoms: C19_25  and  O2_26 
REMARK    6  A    between atoms: O2_26  and  N4_27 
ROOT
HETATM    1  C6  UNL     1      25.105   3.798  50.316  1.00  0.00     0.106 A 
HETATM    2  C7  UNL     1      26.355   3.687  49.782  1.00  0.00     0.072 A 
HETATM    3  C8  UNL     1      27.022   4.696  49.155  1.00  0.00     0.073 A 
HETATM    4  N2  UNL     1      28.246   4.484  48.670  1.00  0.00    -0.241 NA
HETATM    5  C9  UNL     1      28.958   5.448  48.043  1.00  0.00     0.234 A 
HETATM    6  N3  UNL     1      28.346   6.639  47.937  1.00  0.00    -0.240 NA
HETATM    7  C10 UNL     1      27.125   6.901  48.403  1.00  0.00     0.084 A 
HETATM    8  C17 UNL     1      26.401   5.920  49.043  1.00  0.00     0.025 A 
HETATM    9  C18 UNL     1      25.152   6.133  49.544  1.00  0.00     0.057 A 
HETATM   10  C19 UNL     1      24.512   5.060  50.180  1.00  0.00     0.126 A 
ENDROOT
BRANCH   1  11
HETATM   11  O1  UNL     1      24.261   2.960  50.966  1.00  0.00    -0.348 OA
BRANCH  11  12
HETATM   12  C5  UNL     1      24.392   1.684  51.445  1.00  0.00     0.180 C 
BRANCH  12  13
HETATM   13  C4  UNL     1      24.333   1.523  52.951  1.00  0.00     0.013 C 
HETATM   14  C3  UNL     1      25.279   2.498  53.636  1.00  0.00     0.037 C 
HETATM   15  C2  UNL     1      26.663   1.893  53.579  1.00  0.00     0.272 C 
HETATM   16  N1  UNL     1      26.595   0.737  54.485  1.00  0.00     0.084 N 
HETATM   17  C1  UNL     1      27.911   0.191  54.764  1.00  0.00     0.309 C 
HETATM   18  C21 UNL     1      25.812  -0.314  53.889  1.00  0.00     0.272 C 
HETATM   19  C20 UNL     1      24.495   0.108  53.370  1.00  0.00     0.037 C 
ENDBRANCH  12  13
ENDBRANCH  11  12
ENDBRANCH   1  11
BRANCH  10  20
HETATM   20  O2  UNL     1      23.232   5.421  50.647  1.00  0.00    -0.264 OA
BRANCH  20  21
HETATM   21  N4  UNL     1      23.105   5.611  51.999  1.00  0.00    -0.209 NA
HETATM   22  H17 UNL     1      23.057   4.673  52.445  1.00  0.00     0.150 HD
HETATM   23  H18 UNL     1      22.222   6.123  52.218  1.00  0.00     0.150 HD
ENDBRANCH  20  21
ENDBRANCH  10  20
BRANCH   7  24
HETATM   24  C11 UNL     1      26.588   8.240  48.214  1.00  0.00     0.032 A 
HETATM   25  C12 UNL     1      25.894   8.617  47.075  1.00  0.00     0.018 A 
HETATM   26  C13 UNL     1      25.373   9.865  46.825  1.00  0.00     0.020 A 
HETATM   27  C14 UNL     1      25.546  10.840  47.784  1.00  0.00     0.013 A 
HETATM   28 BR1  UNL     1      24.840  12.578  47.476  1.00  0.00    -0.051 Br
HETATM   29  C15 UNL     1      26.234  10.495  48.929  1.00  0.00     0.062 A 
HETATM   30  C16 UNL     1      26.745   9.244  49.159  1.00  0.00     0.130 A 
HETATM   31  F1  UNL     1      27.414   8.985  50.322  1.00  0.00    -0.205 F 
ENDBRANCH   7  24
TORSDOF 6
ENDMDL
MODEL 8
REMARK VINA RESULT:      -8.4      2.354      3.273
REMARK  6 active torsions:
REMARK  status: ('A' for Active; 'I' for Inactive)
REMARK    1  A    between atoms: C4_5  and  C5_6 
REMARK    2  A    between atoms: C5_6  and  O1_7 
REMARK    3  A    between atoms: O1_7  and  C6_8 
REMARK    4  A    between atoms: C10_14  and  C11_15 
REMARK    5  A    between atoms: C19_25  and  O2_26 
REMARK    6  A    between atoms: O2_26  and  N4_27 
ROOT
HETATM    1  C6  UNL     1      24.518   3.596  49.696  1.00  0.00     0.106 A 
HETATM    2  C7  UNL     1      23.767   4.614  49.185  1.00  0.00     0.072 A 
HETATM    3  C8  UNL     1      24.274   5.787  48.712  1.00  0.00     0.073 A 
HETATM    4  N2  UNL     1      23.451   6.720  48.228  1.00  0.00    -0.241 NA
HETATM    5  C9  UNL     1      23.896   7.901  47.741  1.00  0.00     0.234 A 
HETATM    6  N3  UNL     1      25.227   8.075  47.779  1.00  0.00    -0.240 NA
HETATM    7  C10 UNL     1      26.089   7.176  48.253  1.00  0.00     0.084 A 
HETATM    8  C17 UNL     1      25.637   5.973  48.747  1.00  0.00     0.025 A 
HETATM    9  C18 UNL     1      26.473   5.016  49.239  1.00  0.00     0.057 A 
HETATM   10  C19 UNL     1      25.899   3.828  49.712  1.00  0.00     0.126 A 
ENDROOT
BRANCH   1  11
HETATM   11  O1  UNL     1      24.249   2.373  50.214  1.00  0.00    -0.348 OA
BRANCH  11  12
HETATM   12  C5  UNL     1      23.126   1.813  50.760  1.00  0.00     0.180 C 
BRANCH  12  13
HETATM   13  C4  UNL     1      22.909   2.049  52.241  1.00  0.00     0.013 C 
HETATM   14  C3  UNL     1      23.884   1.225  53.068  1.00  0.00     0.037 C 
HETATM   15  C2  UNL     1      23.319  -0.173  53.162  1.00  0.00     0.272 C 
HETATM   16  N1  UNL     1      22.131  -0.033  54.015  1.00  0.00     0.084 N 
HETATM   17  C1  UNL     1      21.612  -1.322  54.435  1.00  0.00     0.309 C 
HETATM   18  C21 UNL     1      21.081   0.638  53.294  1.00  0.00     0.272 C 
HETATM   19  C20 UNL     1      21.485   1.894  52.632  1.00  0.00     0.037 C 
ENDBRANCH  12  13
ENDBRANCH  11  12
ENDBRANCH   1  11
BRANCH  10  20
HETATM   20  O2  UNL     1      26.877   2.932  50.189  1.00  0.00    -0.264 OA
BRANCH  20  21
HETATM   21  N4  UNL     1      27.120   2.954  51.538  1.00  0.00    -0.209 NA
HETATM   22  H17 UNL     1      26.907   3.913  51.881  1.00  0.00     0.150 HD
HETATM   23  H18 UNL     1      28.126   2.753  51.735  1.00  0.00     0.150 HD
ENDBRANCH  20  21
ENDBRANCH  10  20
BRANCH   7  24
HETATM   24  C11 UNL     1      27.508   7.504  48.233  1.00  0.00     0.032 A 
HETATM   25  C12 UNL     1      28.387   6.979  47.298  1.00  0.00     0.018 A 
HETATM   26  C13 UNL     1      29.737   7.234  47.230  1.00  0.00     0.020 A 
HETATM   27  C14 UNL     1      30.279   8.087  48.166  1.00  0.00     0.013 A 
HETATM   28 BR1  UNL     1      32.141   8.466  48.105  1.00  0.00    -0.051 Br
HETATM   29  C15 UNL     1      29.429   8.625  49.110  1.00  0.00     0.062 A 
HETATM   30  C16 UNL     1      28.085   8.358  49.161  1.00  0.00     0.130 A 
HETATM   31  F1  UNL     1      27.312   8.933  50.129  1.00  0.00    -0.205 F 
ENDBRANCH   7  24
TORSDOF 6
ENDMDL
MODEL 9
REMARK VINA RESULT:      -8.3      4.011      8.077
REMARK  6 active torsions:
REMARK  status: ('A' for Active; 'I' for Inactive)
REMARK    1  A    between atoms: C4_5  and  C5_6 
REMARK    2  A    between atoms: C5_6  and  O1_7 
REMARK    3  A    between atoms: O1_7  and  C6_8 
REMARK    4  A    between atoms: C10_14  and  C11_15 
REMARK    5  A    between atoms: C19_25  and  O2_26 
REMARK    6  A    between atoms: O2_26  and  N4_27 
ROOT
HETATM    1  C6  UNL     1      26.326   6.902  48.262  1.00  0.00     0.106 A 
HETATM    2  C7  UNL     1      25.163   7.503  48.649  1.00  0.00     0.072 A 
HETATM    3  C8  UNL     1      24.245   6.943  49.486  1.00  0.00     0.073 A 
HETATM    4  N2  UNL     1      23.139   7.618  49.806  1.00  0.00    -0.241 NA
HETATM    5  C9  UNL     1      22.194   7.116  50.635  1.00  0.00     0.234 A 
HETATM    6  N3  UNL     1      22.444   5.887  51.114  1.00  0.00    -0.240 NA
HETATM    7  C10 UNL     1      23.531   5.173  50.824  1.00  0.00     0.084 A 
HETATM    8  C17 UNL     1      24.493   5.683  49.982  1.00  0.00     0.025 A 
HETATM    9  C18 UNL     1      25.626   5.000  49.655  1.00  0.00     0.057 A 
HETATM   10  C19 UNL     1      26.537   5.623  48.791  1.00  0.00     0.126 A 
ENDROOT
BRANCH   1  11
HETATM   11  O1  UNL     1      27.363   7.248  47.461  1.00  0.00    -0.348 OA
BRANCH  11  12
HETATM   12  C5  UNL     1      28.271   8.271  47.493  1.00  0.00     0.180 C 
BRANCH  12  13
HETATM   13  C4  UNL     1      28.644   8.796  48.865  1.00  0.00     0.013 C 
HETATM   14  C3  UNL     1      27.978  10.137  49.131  1.00  0.00     0.037 C 
HETATM   15  C2  UNL     1      28.815  11.195  48.448  1.00  0.00     0.272 C 
HETATM   16  N1  UNL     1      30.061  11.235  49.226  1.00  0.00     0.084 N 
HETATM   17  C1  UNL     1      30.878  12.384  48.879  1.00  0.00     0.309 C 
HETATM   18  C21 UNL     1      30.845  10.056  48.966  1.00  0.00     0.272 C 
HETATM   19  C20 UNL     1      30.112   8.780  49.091  1.00  0.00     0.037 C 
ENDBRANCH  12  13
ENDBRANCH  11  12
ENDBRANCH   1  11
BRANCH  10  20
HETATM   20  O2  UNL     1      27.657   4.805  48.541  1.00  0.00    -0.264 OA
BRANCH  20  21
HETATM   21  N4  UNL     1      28.847   5.214  49.085  1.00  0.00    -0.209 NA
HETATM   22  H17 UNL     1      29.391   5.685  48.334  1.00  0.00     0.150 HD
HETATM   23  H18 UNL     1      29.399   4.395  49.423  1.00  0.00     0.150 HD
ENDBRANCH  20  21
ENDBRANCH  10  20
BRANCH   7  24
HETATM   24  C11 UNL     1      23.665   3.850  51.418  1.00  0.00     0.032 A 
HETATM   25  C12 UNL     1      24.205   3.644  52.678  1.00  0.00     0.018 A 
HETATM   26  C13 UNL     1      24.374   2.424  53.291  1.00  0.00     0.020 A 
HETATM   27  C14 UNL     1      23.976   1.297  52.607  1.00  0.00     0.013 A 
HETATM   28 BR1  UNL     1      24.192  -0.407  53.422  1.00  0.00    -0.051 Br
HETATM   29  C15 UNL     1      23.435   1.471  51.349  1.00  0.00     0.062 A 
HETATM   30  C16 UNL     1      23.274   2.695  50.755  1.00  0.00     0.130 A 
HETATM   31  F1  UNL     1      22.729   2.780  49.505  1.00  0.00    -0.205 F 
ENDBRANCH   7  24
TORSDOF 6
ENDMDL
