MODEL 1
REMARK VINA RESULT:      -7.4      0.000      0.000
REMARK  5 active torsions:
REMARK  status: ('A' for Active; 'I' for Inactive)
REMARK    1  A    between atoms: N1_2  and  C3_4 
REMARK    2  A    between atoms: C3_4  and  C4_5 
REMARK    3  A    between atoms: C5_6  and  C6_7 
REMARK       I    between atoms: C6_7  and  N2_9 
REMARK    4  A    between atoms: N2_9  and  C7_10 
REMARK    5  A    between atoms: N3_14  and  C11_15 
ROOT
HETATM    1  C7  UNL     1      23.546  -0.417  53.542  1.00  0.00     0.032 C 
HETATM    2  C8  UNL     1      24.303  -0.586  54.631  1.00  0.00     0.008 C 
HETATM    3  C9  UNL     1      25.387  -0.542  55.608  1.00  0.00     0.107 C 
HETATM    4  C10 UNL     1      26.550   0.165  55.014  1.00  0.00     0.106 C 
HETATM    5  N3  UNL     1      27.643  -0.442  54.803  1.00  0.00    -0.246 NA
HETATM    6  N4  UNL     1      26.801   1.473  54.567  1.00  0.00    -0.354 N 
HETATM    7  C13 UNL     1      27.313   2.159  53.455  1.00  0.00     0.087 C 
HETATM    8  C14 UNL     1      27.037   2.382  52.185  1.00  0.00     0.016 C 
HETATM    9  C15 UNL     1      25.799   1.728  51.693  1.00  0.00     0.196 C 
HETATM   10  O2  UNL     1      25.244   1.005  52.732  1.00  0.00    -0.382 OA
HETATM   11  C16 UNL     1      24.023   0.449  52.442  1.00  0.00     0.224 C 
HETATM   12  H17 UNL     1      26.447   1.912  55.439  1.00  0.00     0.166 HD
ENDROOT
BRANCH   1  13
HETATM   13  N2  UNL     1      22.223  -0.873  53.158  1.00  0.00    -0.325 N 
HETATM   14  C6  UNL     1      21.115  -0.451  53.932  1.00  0.00     0.245 C 
HETATM   15  O1  UNL     1      21.005   0.278  54.946  1.00  0.00    -0.268 OA
HETATM   16  H11 UNL     1      22.081  -1.493  52.336  1.00  0.00     0.169 HD
BRANCH  14  17
HETATM   17  C5  UNL     1      19.799  -0.924  53.521  1.00  0.00     0.072 C 
HETATM   18  C4  UNL     1      18.830  -0.514  52.728  1.00  0.00     0.008 C 
BRANCH  18  19
HETATM   19  C3  UNL     1      17.499  -0.756  52.158  1.00  0.00     0.299 C 
BRANCH  19  20
HETATM   20  N1  UNL     1      17.185   0.128  51.043  1.00  0.00     0.083 N 
HETATM   21  C1  UNL     1      18.480   0.567  50.525  1.00  0.00     0.309 C 
HETATM   22  C2  UNL     1      16.404   1.259  51.519  1.00  0.00     0.309 C 
ENDBRANCH  19  20
ENDBRANCH  18  19
ENDBRANCH  14  17
ENDBRANCH   1  13
BRANCH   5  23
HETATM   23  C11 UNL     1      28.859  -0.056  54.279  1.00  0.00     0.130 C 
HETATM   24  C12 UNL     1      29.172  -1.169  53.625  1.00  0.00     0.237 C 
HETATM   25 CL1  UNL     1      29.045  -2.801  53.000  1.00  0.00    -0.229 Cl
ENDBRANCH   5  23
TORSDOF 5
ENDMDL
MODEL 2
REMARK VINA RESULT:      -6.9      4.572      8.587
REMARK  5 active torsions:
REMARK  status: ('A' for Active; 'I' for Inactive)
REMARK    1  A    between atoms: N1_2  and  C3_4 
REMARK    2  A    between atoms: C3_4  and  C4_5 
REMARK    3  A    between atoms: C5_6  and  C6_7 
REMARK       I    between atoms: C6_7  and  N2_9 
REMARK    4  A    between atoms: N2_9  and  C7_10 
REMARK    5  A    between atoms: N3_14  and  C11_15 
ROOT
HETATM    1  C7  UNL     1      25.940   3.012  51.230  1.00  0.00     0.032 C 
HETATM    2  C8  UNL     1      24.795   3.077  51.918  1.00  0.00     0.008 C 
HETATM    3  C9  UNL     1      23.642   2.767  52.756  1.00  0.00     0.107 C 
HETATM    4  C10 UNL     1      23.687   1.331  53.135  1.00  0.00     0.106 C 
HETATM    5  N3  UNL     1      22.792   0.524  52.740  1.00  0.00    -0.246 NA
HETATM    6  N4  UNL     1      24.551   0.527  53.898  1.00  0.00    -0.354 N 
HETATM    7  C13 UNL     1      25.255  -0.684  53.820  1.00  0.00     0.087 C 
HETATM    8  C14 UNL     1      26.244  -1.242  53.148  1.00  0.00     0.016 C 
HETATM    9  C15 UNL     1      26.865  -0.372  52.120  1.00  0.00     0.196 C 
HETATM   10  O2  UNL     1      26.205   0.842  52.116  1.00  0.00    -0.382 OA
HETATM   11  C16 UNL     1      26.765   1.785  51.291  1.00  0.00     0.224 C 
HETATM   12  H17 UNL     1      24.545   1.173  54.711  1.00  0.00     0.166 HD
ENDROOT
BRANCH   1  13
HETATM   13  N2  UNL     1      26.672   3.955  50.405  1.00  0.00    -0.325 N 
HETATM   14  C6  UNL     1      25.958   4.684  49.422  1.00  0.00     0.245 C 
HETATM   15  O1  UNL     1      24.753   4.704  49.077  1.00  0.00    -0.268 OA
HETATM   16  H11 UNL     1      27.694   4.099  50.524  1.00  0.00     0.169 HD
BRANCH  14  17
HETATM   17  C5  UNL     1      26.721   5.623  48.610  1.00  0.00     0.072 C 
HETATM   18  C4  UNL     1      27.990   5.885  48.372  1.00  0.00     0.008 C 
BRANCH  18  19
HETATM   19  C3  UNL     1      28.982   6.701  47.662  1.00  0.00     0.299 C 
BRANCH  19  20
HETATM   20  N1  UNL     1      30.040   7.198  48.532  1.00  0.00     0.083 N 
HETATM   21  C1  UNL     1      30.626   8.330  47.817  1.00  0.00     0.309 C 
HETATM   22  C2  UNL     1      31.028   6.152  48.748  1.00  0.00     0.309 C 
ENDBRANCH  19  20
ENDBRANCH  18  19
ENDBRANCH  14  17
ENDBRANCH   1  13
BRANCH   5  23
HETATM   23  C11 UNL     1      22.580  -0.825  52.929  1.00  0.00     0.130 C 
HETATM   24  C12 UNL     1      21.281  -0.798  53.209  1.00  0.00     0.237 C 
HETATM   25 CL1  UNL     1      19.673  -0.166  53.494  1.00  0.00    -0.229 Cl
ENDBRANCH   5  23
TORSDOF 5
ENDMDL
MODEL 3
REMARK VINA RESULT:      -6.8      5.817      7.984
REMARK  5 active torsions:
REMARK  status: ('A' for Active; 'I' for Inactive)
REMARK    1  A    between atoms: N1_2  and  C3_4 
REMARK    2  A    between atoms: C3_4  and  C4_5 
REMARK    3  A    between atoms: C5_6  and  C6_7 
REMARK       I    between atoms: C6_7  and  N2_9 
REMARK    4  A    between atoms: N2_9  and  C7_10 
REMARK    5  A    between atoms: N3_14  and  C11_15 
ROOT
HETATM    1  C7  UNL     1      25.889   4.205  49.862  1.00  0.00     0.032 C 
HETATM    2  C8  UNL     1      27.006   4.465  49.174  1.00  0.00     0.008 C 
HETATM    3  C9  UNL     1      28.100   5.128  48.472  1.00  0.00     0.107 C 
HETATM    4  C10 UNL     1      27.820   6.585  48.399  1.00  0.00     0.106 C 
HETATM    5  N3  UNL     1      27.627   7.156  47.283  1.00  0.00    -0.246 NA
HETATM    6  N4  UNL     1      27.691   7.625  49.334  1.00  0.00    -0.354 N 
HETATM    7  C13 UNL     1      26.821   8.670  49.681  1.00  0.00     0.087 C 
HETATM    8  C14 UNL     1      25.601   8.864  50.143  1.00  0.00     0.016 C 
HETATM    9  C15 UNL     1      24.831   7.623  50.404  1.00  0.00     0.196 C 
HETATM   10  O2  UNL     1      25.616   6.540  50.060  1.00  0.00    -0.382 OA
HETATM   11  C16 UNL     1      25.064   5.322  50.372  1.00  0.00     0.224 C 
HETATM   12  H17 UNL     1      28.584   7.396  49.814  1.00  0.00     0.166 HD
ENDROOT
BRANCH   1  13
HETATM   13  N2  UNL     1      25.254   2.985  50.323  1.00  0.00    -0.325 N 
HETATM   14  C6  UNL     1      25.869   2.261  51.373  1.00  0.00     0.245 C 
HETATM   15  O1  UNL     1      26.911   2.444  52.045  1.00  0.00    -0.268 OA
HETATM   16  H11 UNL     1      24.369   2.642  49.899  1.00  0.00     0.169 HD
BRANCH  14  17
HETATM   17  C5  UNL     1      25.206   1.040  51.814  1.00  0.00     0.072 C 
HETATM   18  C4  UNL     1      24.542   0.632  52.876  1.00  0.00     0.008 C 
BRANCH  18  19
HETATM   19  C3  UNL     1      23.816  -0.450  53.552  1.00  0.00     0.299 C 
BRANCH  19  20
HETATM   20  N1  UNL     1      22.403  -0.152  53.752  1.00  0.00     0.083 N 
HETATM   21  C1  UNL     1      21.899  -1.230  54.600  1.00  0.00     0.309 C 
HETATM   22  C2  UNL     1      21.720  -0.137  52.468  1.00  0.00     0.309 C 
ENDBRANCH  19  20
ENDBRANCH  18  19
ENDBRANCH  14  17
ENDBRANCH   1  13
BRANCH   5  23
HETATM   23  C11 UNL     1      27.354   8.457  46.916  1.00  0.00     0.130 C 
HETATM   24  C12 UNL     1      28.329   8.637  46.031  1.00  0.00     0.237 C 
HETATM   25 CL1  UNL     1      29.728   8.297  45.033  1.00  0.00    -0.229 Cl
ENDBRANCH   5  23
TORSDOF 5
ENDMDL
MODEL 4
REMARK VINA RESULT:      -6.4      5.167      9.711
REMARK  5 active torsions:
REMARK  status: ('A' for Active; 'I' for Inactive)
REMARK    1  A    between atoms: N1_2  and  C3_4 
REMARK    2  A    between atoms: C3_4  and  C4_5 
REMARK    3  A    between atoms: C5_6  and  C6_7 
REMARK       I    between atoms: C6_7  and  N2_9 
REMARK    4  A    between atoms: N2_9  and  C7_10 
REMARK    5  A    between atoms: N3_14  and  C11_15 
ROOT
HETATM    1  C7  UNL     1      25.924   3.548  50.006  1.00  0.00     0.032 C 
HETATM    2  C8  UNL     1      24.618   3.818  49.906  1.00  0.00     0.008 C 
HETATM    3  C9  UNL     1      23.166   3.807  50.057  1.00  0.00     0.107 C 
HETATM    4  C10 UNL     1      22.774   2.651  50.904  1.00  0.00     0.106 C 
HETATM    5  N3  UNL     1      22.077   1.703  50.432  1.00  0.00    -0.246 NA
HETATM    6  N4  UNL     1      22.990   2.275  52.240  1.00  0.00    -0.354 N 
HETATM    7  C13 UNL     1      23.423   1.178  53.001  1.00  0.00     0.087 C 
HETATM    8  C14 UNL     1      24.506   0.455  53.214  1.00  0.00     0.016 C 
HETATM    9  C15 UNL     1      25.695   0.870  52.430  1.00  0.00     0.196 C 
HETATM   10  O2  UNL     1      25.340   1.939  51.629  1.00  0.00    -0.382 OA
HETATM   11  C16 UNL     1      26.387   2.500  50.942  1.00  0.00     0.224 C 
HETATM   12  H17 UNL     1      22.686   3.193  52.620  1.00  0.00     0.166 HD
ENDROOT
BRANCH   1  13
HETATM   13  N2  UNL     1      27.117   4.118  49.408  1.00  0.00    -0.325 N 
HETATM   14  C6  UNL     1      27.019   5.388  48.791  1.00  0.00     0.245 C 
HETATM   15  O1  UNL     1      26.071   6.193  48.630  1.00  0.00    -0.268 OA
HETATM   16  H11 UNL     1      28.025   3.614  49.428  1.00  0.00     0.169 HD
BRANCH  14  17
HETATM   17  C5  UNL     1      28.235   5.934  48.200  1.00  0.00     0.072 C 
HETATM   18  C4  UNL     1      29.526   5.679  48.242  1.00  0.00     0.008 C 
BRANCH  18  19
HETATM   19  C3  UNL     1      30.880   6.026  47.793  1.00  0.00     0.299 C 
BRANCH  19  20
HETATM   20  N1  UNL     1      31.917   5.228  48.435  1.00  0.00     0.083 N 
HETATM   21  C1  UNL     1      32.985   6.172  48.756  1.00  0.00     0.309 C 
HETATM   22  C2  UNL     1      32.386   4.204  47.515  1.00  0.00     0.309 C 
ENDBRANCH  19  20
ENDBRANCH  18  19
ENDBRANCH  14  17
ENDBRANCH   1  13
BRANCH   5  23
HETATM   23  C11 UNL     1      21.576   0.535  50.965  1.00  0.00     0.130 C 
HETATM   24  C12 UNL     1      20.309   0.653  50.582  1.00  0.00     0.237 C 
HETATM   25 CL1  UNL     1      18.870   1.325  49.843  1.00  0.00    -0.229 Cl
ENDBRANCH   5  23
TORSDOF 5
ENDMDL
MODEL 5
REMARK VINA RESULT:      -6.3      4.752      5.861
REMARK  5 active torsions:
REMARK  status: ('A' for Active; 'I' for Inactive)
REMARK    1  A    between atoms: N1_2  and  C3_4 
REMARK    2  A    between atoms: C3_4  and  C4_5 
REMARK    3  A    between atoms: C5_6  and  C6_7 
REMARK       I    between atoms: C6_7  and  N2_9 
REMARK    4  A    between atoms: N2_9  and  C7_10 
REMARK    5  A    between atoms: N3_14  and  C11_15 
ROOT
HETATM    1  C7  UNL     1      24.097   3.163  51.046  1.00  0.00     0.032 C 
HETATM    2  C8  UNL     1      25.385   2.813  50.965  1.00  0.00     0.008 C 
HETATM    3  C9  UNL     1      26.675   2.155  51.146  1.00  0.00     0.107 C 
HETATM    4  C10 UNL     1      26.555   1.135  52.220  1.00  0.00     0.106 C 
HETATM    5  N3  UNL     1      27.199   1.252  53.305  1.00  0.00    -0.246 NA
HETATM    6  N4  UNL     1      25.838  -0.062  52.383  1.00  0.00    -0.354 N 
HETATM    7  C13 UNL     1      24.993  -0.703  53.302  1.00  0.00     0.087 C 
HETATM    8  C14 UNL     1      23.797  -0.573  53.842  1.00  0.00     0.016 C 
HETATM    9  C15 UNL     1      23.032   0.613  53.383  1.00  0.00     0.196 C 
HETATM   10  O2  UNL     1      23.814   1.317  52.487  1.00  0.00    -0.382 OA
HETATM   11  C16 UNL     1      23.174   2.374  51.890  1.00  0.00     0.224 C 
HETATM   12  H17 UNL     1      26.146  -0.451  51.470  1.00  0.00     0.166 HD
ENDROOT
BRANCH   1  13
HETATM   13  N2  UNL     1      23.293   4.190  50.410  1.00  0.00    -0.325 N 
HETATM   14  C6  UNL     1      23.273   5.483  50.987  1.00  0.00     0.245 C 
HETATM   15  O1  UNL     1      23.831   5.982  51.993  1.00  0.00    -0.268 OA
HETATM   16  H11 UNL     1      22.742   3.991  49.552  1.00  0.00     0.169 HD
BRANCH  14  17
HETATM   17  C5  UNL     1      22.457   6.492  50.324  1.00  0.00     0.072 C 
HETATM   18  C4  UNL     1      21.174   6.740  50.159  1.00  0.00     0.008 C 
BRANCH  18  19
HETATM   19  C3  UNL     1      20.135   7.607  49.590  1.00  0.00     0.299 C 
BRANCH  19  20
HETATM   20  N1  UNL     1      20.471   9.023  49.659  1.00  0.00     0.083 N 
HETATM   21  C1  UNL     1      19.227   9.695  50.030  1.00  0.00     0.309 C 
HETATM   22  C2  UNL     1      20.942   9.479  48.362  1.00  0.00     0.309 C 
ENDBRANCH  19  20
ENDBRANCH  18  19
ENDBRANCH  14  17
ENDBRANCH   1  13
BRANCH   5  23
HETATM   23  C11 UNL     1      27.284   0.484  54.448  1.00  0.00     0.130 C 
HETATM   24  C12 UNL     1      28.510  -0.003  54.285  1.00  0.00     0.237 C 
HETATM   25 CL1  UNL     1      30.079  -0.303  53.567  1.00  0.00    -0.229 Cl
ENDBRANCH   5  23
TORSDOF 5
ENDMDL
MODEL 6
REMARK VINA RESULT:      -6.3      6.231     10.513
REMARK  5 active torsions:
REMARK  status: ('A' for Active; 'I' for Inactive)
REMARK    1  A    between atoms: N1_2  and  C3_4 
REMARK    2  A    between atoms: C3_4  and  C4_5 
REMARK    3  A    between atoms: C5_6  and  C6_7 
REMARK       I    between atoms: C6_7  and  N2_9 
REMARK    4  A    between atoms: N2_9  and  C7_10 
REMARK    5  A    between atoms: N3_14  and  C11_15 
ROOT
HETATM    1  C7  UNL     1      26.718   5.436  49.059  1.00  0.00     0.032 C 
HETATM    2  C8  UNL     1      26.753   4.114  49.260  1.00  0.00     0.008 C 
HETATM    3  C9  UNL     1      26.496   2.759  49.739  1.00  0.00     0.107 C 
HETATM    4  C10 UNL     1      25.493   2.812  50.833  1.00  0.00     0.106 C 
HETATM    5  N3  UNL     1      25.798   2.469  52.015  1.00  0.00    -0.246 NA
HETATM    6  N4  UNL     1      24.141   3.182  50.930  1.00  0.00    -0.354 N 
HETATM    7  C13 UNL     1      23.290   3.986  51.704  1.00  0.00     0.087 C 
HETATM    8  C14 UNL     1      23.074   5.257  51.984  1.00  0.00     0.016 C 
HETATM    9  C15 UNL     1      23.986   6.209  51.303  1.00  0.00     0.196 C 
HETATM   10  O2  UNL     1      24.878   5.486  50.536  1.00  0.00    -0.382 OA
HETATM   11  C16 UNL     1      25.702   6.257  49.753  1.00  0.00     0.224 C 
HETATM   12  H17 UNL     1      23.851   2.592  50.125  1.00  0.00     0.166 HD
ENDROOT
BRANCH   1  13
HETATM   13  N2  UNL     1      27.464   6.343  48.208  1.00  0.00    -0.325 N 
HETATM   14  C6  UNL     1      28.867   6.173  48.110  1.00  0.00     0.245 C 
HETATM   15  O1  UNL     1      29.670   5.361  48.625  1.00  0.00    -0.268 OA
HETATM   16  H11 UNL     1      26.990   7.102  47.679  1.00  0.00     0.169 HD
BRANCH  14  17
HETATM   17  C5  UNL     1      29.588   7.100  47.246  1.00  0.00     0.072 C 
HETATM   18  C4  UNL     1      30.816   7.563  47.139  1.00  0.00     0.008 C 
BRANCH  18  19
HETATM   19  C3  UNL     1      31.764   8.432  46.431  1.00  0.00     0.299 C 
BRANCH  19  20
HETATM   20  N1  UNL     1      33.139   8.265  46.882  1.00  0.00     0.083 N 
HETATM   21  C1  UNL     1      33.628   7.072  46.194  1.00  0.00     0.309 C 
HETATM   22  C2  UNL     1      33.163   8.081  48.324  1.00  0.00     0.309 C 
ENDBRANCH  19  20
ENDBRANCH  18  19
ENDBRANCH  14  17
ENDBRANCH   1  13
BRANCH   5  23
HETATM   23  C11 UNL     1      25.096   2.415  53.200  1.00  0.00     0.130 C 
HETATM   24  C12 UNL     1      25.944   1.684  53.916  1.00  0.00     0.237 C 
HETATM   25 CL1  UNL     1      27.368   0.751  54.330  1.00  0.00    -0.229 Cl
ENDBRANCH   5  23
TORSDOF 5
ENDMDL
MODEL 7
REMARK VINA RESULT:      -6.2      4.991      9.475
REMARK  5 active torsions:
REMARK  status: ('A' for Active; 'I' for Inactive)
REMARK    1  A    between atoms: N1_2  and  C3_4 
REMARK    2  A    between atoms: C3_4  and  C4_5 
REMARK    3  A    between atoms: C5_6  and  C6_7 
REMARK       I    between atoms: C6_7  and  N2_9 
REMARK    4  A    between atoms: N2_9  and  C7_10 
REMARK    5  A    between atoms: N3_14  and  C11_15 
ROOT
HETATM    1  C7  UNL     1      24.283   3.935  49.745  1.00  0.00     0.032 C 
HETATM    2  C8  UNL     1      24.394   2.950  50.643  1.00  0.00     0.008 C 
HETATM    3  C9  UNL     1      24.133   1.809  51.515  1.00  0.00     0.107 C 
HETATM    4  C10 UNL     1      22.704   1.424  51.398  1.00  0.00     0.106 C 
HETATM    5  N3  UNL     1      21.917   1.526  52.387  1.00  0.00    -0.246 NA
HETATM    6  N4  UNL     1      21.887   0.921  50.371  1.00  0.00    -0.354 N 
HETATM    7  C13 UNL     1      20.654   1.166  49.748  1.00  0.00     0.087 C 
HETATM    8  C14 UNL     1      20.055   2.078  49.007  1.00  0.00     0.016 C 
HETATM    9  C15 UNL     1      20.889   3.263  48.685  1.00  0.00     0.196 C 
HETATM   10  O2  UNL     1      22.121   3.108  49.290  1.00  0.00    -0.382 OA
HETATM   11  C16 UNL     1      23.034   4.082  48.968  1.00  0.00     0.224 C 
HETATM   12  H17 UNL     1      22.547   0.156  50.128  1.00  0.00     0.166 HD
ENDROOT
BRANCH   1  13
HETATM   13  N2  UNL     1      25.190   4.958  49.259  1.00  0.00    -0.325 N 
HETATM   14  C6  UNL     1      26.553   4.621  49.082  1.00  0.00     0.245 C 
HETATM   15  O1  UNL     1      27.206   3.566  49.262  1.00  0.00    -0.268 OA
HETATM   16  H11 UNL     1      24.855   5.918  49.042  1.00  0.00     0.169 HD
BRANCH  14  17
HETATM   17  C5  UNL     1      27.438   5.670  48.591  1.00  0.00     0.072 C 
HETATM   18  C4  UNL     1      28.697   5.775  48.218  1.00  0.00     0.008 C 
BRANCH  18  19
HETATM   19  C3  UNL     1      29.781   6.628  47.717  1.00  0.00     0.299 C 
BRANCH  19  20
HETATM   20  N1  UNL     1      30.438   7.394  48.769  1.00  0.00     0.083 N 
HETATM   21  C1  UNL     1      29.734   8.674  48.810  1.00  0.00     0.309 C 
HETATM   22  C2  UNL     1      31.841   7.581  48.436  1.00  0.00     0.309 C 
ENDBRANCH  19  20
ENDBRANCH  18  19
ENDBRANCH  14  17
ENDBRANCH   1  13
BRANCH   5  23
HETATM   23  C11 UNL     1      20.578   1.251  52.569  1.00  0.00     0.130 C 
HETATM   24  C12 UNL     1      20.670   0.427  53.608  1.00  0.00     0.237 C 
HETATM   25 CL1  UNL     1      21.383  -0.532  54.888  1.00  0.00    -0.229 Cl
ENDBRANCH   5  23
TORSDOF 5
ENDMDL
MODEL 8
REMARK VINA RESULT:      -6.2      4.032      8.723
REMARK  5 active torsions:
REMARK  status: ('A' for Active; 'I' for Inactive)
REMARK    1  A    between atoms: N1_2  and  C3_4 
REMARK    2  A    between atoms: C3_4  and  C4_5 
REMARK    3  A    between atoms: C5_6  and  C6_7 
REMARK       I    between atoms: C6_7  and  N2_9 
REMARK    4  A    between atoms: N2_9  and  C7_10 
REMARK    5  A    between atoms: N3_14  and  C11_15 
ROOT
HETATM    1  C7  UNL     1      22.560   1.385  52.131  1.00  0.00     0.032 C 
HETATM    2  C8  UNL     1      21.333   1.370  52.664  1.00  0.00     0.008 C 
HETATM    3  C9  UNL     1      19.896   1.496  52.882  1.00  0.00     0.107 C 
HETATM    4  C10 UNL     1      19.276   2.131  51.691  1.00  0.00     0.106 C 
HETATM    5  N3  UNL     1      18.726   3.270  51.772  1.00  0.00    -0.246 NA
HETATM    6  N4  UNL     1      19.115   1.776  50.341  1.00  0.00    -0.354 N 
HETATM    7  C13 UNL     1      19.314   2.295  49.053  1.00  0.00     0.087 C 
HETATM    8  C14 UNL     1      20.291   2.674  48.251  1.00  0.00     0.016 C 
HETATM    9  C15 UNL     1      21.653   2.543  48.825  1.00  0.00     0.196 C 
HETATM   10  O2  UNL     1      21.540   2.058  50.113  1.00  0.00    -0.382 OA
HETATM   11  C16 UNL     1      22.740   1.772  50.715  1.00  0.00     0.224 C 
HETATM   12  H17 UNL     1      18.728   0.838  50.563  1.00  0.00     0.166 HD
ENDROOT
BRANCH   1  13
HETATM   13  N2  UNL     1      23.876   1.029  52.628  1.00  0.00    -0.325 N 
HETATM   14  C6  UNL     1      24.011  -0.163  53.380  1.00  0.00     0.245 C 
HETATM   15  O1  UNL     1      23.198  -1.045  53.743  1.00  0.00    -0.268 OA
HETATM   16  H11 UNL     1      24.704   1.627  52.441  1.00  0.00     0.169 HD
BRANCH  14  17
HETATM   17  C5  UNL     1      25.346  -0.493  53.865  1.00  0.00     0.072 C 
HETATM   18  C4  UNL     1      26.425   0.162  54.243  1.00  0.00     0.008 C 
BRANCH  18  19
HETATM   19  C3  UNL     1      27.805   0.108  54.740  1.00  0.00     0.299 C 
BRANCH  19  20
HETATM   20  N1  UNL     1      28.777   0.618  53.782  1.00  0.00     0.083 N 
HETATM   21  C1  UNL     1      29.775  -0.442  53.646  1.00  0.00     0.309 C 
HETATM   22  C2  UNL     1      29.380   1.837  54.297  1.00  0.00     0.309 C 
ENDBRANCH  19  20
ENDBRANCH  18  19
ENDBRANCH  14  17
ENDBRANCH   1  13
BRANCH   5  23
HETATM   23  C11 UNL     1      18.087   4.084  50.860  1.00  0.00     0.130 C 
HETATM   24  C12 UNL     1      16.922   4.225  51.482  1.00  0.00     0.237 C 
HETATM   25 CL1  UNL     1      15.676   4.051  52.701  1.00  0.00    -0.229 Cl
ENDBRANCH   5  23
TORSDOF 5
ENDMDL
MODEL 9
REMARK VINA RESULT:      -6.2      6.955      9.138
REMARK  5 active torsions:
REMARK  status: ('A' for Active; 'I' for Inactive)
REMARK    1  A    between atoms: N1_2  and  C3_4 
REMARK    2  A    between atoms: C3_4  and  C4_5 
REMARK    3  A    between atoms: C5_6  and  C6_7 
REMARK       I    between atoms: C6_7  and  N2_9 
REMARK    4  A    between atoms: N2_9  and  C7_10 
REMARK    5  A    between atoms: N3_14  and  C11_15 
ROOT
HETATM    1  C7  UNL     1      27.316   5.829  48.680  1.00  0.00     0.032 C 
HETATM    2  C8  UNL     1      28.566   5.477  48.364  1.00  0.00     0.008 C 
HETATM    3  C9  UNL     1      29.994   5.488  48.061  1.00  0.00     0.107 C 
HETATM    4  C10 UNL     1      30.475   6.894  48.031  1.00  0.00     0.106 C 
HETATM    5  N3  UNL     1      30.909   7.412  46.959  1.00  0.00    -0.246 NA
HETATM    6  N4  UNL     1      30.591   7.928  48.974  1.00  0.00    -0.354 N 
HETATM    7  C13 UNL     1      30.265   9.283  49.143  1.00  0.00     0.087 C 
HETATM    8  C14 UNL     1      29.209  10.067  49.252  1.00  0.00     0.016 C 
HETATM    9  C15 UNL     1      27.904   9.365  49.179  1.00  0.00     0.196 C 
HETATM   10  O2  UNL     1      28.141   8.018  48.985  1.00  0.00    -0.382 OA
HETATM   11  C16 UNL     1      27.014   7.236  49.023  1.00  0.00     0.224 C 
HETATM   12  H17 UNL     1      31.085   7.333  49.668  1.00  0.00     0.166 HD
ENDROOT
BRANCH   1  13
HETATM   13  N2  UNL     1      26.074   5.095  48.837  1.00  0.00    -0.325 N 
HETATM   14  C6  UNL     1      26.080   3.926  49.637  1.00  0.00     0.245 C 
HETATM   15  O1  UNL     1      26.975   3.337  50.287  1.00  0.00    -0.268 OA
HETATM   16  H11 UNL     1      25.197   5.411  48.378  1.00  0.00     0.169 HD
BRANCH  14  17
HETATM   17  C5  UNL     1      24.818   3.212  49.776  1.00  0.00     0.072 C 
HETATM   18  C4  UNL     1      24.177   2.559  50.725  1.00  0.00     0.008 C 
BRANCH  18  19
HETATM   19  C3  UNL     1      22.990   1.797  51.130  1.00  0.00     0.299 C 
BRANCH  19  20
HETATM   20  N1  UNL     1      23.254   0.865  52.219  1.00  0.00     0.083 N 
HETATM   21  C1  UNL     1      22.021   0.833  53.004  1.00  0.00     0.309 C 
HETATM   22  C2  UNL     1      24.368   1.349  53.018  1.00  0.00     0.309 C 
ENDBRANCH  19  20
ENDBRANCH  18  19
ENDBRANCH  14  17
ENDBRANCH   1  13
BRANCH   5  23
HETATM   23  C11 UNL     1      31.407   8.657  46.639  1.00  0.00     0.130 C 
HETATM   24  C12 UNL     1      32.356   8.293  45.782  1.00  0.00     0.237 C 
HETATM   25 CL1  UNL     1      33.379   7.264  44.801  1.00  0.00    -0.229 Cl
ENDBRANCH   5  23
TORSDOF 5
ENDMDL
