MODEL 1
REMARK VINA RESULT:      -8.1      0.000      0.000
REMARK  5 active torsions:
REMARK  status: ('A' for Active; 'I' for Inactive)
REMARK    1  A    between atoms: C2_2  and  C3_3 
REMARK    2  A    between atoms: C6_6  and  C7_7 
REMARK       I    between atoms: C7_7  and  N1_9 
REMARK    3  A    between atoms: N1_9  and  N2_10 
REMARK    4  A    between atoms: N2_10  and  C8_11 
REMARK    5  A    between atoms: C8_11  and  C9_12 
ROOT
HETATM    1  C7  UNL     1      24.881   3.718  50.741  1.00  0.00     0.265 C 
HETATM    2  O1  UNL     1      23.744   3.456  50.287  1.00  0.00    -0.266 OA
HETATM    3  N1  UNL     1      25.338   3.197  51.979  1.00  0.00    -0.287 N 
HETATM    4  H8  UNL     1      26.278   3.391  52.389  1.00  0.00     0.184 HD
ENDROOT
BRANCH   3   5
HETATM    5  N2  UNL     1      24.675   2.347  52.890  1.00  0.00    -0.237 NA
HETATM    6  H9  UNL     1      23.715   2.674  53.017  1.00  0.00     0.146 HD
BRANCH   5   7
HETATM    7  C8  UNL     1      24.799   1.004  52.397  1.00  0.00     0.123 C 
BRANCH   7   8
HETATM    8  C9  UNL     1      25.453   0.063  53.370  1.00  0.00    -0.010 A 
HETATM    9  C10 UNL     1      24.391  -0.642  54.232  1.00  0.00     0.021 C 
HETATM   10  C11 UNL     1      26.235  -0.993  52.738  1.00  0.00    -0.014 A 
HETATM   11  C12 UNL     1      27.483  -1.434  52.746  1.00  0.00     0.020 A 
HETATM   12  C13 UNL     1      28.341  -0.659  53.631  1.00  0.00     0.030 A 
HETATM   13 CL1  UNL     1      30.023  -1.039  53.819  1.00  0.00    -0.085 Cl
HETATM   14  C14 UNL     1      27.718   0.317  54.244  1.00  0.00    -0.002 A 
HETATM   15  C15 UNL     1      26.349   0.861  54.283  1.00  0.00     0.043 A 
ENDBRANCH   7   8
ENDBRANCH   5   7
ENDBRANCH   3   5
BRANCH   1  16
HETATM   16  C6  UNL     1      25.738   4.580  49.960  1.00  0.00     0.033 A 
HETATM   17  C5  UNL     1      26.857   4.014  49.363  1.00  0.00     0.017 A 
HETATM   18  C4  UNL     1      27.739   4.771  48.590  1.00  0.00     0.008 A 
HETATM   19  C3  UNL     1      27.502   6.134  48.405  1.00  0.00    -0.059 A 
HETATM   20  C17 UNL     1      26.393   6.711  48.991  1.00  0.00     0.008 A 
HETATM   21  C16 UNL     1      25.548   5.918  49.748  1.00  0.00     0.017 A 
BRANCH  19  22
HETATM   22  C2  UNL     1      28.389   7.019  47.596  1.00  0.00     0.034 C 
HETATM   23  C1  UNL     1      29.812   6.530  47.699  1.00  0.00     0.010 C 
ENDBRANCH  19  22
ENDBRANCH   1  16
TORSDOF 5
ENDMDL
MODEL 2
REMARK VINA RESULT:      -8.1      4.233      7.376
REMARK  5 active torsions:
REMARK  status: ('A' for Active; 'I' for Inactive)
REMARK    1  A    between atoms: C2_2  and  C3_3 
REMARK    2  A    between atoms: C6_6  and  C7_7 
REMARK       I    between atoms: C7_7  and  N1_9 
REMARK    3  A    between atoms: N1_9  and  N2_10 
REMARK    4  A    between atoms: N2_10  and  C8_11 
REMARK    5  A    between atoms: C8_11  and  C9_12 
ROOT
HETATM    1  C7  UNL     1      24.720  -0.982  54.594  1.00  0.00     0.265 C 
HETATM    2  O1  UNL     1      24.996  -1.209  55.794  1.00  0.00    -0.266 OA
HETATM    3  N1  UNL     1      25.725  -0.819  53.607  1.00  0.00    -0.287 N 
HETATM    4  H8  UNL     1      25.535  -0.630  52.598  1.00  0.00     0.184 HD
ENDROOT
BRANCH   3   5
HETATM    5  N2  UNL     1      27.129  -0.870  53.744  1.00  0.00    -0.237 NA
HETATM    6  H9  UNL     1      27.552  -1.031  52.827  1.00  0.00     0.146 HD
BRANCH   5   7
HETATM    7  C8  UNL     1      27.543   0.338  54.401  1.00  0.00     0.123 C 
BRANCH   7   8
HETATM    8  C9  UNL     1      27.415   1.564  53.542  1.00  0.00    -0.010 A 
HETATM    9  C10 UNL     1      28.654   2.463  53.698  1.00  0.00     0.021 C 
HETATM   10  C11 UNL     1      27.292   1.279  52.117  1.00  0.00    -0.014 A 
HETATM   11  C12 UNL     1      26.435   1.512  51.136  1.00  0.00     0.020 A 
HETATM   12  C13 UNL     1      25.272   2.267  51.581  1.00  0.00     0.030 A 
HETATM   13 CL1  UNL     1      24.002   2.702  50.481  1.00  0.00    -0.085 Cl
HETATM   14  C14 UNL     1      25.297   2.568  52.856  1.00  0.00    -0.002 A 
HETATM   15  C15 UNL     1      26.206   2.345  53.994  1.00  0.00     0.043 A 
ENDBRANCH   7   8
ENDBRANCH   5   7
ENDBRANCH   3   5
BRANCH   1  16
HETATM   16  C6  UNL     1      23.325  -0.890  54.227  1.00  0.00     0.033 A 
HETATM   17  C5  UNL     1      23.007  -0.228  53.049  1.00  0.00     0.017 A 
HETATM   18  C4  UNL     1      21.687  -0.092  52.617  1.00  0.00     0.008 A 
HETATM   19  C3  UNL     1      20.650  -0.630  53.380  1.00  0.00    -0.059 A 
HETATM   20  C17 UNL     1      20.950  -1.293  54.555  1.00  0.00     0.008 A 
HETATM   21  C16 UNL     1      22.275  -1.401  54.940  1.00  0.00     0.017 A 
BRANCH  19  22
HETATM   22  C2  UNL     1      19.212  -0.533  52.996  1.00  0.00     0.034 C 
HETATM   23  C1  UNL     1      19.097   0.148  51.655  1.00  0.00     0.010 C 
ENDBRANCH  19  22
ENDBRANCH   1  16
TORSDOF 5
ENDMDL
MODEL 3
REMARK VINA RESULT:      -7.9      1.494      2.097
REMARK  5 active torsions:
REMARK  status: ('A' for Active; 'I' for Inactive)
REMARK    1  A    between atoms: C2_2  and  C3_3 
REMARK    2  A    between atoms: C6_6  and  C7_7 
REMARK       I    between atoms: C7_7  and  N1_9 
REMARK    3  A    between atoms: N1_9  and  N2_10 
REMARK    4  A    between atoms: N2_10  and  C8_11 
REMARK    5  A    between atoms: C8_11  and  C9_12 
ROOT
HETATM    1  C7  UNL     1      26.073   5.124  49.326  1.00  0.00     0.265 C 
HETATM    2  O1  UNL     1      24.865   5.229  49.017  1.00  0.00    -0.266 OA
HETATM    3  N1  UNL     1      26.513   4.277  50.376  1.00  0.00    -0.287 N 
HETATM    4  H8  UNL     1      27.510   4.163  50.663  1.00  0.00     0.184 HD
ENDROOT
BRANCH   3   5
HETATM    5  N2  UNL     1      25.756   3.443  51.227  1.00  0.00    -0.237 NA
HETATM    6  H9  UNL     1      24.774   3.478  50.946  1.00  0.00     0.146 HD
BRANCH   5   7
HETATM    7  C8  UNL     1      26.351   2.136  51.191  1.00  0.00     0.123 C 
BRANCH   7   8
HETATM    8  C9  UNL     1      26.612   1.557  52.553  1.00  0.00    -0.010 A 
HETATM    9  C10 UNL     1      25.485   1.941  53.527  1.00  0.00     0.021 C 
HETATM   10  C11 UNL     1      26.691   0.100  52.571  1.00  0.00    -0.014 A 
HETATM   11  C12 UNL     1      27.561  -0.835  52.916  1.00  0.00     0.020 A 
HETATM   12  C13 UNL     1      28.806  -0.276  53.424  1.00  0.00     0.030 A 
HETATM   13 CL1  UNL     1      30.109  -1.298  53.944  1.00  0.00    -0.085 Cl
HETATM   14  C14 UNL     1      28.825   1.034  53.443  1.00  0.00    -0.002 A 
HETATM   15  C15 UNL     1      27.905   2.126  53.080  1.00  0.00     0.043 A 
ENDBRANCH   7   8
ENDBRANCH   5   7
ENDBRANCH   3   5
BRANCH   1  16
HETATM   16  C6  UNL     1      27.033   5.900  48.574  1.00  0.00     0.033 A 
HETATM   17  C5  UNL     1      28.327   5.407  48.471  1.00  0.00     0.017 A 
HETATM   18  C4  UNL     1      29.318   6.090  47.764  1.00  0.00     0.008 A 
HETATM   19  C3  UNL     1      29.013   7.300  47.139  1.00  0.00    -0.059 A 
HETATM   20  C17 UNL     1      27.730   7.803  47.232  1.00  0.00     0.008 A 
HETATM   21  C16 UNL     1      26.783   7.089  47.945  1.00  0.00     0.017 A 
BRANCH  19  22
HETATM   22  C2  UNL     1      30.007   8.096  46.363  1.00  0.00     0.034 C 
HETATM   23  C1  UNL     1      31.335   7.381  46.368  1.00  0.00     0.010 C 
ENDBRANCH  19  22
ENDBRANCH   1  16
TORSDOF 5
ENDMDL
MODEL 4
REMARK VINA RESULT:      -7.8      4.036      7.273
REMARK  5 active torsions:
REMARK  status: ('A' for Active; 'I' for Inactive)
REMARK    1  A    between atoms: C2_2  and  C3_3 
REMARK    2  A    between atoms: C6_6  and  C7_7 
REMARK       I    between atoms: C7_7  and  N1_9 
REMARK    3  A    between atoms: N1_9  and  N2_10 
REMARK    4  A    between atoms: N2_10  and  C8_11 
REMARK    5  A    between atoms: C8_11  and  C9_12 
ROOT
HETATM    1  C7  UNL     1      23.011  -1.073  54.603  1.00  0.00     0.265 C 
HETATM    2  O1  UNL     1      22.691  -1.716  55.628  1.00  0.00    -0.266 OA
HETATM    3  N1  UNL     1      24.357  -0.724  54.320  1.00  0.00    -0.287 N 
HETATM    4  H8  UNL     1      24.662  -0.190  53.477  1.00  0.00     0.184 HD
ENDROOT
BRANCH   3   5
HETATM    5  N2  UNL     1      25.525  -0.998  55.063  1.00  0.00    -0.237 NA
HETATM    6  H9  UNL     1      25.911  -1.896  54.764  1.00  0.00     0.146 HD
BRANCH   5   7
HETATM    7  C8  UNL     1      26.408   0.124  54.908  1.00  0.00     0.123 C 
BRANCH   7   8
HETATM    8  C9  UNL     1      27.043   0.208  53.549  1.00  0.00    -0.010 A 
HETATM    9  C10 UNL     1      27.854  -1.067  53.254  1.00  0.00     0.021 C 
HETATM   10  C11 UNL     1      26.088   0.346  52.456  1.00  0.00    -0.014 A 
HETATM   11  C12 UNL     1      25.829   1.197  51.476  1.00  0.00     0.020 A 
HETATM   12  C13 UNL     1      26.746   2.328  51.464  1.00  0.00     0.030 A 
HETATM   13 CL1  UNL     1      26.616   3.584  50.273  1.00  0.00    -0.085 Cl
HETATM   14  C14 UNL     1      27.644   2.286  52.417  1.00  0.00    -0.002 A 
HETATM   15  C15 UNL     1      27.988   1.383  53.529  1.00  0.00     0.043 A 
ENDBRANCH   7   8
ENDBRANCH   5   7
ENDBRANCH   3   5
BRANCH   1  16
HETATM   16  C6  UNL     1      21.958  -0.686  53.692  1.00  0.00     0.033 A 
HETATM   17  C5  UNL     1      20.647  -0.946  54.068  1.00  0.00     0.017 A 
HETATM   18  C4  UNL     1      19.567  -0.605  53.251  1.00  0.00     0.008 A 
HETATM   19  C3  UNL     1      19.799   0.013  52.021  1.00  0.00    -0.059 A 
HETATM   20  C17 UNL     1      21.097   0.279  51.633  1.00  0.00     0.008 A 
HETATM   21  C16 UNL     1      22.133  -0.078  52.479  1.00  0.00     0.017 A 
BRANCH  19  22
HETATM   22  C2  UNL     1      18.708   0.411  51.085  1.00  0.00     0.034 C 
HETATM   23  C1  UNL     1      17.421  -0.256  51.503  1.00  0.00     0.010 C 
ENDBRANCH  19  22
ENDBRANCH   1  16
TORSDOF 5
ENDMDL
MODEL 5
REMARK VINA RESULT:      -7.7      2.372      3.198
REMARK  5 active torsions:
REMARK  status: ('A' for Active; 'I' for Inactive)
REMARK    1  A    between atoms: C2_2  and  C3_3 
REMARK    2  A    between atoms: C6_6  and  C7_7 
REMARK       I    between atoms: C7_7  and  N1_9 
REMARK    3  A    between atoms: N1_9  and  N2_10 
REMARK    4  A    between atoms: N2_10  and  C8_11 
REMARK    5  A    between atoms: C8_11  and  C9_12 
ROOT
HETATM    1  C7  UNL     1      25.147   4.095  50.088  1.00  0.00     0.265 C 
HETATM    2  O1  UNL     1      24.385   3.348  49.434  1.00  0.00    -0.266 OA
HETATM    3  N1  UNL     1      25.080   4.190  51.502  1.00  0.00    -0.287 N 
HETATM    4  H8  UNL     1      25.698   4.800  52.082  1.00  0.00     0.184 HD
ENDROOT
BRANCH   3   5
HETATM    5  N2  UNL     1      24.218   3.526  52.402  1.00  0.00    -0.237 NA
HETATM    6  H9  UNL     1      23.445   3.107  51.881  1.00  0.00     0.146 HD
BRANCH   5   7
HETATM    7  C8  UNL     1      25.013   2.601  53.159  1.00  0.00     0.123 C 
BRANCH   7   8
HETATM    8  C9  UNL     1      24.825   1.168  52.747  1.00  0.00    -0.010 A 
HETATM    9  C10 UNL     1      25.942   0.735  51.781  1.00  0.00     0.021 C 
HETATM   10  C11 UNL     1      24.856   0.223  53.858  1.00  0.00    -0.014 A 
HETATM   11  C12 UNL     1      24.065  -0.691  54.395  1.00  0.00     0.020 A 
HETATM   12  C13 UNL     1      22.793  -0.807  53.695  1.00  0.00     0.030 A 
HETATM   13 CL1  UNL     1      21.581  -1.940  54.205  1.00  0.00    -0.085 Cl
HETATM   14  C14 UNL     1      22.677   0.009  52.677  1.00  0.00    -0.002 A 
HETATM   15  C15 UNL     1      23.505   1.042  52.030  1.00  0.00     0.043 A 
ENDBRANCH   7   8
ENDBRANCH   5   7
ENDBRANCH   3   5
BRANCH   1  16
HETATM   16  C6  UNL     1      26.120   4.874  49.358  1.00  0.00     0.033 A 
HETATM   17  C5  UNL     1      25.753   6.147  48.943  1.00  0.00     0.017 A 
HETATM   18  C4  UNL     1      26.629   6.970  48.233  1.00  0.00     0.008 A 
HETATM   19  C3  UNL     1      27.911   6.513  47.926  1.00  0.00    -0.059 A 
HETATM   20  C17 UNL     1      28.292   5.249  48.332  1.00  0.00     0.008 A 
HETATM   21  C16 UNL     1      27.387   4.472  49.033  1.00  0.00     0.017 A 
BRANCH  19  22
HETATM   22  C2  UNL     1      28.912   7.322  47.172  1.00  0.00     0.034 C 
HETATM   23  C1  UNL     1      29.222   8.580  47.944  1.00  0.00     0.010 C 
ENDBRANCH  19  22
ENDBRANCH   1  16
TORSDOF 5
ENDMDL
MODEL 6
REMARK VINA RESULT:      -7.7      1.486      2.139
REMARK  5 active torsions:
REMARK  status: ('A' for Active; 'I' for Inactive)
REMARK    1  A    between atoms: C2_2  and  C3_3 
REMARK    2  A    between atoms: C6_6  and  C7_7 
REMARK       I    between atoms: C7_7  and  N1_9 
REMARK    3  A    between atoms: N1_9  and  N2_10 
REMARK    4  A    between atoms: N2_10  and  C8_11 
REMARK    5  A    between atoms: C8_11  and  C9_12 
ROOT
HETATM    1  C7  UNL     1      24.800   4.823  49.679  1.00  0.00     0.265 C 
HETATM    2  O1  UNL     1      23.905   4.425  48.900  1.00  0.00    -0.266 OA
HETATM    3  N1  UNL     1      24.668   4.735  51.089  1.00  0.00    -0.287 N 
HETATM    4  H8  UNL     1      25.391   5.054  51.770  1.00  0.00     0.184 HD
ENDROOT
BRANCH   3   5
HETATM    5  N2  UNL     1      23.596   4.227  51.855  1.00  0.00    -0.237 NA
HETATM    6  H9  UNL     1      22.865   3.887  51.228  1.00  0.00     0.146 HD
BRANCH   5   7
HETATM    7  C8  UNL     1      24.134   3.242  52.750  1.00  0.00     0.123 C 
BRANCH   7   8
HETATM    8  C9  UNL     1      24.275   1.879  52.132  1.00  0.00    -0.010 A 
HETATM    9  C10 UNL     1      23.228   1.681  51.022  1.00  0.00     0.021 C 
HETATM   10  C11 UNL     1      25.575   1.641  51.514  1.00  0.00    -0.014 A 
HETATM   11  C12 UNL     1      26.577   0.784  51.628  1.00  0.00     0.020 A 
HETATM   12  C13 UNL     1      26.339  -0.217  52.659  1.00  0.00     0.030 A 
HETATM   13 CL1  UNL     1      27.505  -1.456  53.001  1.00  0.00    -0.085 Cl
HETATM   14  C14 UNL     1      25.188  -0.079  53.269  1.00  0.00    -0.002 A 
HETATM   15  C15 UNL     1      24.038   0.839  53.197  1.00  0.00     0.043 A 
ENDBRANCH   7   8
ENDBRANCH   5   7
ENDBRANCH   3   5
BRANCH   1  16
HETATM   16  C6  UNL     1      25.999   5.385  49.101  1.00  0.00     0.033 A 
HETATM   17  C5  UNL     1      27.120   4.569  49.009  1.00  0.00     0.017 A 
HETATM   18  C4  UNL     1      28.320   5.028  48.464  1.00  0.00     0.008 A 
HETATM   19  C3  UNL     1      28.409   6.340  47.994  1.00  0.00    -0.059 A 
HETATM   20  C17 UNL     1      27.303   7.163  48.077  1.00  0.00     0.008 A 
HETATM   21  C16 UNL     1      26.137   6.661  48.626  1.00  0.00     0.017 A 
BRANCH  19  22
HETATM   22  C2  UNL     1      29.649   6.914  47.397  1.00  0.00     0.034 C 
HETATM   23  C1  UNL     1      30.808   5.986  47.660  1.00  0.00     0.010 C 
ENDBRANCH  19  22
ENDBRANCH   1  16
TORSDOF 5
ENDMDL
MODEL 7
REMARK VINA RESULT:      -7.6      4.784      6.912
REMARK  5 active torsions:
REMARK  status: ('A' for Active; 'I' for Inactive)
REMARK    1  A    between atoms: C2_2  and  C3_3 
REMARK    2  A    between atoms: C6_6  and  C7_7 
REMARK       I    between atoms: C7_7  and  N1_9 
REMARK    3  A    between atoms: N1_9  and  N2_10 
REMARK    4  A    between atoms: N2_10  and  C8_11 
REMARK    5  A    between atoms: C8_11  and  C9_12 
ROOT
HETATM    1  C7  UNL     1      24.501   1.839  52.448  1.00  0.00     0.265 C 
HETATM    2  O1  UNL     1      23.991   2.581  53.318  1.00  0.00    -0.266 OA
HETATM    3  N1  UNL     1      23.842   1.544  51.227  1.00  0.00    -0.287 N 
HETATM    4  H8  UNL     1      24.234   0.930  50.479  1.00  0.00     0.184 HD
ENDROOT
BRANCH   3   5
HETATM    5  N2  UNL     1      22.582   1.981  50.764  1.00  0.00    -0.237 NA
HETATM    6  H9  UNL     1      22.687   2.378  49.828  1.00  0.00     0.146 HD
BRANCH   5   7
HETATM    7  C8  UNL     1      21.679   0.868  50.854  1.00  0.00     0.123 C 
BRANCH   7   8
HETATM    8  C9  UNL     1      20.628   1.029  51.916  1.00  0.00    -0.010 A 
HETATM    9  C10 UNL     1      20.488   2.509  52.313  1.00  0.00     0.021 C 
HETATM   10  C11 UNL     1      19.300   0.588  51.507  1.00  0.00    -0.014 A 
HETATM   11  C12 UNL     1      18.387  -0.285  51.902  1.00  0.00     0.020 A 
HETATM   12  C13 UNL     1      18.805  -1.031  53.082  1.00  0.00     0.030 A 
HETATM   13 CL1  UNL     1      17.781  -2.236  53.797  1.00  0.00    -0.085 Cl
HETATM   14  C14 UNL     1      19.993  -0.698  53.521  1.00  0.00    -0.002 A 
HETATM   15  C15 UNL     1      21.052   0.252  53.136  1.00  0.00     0.043 A 
ENDBRANCH   7   8
ENDBRANCH   5   7
ENDBRANCH   3   5
BRANCH   1  16
HETATM   16  C6  UNL     1      25.804   1.276  52.720  1.00  0.00     0.033 A 
HETATM   17  C5  UNL     1      26.770   2.110  53.267  1.00  0.00     0.017 A 
HETATM   18  C4  UNL     1      28.054   1.652  53.562  1.00  0.00     0.008 A 
HETATM   19  C3  UNL     1      28.391   0.321  53.305  1.00  0.00    -0.059 A 
HETATM   20  C17 UNL     1      27.441  -0.521  52.761  1.00  0.00     0.008 A 
HETATM   21  C16 UNL     1      26.181  -0.018  52.486  1.00  0.00     0.017 A 
BRANCH  19  22
HETATM   22  C2  UNL     1      29.737  -0.254  53.588  1.00  0.00     0.034 C 
HETATM   23  C1  UNL     1      29.667  -1.758  53.501  1.00  0.00     0.010 C 
ENDBRANCH  19  22
ENDBRANCH   1  16
TORSDOF 5
ENDMDL
MODEL 8
REMARK VINA RESULT:      -7.6      4.380      7.651
REMARK  5 active torsions:
REMARK  status: ('A' for Active; 'I' for Inactive)
REMARK    1  A    between atoms: C2_2  and  C3_3 
REMARK    2  A    between atoms: C6_6  and  C7_7 
REMARK       I    between atoms: C7_7  and  N1_9 
REMARK    3  A    between atoms: N1_9  and  N2_10 
REMARK    4  A    between atoms: N2_10  and  C8_11 
REMARK    5  A    between atoms: C8_11  and  C9_12 
ROOT
HETATM    1  C7  UNL     1      21.872  -0.917  53.942  1.00  0.00     0.265 C 
HETATM    2  O1  UNL     1      21.929  -1.643  54.960  1.00  0.00    -0.266 OA
HETATM    3  N1  UNL     1      23.023  -0.298  53.390  1.00  0.00    -0.287 N 
HETATM    4  H8  UNL     1      23.014   0.313  52.544  1.00  0.00     0.184 HD
ENDROOT
BRANCH   3   5
HETATM    5  N2  UNL     1      24.364  -0.357  53.826  1.00  0.00    -0.237 NA
HETATM    6  H9  UNL     1      24.818  -1.173  53.410  1.00  0.00     0.146 HD
BRANCH   5   7
HETATM    7  C8  UNL     1      24.975   0.904  53.512  1.00  0.00     0.123 C 
BRANCH   7   8
HETATM    8  C9  UNL     1      26.256   0.776  52.737  1.00  0.00    -0.010 A 
HETATM    9  C10 UNL     1      26.159   1.545  51.407  1.00  0.00     0.021 C 
HETATM   10  C11 UNL     1      27.425   1.304  53.431  1.00  0.00    -0.014 A 
HETATM   11  C12 UNL     1      28.602   0.869  53.850  1.00  0.00     0.020 A 
HETATM   12  C13 UNL     1      28.816  -0.539  53.543  1.00  0.00     0.030 A 
HETATM   13 CL1  UNL     1      30.286  -1.347  53.988  1.00  0.00    -0.085 Cl
HETATM   14  C14 UNL     1      27.811  -1.098  52.916  1.00  0.00    -0.002 A 
HETATM   15  C15 UNL     1      26.486  -0.681  52.424  1.00  0.00     0.043 A 
ENDBRANCH   7   8
ENDBRANCH   5   7
ENDBRANCH   3   5
BRANCH   1  16
HETATM   16  C6  UNL     1      20.580  -0.719  53.325  1.00  0.00     0.033 A 
HETATM   17  C5  UNL     1      19.525  -1.510  53.760  1.00  0.00     0.017 A 
HETATM   18  C4  UNL     1      18.243  -1.386  53.222  1.00  0.00     0.008 A 
HETATM   19  C3  UNL     1      18.002  -0.447  52.218  1.00  0.00    -0.059 A 
HETATM   20  C17 UNL     1      19.041   0.348  51.775  1.00  0.00     0.008 A 
HETATM   21  C16 UNL     1      20.293   0.187  52.341  1.00  0.00     0.017 A 
BRANCH  19  22
HETATM   22  C2  UNL     1      16.666  -0.246  51.586  1.00  0.00     0.034 C 
HETATM   23  C1  UNL     1      16.794  -0.387  50.090  1.00  0.00     0.010 C 
ENDBRANCH  19  22
ENDBRANCH   1  16
TORSDOF 5
ENDMDL
MODEL 9
REMARK VINA RESULT:      -7.6      4.281      6.371
REMARK  5 active torsions:
REMARK  status: ('A' for Active; 'I' for Inactive)
REMARK    1  A    between atoms: C2_2  and  C3_3 
REMARK    2  A    between atoms: C6_6  and  C7_7 
REMARK       I    between atoms: C7_7  and  N1_9 
REMARK    3  A    between atoms: N1_9  and  N2_10 
REMARK    4  A    between atoms: N2_10  and  C8_11 
REMARK    5  A    between atoms: C8_11  and  C9_12 
ROOT
HETATM    1  C7  UNL     1      24.960   2.415  52.459  1.00  0.00     0.265 C 
HETATM    2  O1  UNL     1      24.367   2.966  53.414  1.00  0.00    -0.266 OA
HETATM    3  N1  UNL     1      24.526   2.560  51.116  1.00  0.00    -0.287 N 
HETATM    4  H8  UNL     1      24.994   2.117  50.295  1.00  0.00     0.184 HD
ENDROOT
BRANCH   3   5
HETATM    5  N2  UNL     1      23.430   3.288  50.605  1.00  0.00    -0.237 NA
HETATM    6  H9  UNL     1      23.768   4.162  50.197  1.00  0.00     0.146 HD
BRANCH   5   7
HETATM    7  C8  UNL     1      22.723   2.427  49.699  1.00  0.00     0.123 C 
BRANCH   7   8
HETATM    8  C9  UNL     1      21.525   1.760  50.313  1.00  0.00    -0.010 A 
HETATM    9  C10 UNL     1      20.466   1.461  49.239  1.00  0.00     0.021 C 
HETATM   10  C11 UNL     1      21.823   0.487  50.960  1.00  0.00    -0.014 A 
HETATM   11  C12 UNL     1      21.709  -0.059  52.160  1.00  0.00     0.020 A 
HETATM   12  C13 UNL     1      21.121   0.853  53.132  1.00  0.00     0.030 A 
HETATM   13 CL1  UNL     1      20.864   0.373  54.780  1.00  0.00    -0.085 Cl
HETATM   14  C14 UNL     1      20.820   2.027  52.636  1.00  0.00    -0.002 A 
HETATM   15  C15 UNL     1      20.918   2.696  51.327  1.00  0.00     0.043 A 
ENDBRANCH   7   8
ENDBRANCH   5   7
ENDBRANCH   3   5
BRANCH   1  16
HETATM   16  C6  UNL     1      26.123   1.612  52.759  1.00  0.00     0.033 A 
HETATM   17  C5  UNL     1      26.112   0.281  52.364  1.00  0.00     0.017 A 
HETATM   18  C4  UNL     1      27.192  -0.568  52.612  1.00  0.00     0.008 A 
HETATM   19  C3  UNL     1      28.319  -0.078  53.274  1.00  0.00    -0.059 A 
HETATM   20  C17 UNL     1      28.346   1.244  53.672  1.00  0.00     0.008 A 
HETATM   21  C16 UNL     1      27.250   2.045  53.403  1.00  0.00     0.017 A 
BRANCH  19  22
HETATM   22  C2  UNL     1      29.517  -0.912  53.580  1.00  0.00     0.034 C 
HETATM   23  C1  UNL     1      29.221  -2.354  53.254  1.00  0.00     0.010 C 
ENDBRANCH  19  22
ENDBRANCH   1  16
TORSDOF 5
ENDMDL
