MODEL 1
REMARK VINA RESULT:      -8.5      0.000      0.000
REMARK  5 active torsions:
REMARK  status: ('A' for Active; 'I' for Inactive)
REMARK    1  A    between atoms: N1_1  and  C1_2 
REMARK    2  A    between atoms: C4_7  and  C5_8 
REMARK    3  A    between atoms: C9_12  and  O1_13 
REMARK    4  A    between atoms: O1_13  and  C10_14 
REMARK    5  A    between atoms: C10_14  and  C11_15 
ROOT
HETATM    1  C5  UNL     1      22.586   0.636  53.095  1.00  0.00    -0.024 A 
HETATM    2  C6  UNL     1      21.580   0.147  53.903  1.00  0.00     0.012 A 
HETATM    3  C7  UNL     1      21.868  -0.794  54.898  1.00  0.00     0.004 A 
HETATM    4  C8  UNL     1      23.137  -1.268  55.117  1.00  0.00     0.037 A 
HETATM    5  C9  UNL     1      24.136  -0.776  54.308  1.00  0.00     0.069 A 
HETATM    6  C17 UNL     1      23.831   0.150  53.334  1.00  0.00     0.048 A 
ENDROOT
BRANCH   1   7
HETATM    7  C4  UNL     1      22.225   1.615  52.075  1.00  0.00    -0.006 A 
HETATM    8  C3  UNL     1      21.503   1.484  50.972  1.00  0.00     0.074 A 
HETATM    9  N3  UNL     1      21.783   2.868  50.805  1.00  0.00    -0.237 NA
HETATM   10  C2  UNL     1      22.316   4.079  51.122  1.00  0.00     0.183 A 
HETATM   11  C18 UNL     1      22.544   2.996  51.960  1.00  0.00     0.143 A 
HETATM   12  N2  UNL     1      23.025   4.898  51.762  1.00  0.00    -0.259 NA
HETATM   13  C1  UNL     1      23.469   3.810  52.591  1.00  0.00     0.368 C 
BRANCH  13  14
HETATM   14  N1  UNL     1      24.913   3.532  52.450  1.00  0.00     0.105 N 
HETATM   15  H1  UNL     1      25.200   4.029  51.579  1.00  0.00     0.315 HD
HETATM   16  H2  UNL     1      25.445   3.913  53.271  1.00  0.00     0.315 HD
ENDBRANCH  13  14
ENDBRANCH   1   7
BRANCH   5  17
HETATM   17  O1  UNL     1      25.459  -1.198  54.454  1.00  0.00    -0.348 OA
BRANCH  17  18
HETATM   18  C10 UNL     1      26.274  -1.270  53.311  1.00  0.00     0.213 C 
BRANCH  18  19
HETATM   19  C11 UNL     1      27.550  -0.492  53.458  1.00  0.00     0.083 C 
HETATM   20  C12 UNL     1      28.780  -1.252  53.082  1.00  0.00     0.043 C 
HETATM   21  C13 UNL     1      29.851  -0.519  53.901  1.00  0.00     0.035 C 
HETATM   22  C14 UNL     1      29.031   0.542  54.577  1.00  0.00     0.122 C 
HETATM   23  C15 UNL     1      28.622   1.575  53.576  1.00  0.00     0.035 C 
HETATM   24  O2  UNL     1      27.812  -0.143  54.780  1.00  0.00    -0.373 OA
HETATM   25  C16 UNL     1      27.512   0.848  52.805  1.00  0.00     0.043 C 
ENDBRANCH  18  19
ENDBRANCH  17  18
ENDBRANCH   5  17
TORSDOF 5
ENDMDL
MODEL 2
REMARK VINA RESULT:      -8.5      3.876      6.518
REMARK  5 active torsions:
REMARK  status: ('A' for Active; 'I' for Inactive)
REMARK    1  A    between atoms: N1_1  and  C1_2 
REMARK    2  A    between atoms: C4_7  and  C5_8 
REMARK    3  A    between atoms: C9_12  and  O1_13 
REMARK    4  A    between atoms: O1_13  and  C10_14 
REMARK    5  A    between atoms: C10_14  and  C11_15 
ROOT
HETATM    1  C5  UNL     1      25.818  -0.222  52.737  1.00  0.00    -0.024 A 
HETATM    2  C6  UNL     1      24.681  -0.595  53.424  1.00  0.00     0.012 A 
HETATM    3  C7  UNL     1      23.514   0.172  53.328  1.00  0.00     0.004 A 
HETATM    4  C8  UNL     1      23.442   1.307  52.562  1.00  0.00     0.037 A 
HETATM    5  C9  UNL     1      24.579   1.674  51.879  1.00  0.00     0.069 A 
HETATM    6  C17 UNL     1      25.718   0.905  51.988  1.00  0.00     0.048 A 
ENDROOT
BRANCH   1   7
HETATM    7  C4  UNL     1      27.003  -1.061  52.876  1.00  0.00    -0.006 A 
HETATM    8  C3  UNL     1      27.153  -2.371  52.740  1.00  0.00     0.074 A 
HETATM    9  N3  UNL     1      28.512  -2.096  53.057  1.00  0.00    -0.237 NA
HETATM   10  C2  UNL     1      29.585  -1.324  53.379  1.00  0.00     0.183 A 
HETATM   11  C18 UNL     1      28.345  -0.725  53.205  1.00  0.00     0.143 A 
HETATM   12  N2  UNL     1      30.197  -0.277  53.713  1.00  0.00    -0.259 NA
HETATM   13  C1  UNL     1      28.934   0.410  53.735  1.00  0.00     0.368 C 
BRANCH  13  14
HETATM   14  N1  UNL     1      28.556   0.875  55.085  1.00  0.00     0.105 N 
HETATM   15  H1  UNL     1      28.651   0.035  55.696  1.00  0.00     0.315 HD
HETATM   16  H2  UNL     1      29.207   1.631  55.412  1.00  0.00     0.315 HD
ENDBRANCH  13  14
ENDBRANCH   1   7
BRANCH   5  17
HETATM   17  O1  UNL     1      24.604   2.815  51.073  1.00  0.00    -0.348 OA
BRANCH  17  18
HETATM   18  C10 UNL     1      25.849   3.338  50.684  1.00  0.00     0.213 C 
BRANCH  18  19
HETATM   19  C11 UNL     1      25.720   4.499  49.740  1.00  0.00     0.083 C 
HETATM   20  C12 UNL     1      26.928   4.740  48.894  1.00  0.00     0.043 C 
HETATM   21  C13 UNL     1      26.778   6.233  48.571  1.00  0.00     0.035 C 
HETATM   22  C14 UNL     1      25.494   6.560  49.278  1.00  0.00     0.122 C 
HETATM   23  C15 UNL     1      24.345   5.951  48.541  1.00  0.00     0.035 C 
HETATM   24  O2  UNL     1      25.580   5.714  50.405  1.00  0.00    -0.373 OA
HETATM   25  C16 UNL     1      24.475   4.469  48.922  1.00  0.00     0.043 C 
ENDBRANCH  18  19
ENDBRANCH  17  18
ENDBRANCH   5  17
TORSDOF 5
ENDMDL
MODEL 3
REMARK VINA RESULT:      -8.3      1.621      2.073
REMARK  5 active torsions:
REMARK  status: ('A' for Active; 'I' for Inactive)
REMARK    1  A    between atoms: N1_1  and  C1_2 
REMARK    2  A    between atoms: C4_7  and  C5_8 
REMARK    3  A    between atoms: C9_12  and  O1_13 
REMARK    4  A    between atoms: O1_13  and  C10_14 
REMARK    5  A    between atoms: C10_14  and  C11_15 
ROOT
HETATM    1  C5  UNL     1      21.400   0.099  53.196  1.00  0.00    -0.024 A 
HETATM    2  C6  UNL     1      21.235  -0.549  54.403  1.00  0.00     0.012 A 
HETATM    3  C7  UNL     1      22.344  -1.062  55.086  1.00  0.00     0.004 A 
HETATM    4  C8  UNL     1      23.622  -0.949  54.602  1.00  0.00     0.037 A 
HETATM    5  C9  UNL     1      23.780  -0.301  53.398  1.00  0.00     0.069 A 
HETATM    6  C17 UNL     1      22.675   0.196  52.742  1.00  0.00     0.048 A 
ENDROOT
BRANCH   1   7
HETATM    7  C4  UNL     1      20.207   0.613  52.532  1.00  0.00    -0.006 A 
HETATM    8  C3  UNL     1      19.184  -0.027  51.983  1.00  0.00     0.074 A 
HETATM    9  N3  UNL     1      18.713   1.285  51.699  1.00  0.00    -0.237 NA
HETATM   10  C2  UNL     1      18.742   2.645  51.688  1.00  0.00     0.183 A 
HETATM   11  C18 UNL     1      19.792   1.947  52.270  1.00  0.00     0.143 A 
HETATM   12  N2  UNL     1      19.232   3.792  51.855  1.00  0.00    -0.259 NA
HETATM   13  C1  UNL     1      20.443   3.167  52.314  1.00  0.00     0.368 C 
BRANCH  13  14
HETATM   14  N1  UNL     1      21.594   3.421  51.423  1.00  0.00     0.105 N 
HETATM   15  H1  UNL     1      21.463   2.768  50.620  1.00  0.00     0.315 HD
HETATM   16  H2  UNL     1      21.586   4.413  51.081  1.00  0.00     0.315 HD
ENDBRANCH  13  14
ENDBRANCH   1   7
BRANCH   5  17
HETATM   17  O1  UNL     1      25.043  -0.136  52.824  1.00  0.00    -0.348 OA
BRANCH  17  18
HETATM   18  C10 UNL     1      26.050  -1.067  53.132  1.00  0.00     0.213 C 
BRANCH  18  19
HETATM   19  C11 UNL     1      27.371  -0.416  53.425  1.00  0.00     0.083 C 
HETATM   20  C12 UNL     1      28.559  -1.249  53.070  1.00  0.00     0.043 C 
HETATM   21  C13 UNL     1      29.624  -0.677  54.014  1.00  0.00     0.035 C 
HETATM   22  C14 UNL     1      28.847   0.397  54.719  1.00  0.00     0.122 C 
HETATM   23  C15 UNL     1      28.597   1.535  53.781  1.00  0.00     0.035 C 
HETATM   24  O2  UNL     1      27.565  -0.192  54.785  1.00  0.00    -0.373 OA
HETATM   25  C16 UNL     1      27.490   0.967  52.882  1.00  0.00     0.043 C 
ENDBRANCH  18  19
ENDBRANCH  17  18
ENDBRANCH   5  17
TORSDOF 5
ENDMDL
MODEL 4
REMARK VINA RESULT:      -8.2      3.335      7.146
REMARK  5 active torsions:
REMARK  status: ('A' for Active; 'I' for Inactive)
REMARK    1  A    between atoms: N1_1  and  C1_2 
REMARK    2  A    between atoms: C4_7  and  C5_8 
REMARK    3  A    between atoms: C9_12  and  O1_13 
REMARK    4  A    between atoms: O1_13  and  C10_14 
REMARK    5  A    between atoms: C10_14  and  C11_15 
ROOT
HETATM    1  C5  UNL     1      26.119   0.420  52.365  1.00  0.00    -0.024 A 
HETATM    2  C6  UNL     1      26.599   1.401  51.522  1.00  0.00     0.012 A 
HETATM    3  C7  UNL     1      25.807   2.512  51.208  1.00  0.00     0.004 A 
HETATM    4  C8  UNL     1      24.541   2.678  51.710  1.00  0.00     0.037 A 
HETATM    5  C9  UNL     1      24.068   1.696  52.550  1.00  0.00     0.069 A 
HETATM    6  C17 UNL     1      24.864   0.610  52.846  1.00  0.00     0.048 A 
ENDROOT
BRANCH   1   7
HETATM    7  C4  UNL     1      26.990  -0.713  52.656  1.00  0.00    -0.006 A 
HETATM    8  C3  UNL     1      26.771  -2.017  52.557  1.00  0.00     0.074 A 
HETATM    9  N3  UNL     1      28.108  -2.124  53.030  1.00  0.00    -0.237 NA
HETATM   10  C2  UNL     1      29.316  -1.674  53.465  1.00  0.00     0.183 A 
HETATM   11  C18 UNL     1      28.328  -0.756  53.137  1.00  0.00     0.143 A 
HETATM   12  N2  UNL     1      30.163  -0.829  53.853  1.00  0.00    -0.259 NA
HETATM   13  C1  UNL     1      29.157   0.189  53.715  1.00  0.00     0.368 C 
BRANCH  13  14
HETATM   14  N1  UNL     1      28.783   0.806  55.005  1.00  0.00     0.105 N 
HETATM   15  H1  UNL     1      29.359   1.674  55.065  1.00  0.00     0.315 HD
HETATM   16  H2  UNL     1      27.763   1.053  55.015  1.00  0.00     0.315 HD
ENDBRANCH  13  14
ENDBRANCH   1   7
BRANCH   5  17
HETATM   17  O1  UNL     1      22.791   1.776  53.111  1.00  0.00    -0.348 OA
BRANCH  17  18
HETATM   18  C10 UNL     1      22.066   0.588  53.309  1.00  0.00     0.213 C 
BRANCH  18  19
HETATM   19  C11 UNL     1      20.850   0.498  52.432  1.00  0.00     0.083 C 
HETATM   20  C12 UNL     1      21.151   0.327  50.979  1.00  0.00     0.043 C 
HETATM   21  C13 UNL     1      19.879   0.898  50.337  1.00  0.00     0.035 C 
HETATM   22  C14 UNL     1      19.077   1.270  51.551  1.00  0.00     0.122 C 
HETATM   23  C15 UNL     1      18.576   0.030  52.220  1.00  0.00     0.035 C 
HETATM   24  O2  UNL     1      20.098   1.670  52.441  1.00  0.00    -0.373 OA
HETATM   25  C16 UNL     1      19.845  -0.496  52.905  1.00  0.00     0.043 C 
ENDBRANCH  18  19
ENDBRANCH  17  18
ENDBRANCH   5  17
TORSDOF 5
ENDMDL
MODEL 5
REMARK VINA RESULT:      -7.9      1.370      1.661
REMARK  5 active torsions:
REMARK  status: ('A' for Active; 'I' for Inactive)
REMARK    1  A    between atoms: N1_1  and  C1_2 
REMARK    2  A    between atoms: C4_7  and  C5_8 
REMARK    3  A    between atoms: C9_12  and  O1_13 
REMARK    4  A    between atoms: O1_13  and  C10_14 
REMARK    5  A    between atoms: C10_14  and  C11_15 
ROOT
HETATM    1  C5  UNL     1      22.758   1.325  51.287  1.00  0.00    -0.024 A 
HETATM    2  C6  UNL     1      21.599   0.636  51.578  1.00  0.00     0.012 A 
HETATM    3  C7  UNL     1      21.552  -0.237  52.672  1.00  0.00     0.004 A 
HETATM    4  C8  UNL     1      22.631  -0.446  53.492  1.00  0.00     0.037 A 
HETATM    5  C9  UNL     1      23.784   0.244  53.196  1.00  0.00     0.069 A 
HETATM    6  C17 UNL     1      23.810   1.098  52.115  1.00  0.00     0.048 A 
ENDROOT
BRANCH   1   7
HETATM    7  C4  UNL     1      22.746   2.220  50.135  1.00  0.00    -0.006 A 
HETATM    8  C3  UNL     1      22.298   2.031  48.902  1.00  0.00     0.074 A 
HETATM    9  N3  UNL     1      22.743   3.366  48.698  1.00  0.00    -0.237 NA
HETATM   10  C2  UNL     1      23.301   4.560  49.038  1.00  0.00     0.183 A 
HETATM   11  C18 UNL     1      23.217   3.554  49.991  1.00  0.00     0.143 A 
HETATM   12  N2  UNL     1      23.914   5.384  49.764  1.00  0.00    -0.259 NA
HETATM   13  C1  UNL     1      24.040   4.356  50.761  1.00  0.00     0.368 C 
BRANCH  13  14
HETATM   14  N1  UNL     1      25.443   3.957  51.001  1.00  0.00     0.105 N 
HETATM   15  H1  UNL     1      26.008   4.558  50.363  1.00  0.00     0.315 HD
HETATM   16  H2  UNL     1      25.714   4.141  51.998  1.00  0.00     0.315 HD
ENDBRANCH  13  14
ENDBRANCH   1   7
BRANCH   5  17
HETATM   17  O1  UNL     1      24.936   0.097  53.973  1.00  0.00    -0.348 OA
BRANCH  17  18
HETATM   18  C10 UNL     1      25.866  -0.896  53.619  1.00  0.00     0.213 C 
BRANCH  18  19
HETATM   19  C11 UNL     1      27.278  -0.386  53.594  1.00  0.00     0.083 C 
HETATM   20  C12 UNL     1      28.269  -1.347  53.024  1.00  0.00     0.043 C 
HETATM   21  C13 UNL     1      29.567  -0.876  53.692  1.00  0.00     0.035 C 
HETATM   22  C14 UNL     1      29.076   0.286  54.506  1.00  0.00     0.122 C 
HETATM   23  C15 UNL     1      28.743   1.428  53.600  1.00  0.00     0.035 C 
HETATM   24  O2  UNL     1      27.787  -0.162  54.871  1.00  0.00    -0.373 OA
HETATM   25  C16 UNL     1      27.414   0.968  52.985  1.00  0.00     0.043 C 
ENDBRANCH  18  19
ENDBRANCH  17  18
ENDBRANCH   5  17
TORSDOF 5
ENDMDL
MODEL 6
REMARK VINA RESULT:      -7.9      3.524      6.083
REMARK  5 active torsions:
REMARK  status: ('A' for Active; 'I' for Inactive)
REMARK    1  A    between atoms: N1_1  and  C1_2 
REMARK    2  A    between atoms: C4_7  and  C5_8 
REMARK    3  A    between atoms: C9_12  and  O1_13 
REMARK    4  A    between atoms: O1_13  and  C10_14 
REMARK    5  A    between atoms: C10_14  and  C11_15 
ROOT
HETATM    1  C5  UNL     1      24.828   0.507  53.282  1.00  0.00    -0.024 A 
HETATM    2  C6  UNL     1      23.625  -0.106  53.568  1.00  0.00     0.012 A 
HETATM    3  C7  UNL     1      22.491   0.169  52.795  1.00  0.00     0.004 A 
HETATM    4  C8  UNL     1      22.517   1.042  51.737  1.00  0.00     0.037 A 
HETATM    5  C9  UNL     1      23.719   1.650  51.457  1.00  0.00     0.069 A 
HETATM    6  C17 UNL     1      24.824   1.365  52.230  1.00  0.00     0.048 A 
ENDROOT
BRANCH   1   7
HETATM    7  C4  UNL     1      25.975   0.180  54.123  1.00  0.00    -0.006 A 
HETATM    8  C3  UNL     1      26.036  -0.428  55.299  1.00  0.00     0.074 A 
HETATM    9  N3  UNL     1      27.436  -0.220  55.163  1.00  0.00    -0.237 NA
HETATM   10  C2  UNL     1      28.581   0.204  54.563  1.00  0.00     0.183 A 
HETATM   11  C18 UNL     1      27.363   0.422  53.934  1.00  0.00     0.143 A 
HETATM   12  N2  UNL     1      29.285   0.799  53.707  1.00  0.00    -0.259 NA
HETATM   13  C1  UNL     1      28.074   1.232  53.066  1.00  0.00     0.368 C 
BRANCH  13  14
HETATM   14  N1  UNL     1      27.892   2.698  53.110  1.00  0.00     0.105 N 
HETATM   15  H1  UNL     1      26.950   2.866  52.693  1.00  0.00     0.315 HD
HETATM   16  H2  UNL     1      27.911   3.044  54.101  1.00  0.00     0.315 HD
ENDBRANCH  13  14
ENDBRANCH   1   7
BRANCH   5  17
HETATM   17  O1  UNL     1      23.845   2.554  50.400  1.00  0.00    -0.348 OA
BRANCH  17  18
HETATM   18  C10 UNL     1      23.850   3.930  50.686  1.00  0.00     0.213 C 
BRANCH  18  19
HETATM   19  C11 UNL     1      24.751   4.709  49.772  1.00  0.00     0.083 C 
HETATM   20  C12 UNL     1      25.925   3.940  49.263  1.00  0.00     0.043 C 
HETATM   21  C13 UNL     1      26.917   5.069  48.953  1.00  0.00     0.035 C 
HETATM   22  C14 UNL     1      26.111   6.280  49.324  1.00  0.00     0.122 C 
HETATM   23  C15 UNL     1      25.038   6.500  48.306  1.00  0.00     0.035 C 
HETATM   24  O2  UNL     1      25.360   5.785  50.414  1.00  0.00    -0.373 OA
HETATM   25  C16 UNL     1      24.028   5.402  48.667  1.00  0.00     0.043 C 
ENDBRANCH  18  19
ENDBRANCH  17  18
ENDBRANCH   5  17
TORSDOF 5
ENDMDL
MODEL 7
REMARK VINA RESULT:      -7.5      3.350      6.226
REMARK  5 active torsions:
REMARK  status: ('A' for Active; 'I' for Inactive)
REMARK    1  A    between atoms: N1_1  and  C1_2 
REMARK    2  A    between atoms: C4_7  and  C5_8 
REMARK    3  A    between atoms: C9_12  and  O1_13 
REMARK    4  A    between atoms: O1_13  and  C10_14 
REMARK    5  A    between atoms: C10_14  and  C11_15 
ROOT
HETATM    1  C5  UNL     1      24.429   0.813  52.654  1.00  0.00    -0.024 A 
HETATM    2  C6  UNL     1      23.434  -0.065  53.032  1.00  0.00     0.012 A 
HETATM    3  C7  UNL     1      22.095   0.343  53.037  1.00  0.00     0.004 A 
HETATM    4  C8  UNL     1      21.712   1.609  52.673  1.00  0.00     0.037 A 
HETATM    5  C9  UNL     1      22.708   2.480  52.297  1.00  0.00     0.069 A 
HETATM    6  C17 UNL     1      24.020   2.058  52.300  1.00  0.00     0.048 A 
ENDROOT
BRANCH   1   7
HETATM    7  C4  UNL     1      25.805   0.330  52.669  1.00  0.00    -0.006 A 
HETATM    8  C3  UNL     1      26.579  -0.100  51.682  1.00  0.00     0.074 A 
HETATM    9  N3  UNL     1      27.540  -0.274  52.716  1.00  0.00    -0.237 NA
HETATM   10  C2  UNL     1      28.024  -0.242  53.986  1.00  0.00     0.183 A 
HETATM   11  C18 UNL     1      26.721   0.171  53.745  1.00  0.00     0.143 A 
HETATM   12  N2  UNL     1      27.982  -0.103  55.236  1.00  0.00    -0.259 NA
HETATM   13  C1  UNL     1      26.575   0.170  55.121  1.00  0.00     0.368 C 
BRANCH  13  14
HETATM   14  N1  UNL     1      25.735  -0.857  55.772  1.00  0.00     0.105 N 
HETATM   15  H1  UNL     1      25.681  -1.638  55.082  1.00  0.00     0.315 HD
HETATM   16  H2  UNL     1      26.183  -1.194  56.659  1.00  0.00     0.315 HD
ENDBRANCH  13  14
ENDBRANCH   1   7
BRANCH   5  17
HETATM   17  O1  UNL     1      22.417   3.790  51.910  1.00  0.00    -0.348 OA
BRANCH  17  18
HETATM   18  C10 UNL     1      23.331   4.808  52.234  1.00  0.00     0.213 C 
BRANCH  18  19
HETATM   19  C11 UNL     1      23.918   5.468  51.020  1.00  0.00     0.083 C 
HETATM   20  C12 UNL     1      23.116   5.285  49.772  1.00  0.00     0.043 C 
HETATM   21  C13 UNL     1      24.192   5.458  48.692  1.00  0.00     0.035 C 
HETATM   22  C14 UNL     1      25.409   5.730  49.529  1.00  0.00     0.122 C 
HETATM   23  C15 UNL     1      25.316   7.101  50.118  1.00  0.00     0.035 C 
HETATM   24  O2  UNL     1      25.149   4.925  50.660  1.00  0.00    -0.373 OA
HETATM   25  C16 UNL     1      24.281   6.898  51.233  1.00  0.00     0.043 C 
ENDBRANCH  18  19
ENDBRANCH  17  18
ENDBRANCH   5  17
TORSDOF 5
ENDMDL
MODEL 8
REMARK VINA RESULT:      -7.5      3.297      5.503
REMARK  5 active torsions:
REMARK  status: ('A' for Active; 'I' for Inactive)
REMARK    1  A    between atoms: N1_1  and  C1_2 
REMARK    2  A    between atoms: C4_7  and  C5_8 
REMARK    3  A    between atoms: C9_12  and  O1_13 
REMARK    4  A    between atoms: O1_13  and  C10_14 
REMARK    5  A    between atoms: C10_14  and  C11_15 
ROOT
HETATM    1  C5  UNL     1      24.249  -0.032  53.247  1.00  0.00    -0.024 A 
HETATM    2  C6  UNL     1      25.292  -0.858  53.612  1.00  0.00     0.012 A 
HETATM    3  C7  UNL     1      26.580  -0.633  53.110  1.00  0.00     0.004 A 
HETATM    4  C8  UNL     1      26.863   0.397  52.249  1.00  0.00     0.037 A 
HETATM    5  C9  UNL     1      25.818   1.217  51.889  1.00  0.00     0.069 A 
HETATM    6  C17 UNL     1      24.559   0.978  52.395  1.00  0.00     0.048 A 
ENDROOT
BRANCH   1   7
HETATM    7  C4  UNL     1      22.930  -0.316  53.803  1.00  0.00    -0.006 A 
HETATM    8  C3  UNL     1      22.570  -1.099  54.810  1.00  0.00     0.074 A 
HETATM    9  N3  UNL     1      21.258  -0.657  54.485  1.00  0.00    -0.237 NA
HETATM   10  C2  UNL     1      20.311   0.035  53.797  1.00  0.00     0.183 A 
HETATM   11  C18 UNL     1      21.643   0.156  53.427  1.00  0.00     0.143 A 
HETATM   12  N2  UNL     1      19.848   0.762  52.880  1.00  0.00    -0.259 NA
HETATM   13  C1  UNL     1      21.165   0.812  52.306  1.00  0.00     0.368 C 
BRANCH  13  14
HETATM   14  N1  UNL     1      21.241   0.160  50.982  1.00  0.00     0.105 N 
HETATM   15  H1  UNL     1      20.250  -0.040  50.723  1.00  0.00     0.315 HD
HETATM   16  H2  UNL     1      21.672   0.806  50.276  1.00  0.00     0.315 HD
ENDBRANCH  13  14
ENDBRANCH   1   7
BRANCH   5  17
HETATM   17  O1  UNL     1      26.008   2.292  51.018  1.00  0.00    -0.348 OA
BRANCH  17  18
HETATM   18  C10 UNL     1      25.157   3.405  51.126  1.00  0.00     0.213 C 
BRANCH  18  19
HETATM   19  C11 UNL     1      25.349   4.392  50.011  1.00  0.00     0.083 C 
HETATM   20  C12 UNL     1      26.630   4.230  49.260  1.00  0.00     0.043 C 
HETATM   21  C13 UNL     1      26.835   5.645  48.702  1.00  0.00     0.035 C 
HETATM   22  C14 UNL     1      25.615   6.348  49.224  1.00  0.00     0.122 C 
HETATM   23  C15 UNL     1      24.408   5.877  48.479  1.00  0.00     0.035 C 
HETATM   24  O2  UNL     1      25.441   5.704  50.469  1.00  0.00    -0.373 OA
HETATM   25  C16 UNL     1      24.181   4.487  49.089  1.00  0.00     0.043 C 
ENDBRANCH  18  19
ENDBRANCH  17  18
ENDBRANCH   5  17
TORSDOF 5
ENDMDL
MODEL 9
REMARK VINA RESULT:      -7.4      2.713      6.220
REMARK  5 active torsions:
REMARK  status: ('A' for Active; 'I' for Inactive)
REMARK    1  A    between atoms: N1_1  and  C1_2 
REMARK    2  A    between atoms: C4_7  and  C5_8 
REMARK    3  A    between atoms: C9_12  and  O1_13 
REMARK    4  A    between atoms: O1_13  and  C10_14 
REMARK    5  A    between atoms: C10_14  and  C11_15 
ROOT
HETATM    1  C5  UNL     1      24.537  -0.002  53.449  1.00  0.00    -0.024 A 
HETATM    2  C6  UNL     1      24.991  -0.725  54.533  1.00  0.00     0.012 A 
HETATM    3  C7  UNL     1      24.081  -1.343  55.400  1.00  0.00     0.004 A 
HETATM    4  C8  UNL     1      22.724  -1.262  55.220  1.00  0.00     0.037 A 
HETATM    5  C9  UNL     1      22.278  -0.539  54.138  1.00  0.00     0.069 A 
HETATM    6  C17 UNL     1      23.190   0.061  53.296  1.00  0.00     0.048 A 
ENDROOT
BRANCH   1   7
HETATM    7  C4  UNL     1      25.533   0.619  52.581  1.00  0.00    -0.006 A 
HETATM    8  C3  UNL     1      26.757   0.228  52.257  1.00  0.00     0.074 A 
HETATM    9  N3  UNL     1      26.769   1.421  51.483  1.00  0.00    -0.237 NA
HETATM   10  C2  UNL     1      26.272   2.579  50.970  1.00  0.00     0.183 A 
HETATM   11  C18 UNL     1      25.487   1.827  51.833  1.00  0.00     0.143 A 
HETATM   12  N2  UNL     1      25.456   3.527  50.833  1.00  0.00    -0.259 NA
HETATM   13  C1  UNL     1      24.640   2.921  51.851  1.00  0.00     0.368 C 
BRANCH  13  14
HETATM   14  N1  UNL     1      24.533   3.750  53.070  1.00  0.00     0.105 N 
HETATM   15  H1  UNL     1      23.539   3.657  53.373  1.00  0.00     0.315 HD
HETATM   16  H2  UNL     1      25.171   3.388  53.821  1.00  0.00     0.315 HD
ENDBRANCH  13  14
ENDBRANCH   1   7
BRANCH   5  17
HETATM   17  O1  UNL     1      20.914  -0.400  53.871  1.00  0.00    -0.348 OA
BRANCH  17  18
HETATM   18  C10 UNL     1      20.443   0.837  53.399  1.00  0.00     0.213 C 
BRANCH  18  19
HETATM   19  C11 UNL     1      19.706   0.717  52.096  1.00  0.00     0.083 C 
HETATM   20  C12 UNL     1      20.589   0.659  50.893  1.00  0.00     0.043 C 
HETATM   21  C13 UNL     1      19.647   1.179  49.799  1.00  0.00     0.035 C 
HETATM   22  C14 UNL     1      18.388   1.416  50.583  1.00  0.00     0.122 C 
HETATM   23  C15 UNL     1      17.770   0.105  50.949  1.00  0.00     0.035 C 
HETATM   24  O2  UNL     1      18.914   1.830  51.826  1.00  0.00    -0.373 OA
HETATM   25  C16 UNL     1      18.689  -0.373  52.082  1.00  0.00     0.043 C 
ENDBRANCH  18  19
ENDBRANCH  17  18
ENDBRANCH   5  17
TORSDOF 5
ENDMDL
