MODEL 1
REMARK VINA RESULT:      -7.7      0.000      0.000
REMARK  3 active torsions:
REMARK  status: ('A' for Active; 'I' for Inactive)
REMARK    1  A    between atoms: N1_7  and  C5_8 
REMARK    2  A    between atoms: C5_8  and  C6_9 
REMARK    3  A    between atoms: N2_11  and  C8_12 
ROOT
HETATM    1  C6  UNL     1      24.746  -0.439  53.413  1.00  0.00    -0.025 A 
HETATM    2  C7  UNL     1      23.501  -0.344  52.958  1.00  0.00     0.100 A 
HETATM    3  N2  UNL     1      22.333  -0.663  53.700  1.00  0.00    -0.353 N 
HETATM    4  C14 UNL     1      22.423  -1.164  55.057  1.00  0.00     0.156 A 
HETATM    5  C15 UNL     1      23.851  -1.219  55.437  1.00  0.00    -0.006 A 
HETATM    6  C16 UNL     1      24.964  -0.923  54.788  1.00  0.00     0.008 A 
ENDROOT
BRANCH   1   7
HETATM    7  C5  UNL     1      25.937  -0.103  52.631  1.00  0.00     0.163 C 
BRANCH   7   8
HETATM    8  N1  UNL     1      27.017   0.483  53.355  1.00  0.00    -0.367 N 
HETATM    9  C1  UNL     1      28.239  -0.116  53.843  1.00  0.00     0.099 C 
HETATM   10  S1  UNL     1      28.523  -1.594  53.158  1.00  0.00    -0.063 SA
HETATM   11  C2  UNL     1      28.967   0.732  54.855  1.00  0.00     0.237 C 
HETATM   12  O1  UNL     1      29.146   2.022  54.427  1.00  0.00    -0.383 OA
HETATM   13  C3  UNL     1      28.266   2.483  53.485  1.00  0.00     0.188 C 
HETATM   14  C4  UNL     1      26.860   1.919  53.648  1.00  0.00     0.150 C 
ENDBRANCH   7   8
ENDBRANCH   1   7
BRANCH   3  15
HETATM   15  C8  UNL     1      21.038  -0.498  53.138  1.00  0.00     0.035 A 
HETATM   16  C9  UNL     1      19.898  -1.048  53.682  1.00  0.00     0.029 A 
HETATM   17  C10 UNL     1      18.612  -0.918  53.180  1.00  0.00     0.004 A 
HETATM   18  C11 UNL     1      18.493  -0.157  52.019  1.00  0.00     0.019 A 
HETATM   19  C12 UNL     1      19.587   0.427  51.414  1.00  0.00     0.013 A 
HETATM   20 BR1  UNL     1      19.343   1.454  49.827  1.00  0.00    -0.051 Br
HETATM   21  C13 UNL     1      20.852   0.246  51.986  1.00  0.00     0.048 A 
ENDBRANCH   3  15
TORSDOF 3
ENDMDL
MODEL 2
REMARK VINA RESULT:      -7.6      1.954      2.709
REMARK  3 active torsions:
REMARK  status: ('A' for Active; 'I' for Inactive)
REMARK    1  A    between atoms: N1_7  and  C5_8 
REMARK    2  A    between atoms: C5_8  and  C6_9 
REMARK    3  A    between atoms: N2_11  and  C8_12 
ROOT
HETATM    1  C6  UNL     1      25.043   1.803  51.796  1.00  0.00    -0.025 A 
HETATM    2  C7  UNL     1      24.076   1.019  52.260  1.00  0.00     0.100 A 
HETATM    3  N2  UNL     1      22.719   1.404  52.423  1.00  0.00    -0.353 N 
HETATM    4  C14 UNL     1      22.279   2.748  52.106  1.00  0.00     0.156 A 
HETATM    5  C15 UNL     1      23.443   3.510  51.603  1.00  0.00    -0.006 A 
HETATM    6  C16 UNL     1      24.713   3.192  51.424  1.00  0.00     0.008 A 
ENDROOT
BRANCH   1   7
HETATM    7  C5  UNL     1      26.437   1.386  51.634  1.00  0.00     0.163 C 
BRANCH   7   8
HETATM    8  N1  UNL     1      27.165   1.151  52.838  1.00  0.00    -0.367 N 
HETATM    9  C1  UNL     1      27.385  -0.081  53.563  1.00  0.00     0.099 C 
HETATM   10  S1  UNL     1      27.003  -1.411  52.657  1.00  0.00    -0.063 SA
HETATM   11  C2  UNL     1      27.906   0.125  54.963  1.00  0.00     0.237 C 
HETATM   12  O1  UNL     1      28.991   0.961  55.001  1.00  0.00    -0.383 OA
HETATM   13  C3  UNL     1      29.121   1.846  53.963  1.00  0.00     0.188 C 
HETATM   14  C4  UNL     1      27.785   2.349  53.431  1.00  0.00     0.150 C 
ENDBRANCH   7   8
ENDBRANCH   1   7
BRANCH   3  15
HETATM   15  C8  UNL     1      21.747   0.482  52.898  1.00  0.00     0.035 A 
HETATM   16  C9  UNL     1      22.000  -0.449  53.880  1.00  0.00     0.029 A 
HETATM   17  C10 UNL     1      21.091  -1.368  54.384  1.00  0.00     0.004 A 
HETATM   18  C11 UNL     1      19.816  -1.322  53.826  1.00  0.00     0.019 A 
HETATM   19  C12 UNL     1      19.483  -0.418  52.838  1.00  0.00     0.013 A 
HETATM   20 BR1  UNL     1      17.717  -0.417  52.124  1.00  0.00    -0.051 Br
HETATM   21  C13 UNL     1      20.461   0.477  52.384  1.00  0.00     0.048 A 
ENDBRANCH   3  15
TORSDOF 3
ENDMDL
MODEL 3
REMARK VINA RESULT:      -7.4      4.539      7.130
REMARK  3 active torsions:
REMARK  status: ('A' for Active; 'I' for Inactive)
REMARK    1  A    between atoms: N1_7  and  C5_8 
REMARK    2  A    between atoms: C5_8  and  C6_9 
REMARK    3  A    between atoms: N2_11  and  C8_12 
ROOT
HETATM    1  C6  UNL     1      23.064   1.242  51.616  1.00  0.00    -0.025 A 
HETATM    2  C7  UNL     1      24.342   1.354  51.962  1.00  0.00     0.100 A 
HETATM    3  N2  UNL     1      24.989   0.582  52.963  1.00  0.00    -0.353 N 
HETATM    4  C14 UNL     1      24.261  -0.409  53.730  1.00  0.00     0.156 A 
HETATM    5  C15 UNL     1      22.863  -0.433  53.248  1.00  0.00    -0.006 A 
HETATM    6  C16 UNL     1      22.224   0.255  52.318  1.00  0.00     0.008 A 
ENDROOT
BRANCH   1   7
HETATM    7  C5  UNL     1      22.417   2.048  50.580  1.00  0.00     0.163 C 
BRANCH   7   8
HETATM    8  N1  UNL     1      22.347   3.452  50.830  1.00  0.00    -0.367 N 
HETATM    9  C1  UNL     1      23.269   4.505  50.469  1.00  0.00     0.099 C 
HETATM   10  S1  UNL     1      24.364   4.009  49.333  1.00  0.00    -0.063 SA
HETATM   11  C2  UNL     1      23.026   5.799  51.204  1.00  0.00     0.237 C 
HETATM   12  O1  UNL     1      21.718   6.200  51.142  1.00  0.00    -0.383 OA
HETATM   13  C3  UNL     1      20.785   5.221  50.923  1.00  0.00     0.188 C 
HETATM   14  C4  UNL     1      21.149   3.890  51.569  1.00  0.00     0.150 C 
ENDBRANCH   7   8
ENDBRANCH   1   7
BRANCH   3  15
HETATM   15  C8  UNL     1      26.373   0.752  53.241  1.00  0.00     0.035 A 
HETATM   16  C9  UNL     1      26.942   1.967  53.549  1.00  0.00     0.029 A 
HETATM   17  C10 UNL     1      28.281   2.191  53.832  1.00  0.00     0.004 A 
HETATM   18  C11 UNL     1      29.101   1.065  53.792  1.00  0.00     0.019 A 
HETATM   19  C12 UNL     1      28.607  -0.187  53.492  1.00  0.00     0.013 A 
HETATM   20 BR1  UNL     1      29.793  -1.679  53.458  1.00  0.00    -0.051 Br
HETATM   21  C13 UNL     1      27.241  -0.327  53.218  1.00  0.00     0.048 A 
ENDBRANCH   3  15
TORSDOF 3
ENDMDL
MODEL 4
REMARK VINA RESULT:      -7.3      2.891      3.726
REMARK  3 active torsions:
REMARK  status: ('A' for Active; 'I' for Inactive)
REMARK    1  A    between atoms: N1_7  and  C5_8 
REMARK    2  A    between atoms: C5_8  and  C6_9 
REMARK    3  A    between atoms: N2_11  and  C8_12 
ROOT
HETATM    1  C6  UNL     1      24.129  -0.306  53.726  1.00  0.00    -0.025 A 
HETATM    2  C7  UNL     1      24.145   0.481  52.656  1.00  0.00     0.100 A 
HETATM    3  N2  UNL     1      23.007   0.835  51.885  1.00  0.00    -0.353 N 
HETATM    4  C14 UNL     1      21.693   0.317  52.209  1.00  0.00     0.156 A 
HETATM    5  C15 UNL     1      21.815  -0.536  53.411  1.00  0.00    -0.006 A 
HETATM    6  C16 UNL     1      22.845  -0.882  54.164  1.00  0.00     0.008 A 
ENDROOT
BRANCH   1   7
HETATM    7  C5  UNL     1      25.315  -0.657  54.509  1.00  0.00     0.163 C 
BRANCH   7   8
HETATM    8  N1  UNL     1      26.547  -0.085  54.072  1.00  0.00    -0.367 N 
HETATM    9  C1  UNL     1      27.601  -0.658  53.264  1.00  0.00     0.099 C 
HETATM   10  S1  UNL     1      27.114  -2.040  52.497  1.00  0.00    -0.063 SA
HETATM   11  C2  UNL     1      28.889   0.125  53.305  1.00  0.00     0.237 C 
HETATM   12  O1  UNL     1      28.700   1.459  53.058  1.00  0.00    -0.383 OA
HETATM   13  C3  UNL     1      27.452   1.961  53.319  1.00  0.00     0.188 C 
HETATM   14  C4  UNL     1      26.777   1.302  54.514  1.00  0.00     0.150 C 
ENDBRANCH   7   8
ENDBRANCH   1   7
BRANCH   3  15
HETATM   15  C8  UNL     1      23.118   1.713  50.772  1.00  0.00     0.035 A 
HETATM   16  C9  UNL     1      22.215   1.739  49.732  1.00  0.00     0.029 A 
HETATM   17  C10 UNL     1      22.272   2.574  48.626  1.00  0.00     0.004 A 
HETATM   18  C11 UNL     1      23.350   3.454  48.591  1.00  0.00     0.019 A 
HETATM   19  C12 UNL     1      24.297   3.490  49.593  1.00  0.00     0.013 A 
HETATM   20 BR1  UNL     1      25.745   4.723  49.473  1.00  0.00    -0.051 Br
HETATM   21  C13 UNL     1      24.167   2.612  50.677  1.00  0.00     0.048 A 
ENDBRANCH   3  15
TORSDOF 3
ENDMDL
MODEL 5
REMARK VINA RESULT:      -7.3      2.129      2.463
REMARK  3 active torsions:
REMARK  status: ('A' for Active; 'I' for Inactive)
REMARK    1  A    between atoms: N1_7  and  C5_8 
REMARK    2  A    between atoms: C5_8  and  C6_9 
REMARK    3  A    between atoms: N2_11  and  C8_12 
ROOT
HETATM    1  C6  UNL     1      24.776   0.353  52.681  1.00  0.00    -0.025 A 
HETATM    2  C7  UNL     1      23.818   1.186  52.288  1.00  0.00     0.100 A 
HETATM    3  N2  UNL     1      22.482   1.181  52.768  1.00  0.00    -0.353 N 
HETATM    4  C14 UNL     1      22.043   0.206  53.745  1.00  0.00     0.156 A 
HETATM    5  C15 UNL     1      23.195  -0.651  54.096  1.00  0.00    -0.006 A 
HETATM    6  C16 UNL     1      24.452  -0.676  53.687  1.00  0.00     0.008 A 
ENDROOT
BRANCH   1   7
HETATM    7  C5  UNL     1      26.149   0.377  52.174  1.00  0.00     0.163 C 
BRANCH   7   8
HETATM    8  N1  UNL     1      27.162   0.714  53.121  1.00  0.00    -0.367 N 
HETATM    9  C1  UNL     1      28.148  -0.126  53.762  1.00  0.00     0.099 C 
HETATM   10  S1  UNL     1      28.292  -1.595  53.017  1.00  0.00    -0.063 SA
HETATM   11  C2  UNL     1      28.812   0.520  54.952  1.00  0.00     0.237 C 
HETATM   12  O1  UNL     1      29.289   1.773  54.670  1.00  0.00    -0.383 OA
HETATM   13  C3  UNL     1      28.693   2.437  53.631  1.00  0.00     0.188 C 
HETATM   14  C4  UNL     1      27.206   2.138  53.500  1.00  0.00     0.150 C 
ENDBRANCH   7   8
ENDBRANCH   1   7
BRANCH   3  15
HETATM   15  C8  UNL     1      21.534   2.135  52.309  1.00  0.00     0.035 A 
HETATM   16  C9  UNL     1      20.180   1.892  52.249  1.00  0.00     0.029 A 
HETATM   17  C10 UNL     1      19.211   2.784  51.815  1.00  0.00     0.004 A 
HETATM   18  C11 UNL     1      19.679   4.031  51.407  1.00  0.00     0.019 A 
HETATM   19  C12 UNL     1      21.020   4.352  51.437  1.00  0.00     0.013 A 
HETATM   20 BR1  UNL     1      21.584   6.079  50.864  1.00  0.00    -0.051 Br
HETATM   21  C13 UNL     1      21.935   3.393  51.890  1.00  0.00     0.048 A 
ENDBRANCH   3  15
TORSDOF 3
ENDMDL
MODEL 6
REMARK VINA RESULT:      -7.2      4.883      7.082
REMARK  3 active torsions:
REMARK  status: ('A' for Active; 'I' for Inactive)
REMARK    1  A    between atoms: N1_7  and  C5_8 
REMARK    2  A    between atoms: C5_8  and  C6_9 
REMARK    3  A    between atoms: N2_11  and  C8_12 
ROOT
HETATM    1  C6  UNL     1      23.707   2.500  51.552  1.00  0.00    -0.025 A 
HETATM    2  C7  UNL     1      24.600   3.131  50.797  1.00  0.00     0.100 A 
HETATM    3  N2  UNL     1      24.744   4.541  50.706  1.00  0.00    -0.353 N 
HETATM    4  C14 UNL     1      23.868   5.431  51.441  1.00  0.00     0.156 A 
HETATM    5  C15 UNL     1      22.931   4.607  52.235  1.00  0.00    -0.006 A 
HETATM    6  C16 UNL     1      22.769   3.302  52.360  1.00  0.00     0.008 A 
ENDROOT
BRANCH   1   7
HETATM    7  C5  UNL     1      23.577   1.045  51.633  1.00  0.00     0.163 C 
BRANCH   7   8
HETATM    8  N1  UNL     1      24.429   0.390  52.572  1.00  0.00    -0.367 N 
HETATM    9  C1  UNL     1      24.096  -0.346  53.771  1.00  0.00     0.099 C 
HETATM   10  S1  UNL     1      22.488  -0.731  53.837  1.00  0.00    -0.063 SA
HETATM   11  C2  UNL     1      25.274  -0.589  54.680  1.00  0.00     0.237 C 
HETATM   12  O1  UNL     1      26.347  -1.123  54.015  1.00  0.00    -0.383 OA
HETATM   13  C3  UNL     1      26.414  -0.886  52.667  1.00  0.00     0.188 C 
HETATM   14  C4  UNL     1      25.869   0.480  52.270  1.00  0.00     0.150 C 
ENDBRANCH   7   8
ENDBRANCH   1   7
BRANCH   3  15
HETATM   15  C8  UNL     1      25.753   5.125  49.893  1.00  0.00     0.035 A 
HETATM   16  C9  UNL     1      26.780   4.405  49.324  1.00  0.00     0.029 A 
HETATM   17  C10 UNL     1      27.788   4.920  48.521  1.00  0.00     0.004 A 
HETATM   18  C11 UNL     1      27.730   6.292  48.288  1.00  0.00     0.019 A 
HETATM   19  C12 UNL     1      26.733   7.082  48.822  1.00  0.00     0.013 A 
HETATM   20 BR1  UNL     1      26.722   8.952  48.457  1.00  0.00    -0.051 Br
HETATM   21  C13 UNL     1      25.752   6.483  49.623  1.00  0.00     0.048 A 
ENDBRANCH   3  15
TORSDOF 3
ENDMDL
MODEL 7
REMARK VINA RESULT:      -7.1      4.999      7.523
REMARK  3 active torsions:
REMARK  status: ('A' for Active; 'I' for Inactive)
REMARK    1  A    between atoms: N1_7  and  C5_8 
REMARK    2  A    between atoms: C5_8  and  C6_9 
REMARK    3  A    between atoms: N2_11  and  C8_12 
ROOT
HETATM    1  C6  UNL     1      23.832   3.642  49.667  1.00  0.00    -0.025 A 
HETATM    2  C7  UNL     1      24.119   2.651  50.504  1.00  0.00     0.100 A 
HETATM    3  N2  UNL     1      25.413   2.355  51.008  1.00  0.00    -0.353 N 
HETATM    4  C14 UNL     1      26.568   3.132  50.606  1.00  0.00     0.156 A 
HETATM    5  C15 UNL     1      26.113   4.194  49.682  1.00  0.00    -0.006 A 
HETATM    6  C16 UNL     1      24.926   4.513  49.197  1.00  0.00     0.008 A 
ENDROOT
BRANCH   1   7
HETATM    7  C5  UNL     1      22.490   3.931  49.159  1.00  0.00     0.163 C 
BRANCH   7   8
HETATM    8  N1  UNL     1      21.417   3.745  50.082  1.00  0.00    -0.367 N 
HETATM    9  C1  UNL     1      20.381   2.738  50.109  1.00  0.00     0.099 C 
HETATM   10  S1  UNL     1      20.725   1.466  49.110  1.00  0.00    -0.063 SA
HETATM   11  C2  UNL     1      19.234   3.073  51.029  1.00  0.00     0.237 C 
HETATM   12  O1  UNL     1      19.655   3.430  52.283  1.00  0.00    -0.383 OA
HETATM   13  C3  UNL     1      20.931   3.920  52.386  1.00  0.00     0.188 C 
HETATM   14  C4  UNL     1      21.361   4.735  51.173  1.00  0.00     0.150 C 
ENDBRANCH   7   8
ENDBRANCH   1   7
BRANCH   3  15
HETATM   15  C8  UNL     1      25.616   1.290  51.928  1.00  0.00     0.035 A 
HETATM   16  C9  UNL     1      24.594   0.674  52.615  1.00  0.00     0.029 A 
HETATM   17  C10 UNL     1      24.733  -0.368  53.519  1.00  0.00     0.004 A 
HETATM   18  C11 UNL     1      26.036  -0.811  53.731  1.00  0.00     0.019 A 
HETATM   19  C12 UNL     1      27.114  -0.246  53.082  1.00  0.00     0.013 A 
HETATM   20 BR1  UNL     1      28.868  -0.907  53.426  1.00  0.00    -0.051 Br
HETATM   21  C13 UNL     1      26.887   0.804  52.184  1.00  0.00     0.048 A 
ENDBRANCH   3  15
TORSDOF 3
ENDMDL
MODEL 8
REMARK VINA RESULT:      -6.9      4.922      6.800
REMARK  3 active torsions:
REMARK  status: ('A' for Active; 'I' for Inactive)
REMARK    1  A    between atoms: N1_7  and  C5_8 
REMARK    2  A    between atoms: C5_8  and  C6_9 
REMARK    3  A    between atoms: N2_11  and  C8_12 
ROOT
HETATM    1  C6  UNL     1      25.810   2.664  51.327  1.00  0.00    -0.025 A 
HETATM    2  C7  UNL     1      26.026   3.675  50.493  1.00  0.00     0.100 A 
HETATM    3  N2  UNL     1      25.211   4.832  50.382  1.00  0.00    -0.353 N 
HETATM    4  C14 UNL     1      24.016   4.986  51.188  1.00  0.00     0.156 A 
HETATM    5  C15 UNL     1      23.895   3.802  52.066  1.00  0.00    -0.006 A 
HETATM    6  C16 UNL     1      24.631   2.714  52.212  1.00  0.00     0.008 A 
ENDROOT
BRANCH   1   7
HETATM    7  C5  UNL     1      26.665   1.480  51.427  1.00  0.00     0.163 C 
BRANCH   7   8
HETATM    8  N1  UNL     1      27.189   1.193  52.723  1.00  0.00    -0.367 N 
HETATM    9  C1  UNL     1      27.068  -0.003  53.528  1.00  0.00     0.099 C 
HETATM   10  S1  UNL     1      26.524  -1.292  52.646  1.00  0.00    -0.063 SA
HETATM   11  C2  UNL     1      27.460   0.197  54.970  1.00  0.00     0.237 C 
HETATM   12  O1  UNL     1      28.682   0.801  55.103  1.00  0.00    -0.383 OA
HETATM   13  C3  UNL     1      29.107   1.565  54.048  1.00  0.00     0.188 C 
HETATM   14  C4  UNL     1      27.972   2.284  53.331  1.00  0.00     0.150 C 
ENDBRANCH   7   8
ENDBRANCH   1   7
BRANCH   3  15
HETATM   15  C8  UNL     1      25.542   5.880  49.479  1.00  0.00     0.035 A 
HETATM   16  C9  UNL     1      26.719   5.923  48.765  1.00  0.00     0.029 A 
HETATM   17  C10 UNL     1      27.092   6.915  47.871  1.00  0.00     0.004 A 
HETATM   18  C11 UNL     1      26.174   7.949  47.700  1.00  0.00     0.019 A 
HETATM   19  C12 UNL     1      24.973   7.978  48.378  1.00  0.00     0.013 A 
HETATM   20 BR1  UNL     1      23.768   9.426  48.091  1.00  0.00    -0.051 Br
HETATM   21  C13 UNL     1      24.672   6.936  49.265  1.00  0.00     0.048 A 
ENDBRANCH   3  15
TORSDOF 3
ENDMDL
MODEL 9
REMARK VINA RESULT:      -6.8      5.024      6.935
REMARK  3 active torsions:
REMARK  status: ('A' for Active; 'I' for Inactive)
REMARK    1  A    between atoms: N1_7  and  C5_8 
REMARK    2  A    between atoms: C5_8  and  C6_9 
REMARK    3  A    between atoms: N2_11  and  C8_12 
ROOT
HETATM    1  C6  UNL     1      25.867   2.140  51.293  1.00  0.00    -0.025 A 
HETATM    2  C7  UNL     1      26.146   3.145  50.469  1.00  0.00     0.100 A 
HETATM    3  N2  UNL     1      25.352   4.310  50.304  1.00  0.00    -0.353 N 
HETATM    4  C14 UNL     1      24.113   4.481  51.035  1.00  0.00     0.156 A 
HETATM    5  C15 UNL     1      23.924   3.303  51.909  1.00  0.00    -0.006 A 
HETATM    6  C16 UNL     1      24.637   2.208  52.103  1.00  0.00     0.008 A 
ENDROOT
BRANCH   1   7
HETATM    7  C5  UNL     1      26.701   0.947  51.450  1.00  0.00     0.163 C 
BRANCH   7   8
HETATM    8  N1  UNL     1      26.869   0.471  52.784  1.00  0.00    -0.367 N 
HETATM    9  C1  UNL     1      27.782   0.908  53.817  1.00  0.00     0.099 C 
HETATM   10  S1  UNL     1      28.466   2.372  53.462  1.00  0.00    -0.063 SA
HETATM   11  C2  UNL     1      27.903  -0.059  54.968  1.00  0.00     0.237 C 
HETATM   12  O1  UNL     1      26.683  -0.435  55.467  1.00  0.00    -0.383 OA
HETATM   13  C3  UNL     1      25.615  -0.339  54.614  1.00  0.00     0.188 C 
HETATM   14  C4  UNL     1      25.975  -0.638  53.164  1.00  0.00     0.150 C 
ENDBRANCH   7   8
ENDBRANCH   1   7
BRANCH   3  15
HETATM   15  C8  UNL     1      25.750   5.350  49.419  1.00  0.00     0.035 A 
HETATM   16  C9  UNL     1      24.876   6.273  48.891  1.00  0.00     0.029 A 
HETATM   17  C10 UNL     1      25.207   7.307  48.029  1.00  0.00     0.004 A 
HETATM   18  C11 UNL     1      26.554   7.395  47.683  1.00  0.00     0.019 A 
HETATM   19  C12 UNL     1      27.492   6.508  48.170  1.00  0.00     0.013 A 
HETATM   20 BR1  UNL     1      29.316   6.693  47.650  1.00  0.00    -0.051 Br
HETATM   21  C13 UNL     1      27.073   5.491  49.037  1.00  0.00     0.048 A 
ENDBRANCH   3  15
TORSDOF 3
ENDMDL
