MODEL 1
REMARK VINA RESULT:      -7.9      0.000      0.000
REMARK  5 active torsions:
REMARK  status: ('A' for Active; 'I' for Inactive)
REMARK    1  A    between atoms: C6_6  and  O1_7 
REMARK    2  A    between atoms: O1_7  and  C7_8 
REMARK    3  A    between atoms: C9_10  and  N1_11 
REMARK    4  A    between atoms: N1_11  and  C10_12 
REMARK    5  A    between atoms: C10_12  and  C11_13 
ROOT
HETATM    1  C7  UNL     1      25.078   0.224  53.762  1.00  0.00     0.171 A 
HETATM    2  C8  UNL     1      24.970   1.282  52.908  1.00  0.00     0.087 A 
HETATM    3  C9  UNL     1      23.756   1.454  52.231  1.00  0.00     0.033 A 
HETATM    4  C17 UNL     1      22.783   0.518  52.506  1.00  0.00     0.048 A 
HETATM    5  C18 UNL     1      22.923  -0.542  53.377  1.00  0.00     0.122 A 
HETATM    6  N2  UNL     1      24.104  -0.667  54.002  1.00  0.00    -0.237 NA
ENDROOT
BRANCH   3   7
HETATM    7  N1  UNL     1      23.504   2.513  51.327  1.00  0.00    -0.386 N 
HETATM    8  H7  UNL     1      23.198   3.383  51.842  1.00  0.00     0.160 HD
BRANCH   7   9
HETATM    9  C10 UNL     1      23.548   2.747  49.903  1.00  0.00     0.158 C 
BRANCH   9  10
HETATM   10  C11 UNL     1      24.765   3.511  49.574  1.00  0.00    -0.041 A 
HETATM   11  C12 UNL     1      26.110   3.230  49.631  1.00  0.00     0.009 A 
HETATM   12  C13 UNL     1      27.054   4.145  49.277  1.00  0.00     0.001 A 
HETATM   13  C14 UNL     1      26.739   5.411  48.837  1.00  0.00     0.000 A 
HETATM   14  C15 UNL     1      25.399   5.725  48.768  1.00  0.00     0.001 A 
HETATM   15  C16 UNL     1      24.425   4.788  49.130  1.00  0.00     0.009 A 
ENDBRANCH   9  10
ENDBRANCH   7   9
ENDBRANCH   3   7
BRANCH   1  16
HETATM   16  O1  UNL     1      26.317   0.140  54.383  1.00  0.00    -0.295 OA
BRANCH  16  17
HETATM   17  C6  UNL     1      27.445   0.022  53.583  1.00  0.00     0.070 C 
HETATM   18  C1  UNL     1      27.650  -1.174  53.075  1.00  0.00     0.007 C 
HETATM   19  C2  UNL     1      28.859  -1.710  53.129  1.00  0.00     0.014 C 
HETATM   20  C3  UNL     1      29.933  -0.915  53.726  1.00  0.00    -0.003 C 
HETATM   21  C4  UNL     1      29.786   0.412  53.743  1.00  0.00    -0.020 C 
HETATM   22  C5  UNL     1      28.524   0.958  53.141  1.00  0.00     0.093 C 
ENDBRANCH  16  17
ENDBRANCH   1  16
TORSDOF 5
ENDMDL
MODEL 2
REMARK VINA RESULT:      -7.8      1.840      4.891
REMARK  5 active torsions:
REMARK  status: ('A' for Active; 'I' for Inactive)
REMARK    1  A    between atoms: C6_6  and  O1_7 
REMARK    2  A    between atoms: O1_7  and  C7_8 
REMARK    3  A    between atoms: C9_10  and  N1_11 
REMARK    4  A    between atoms: N1_11  and  C10_12 
REMARK    5  A    between atoms: C10_12  and  C11_13 
ROOT
HETATM    1  C7  UNL     1      26.419   2.335  52.715  1.00  0.00     0.171 A 
HETATM    2  C8  UNL     1      25.059   2.344  52.803  1.00  0.00     0.087 A 
HETATM    3  C9  UNL     1      24.329   2.649  51.647  1.00  0.00     0.033 A 
HETATM    4  C17 UNL     1      25.081   2.912  50.522  1.00  0.00     0.048 A 
HETATM    5  C18 UNL     1      26.458   2.895  50.465  1.00  0.00     0.122 A 
HETATM    6  N2  UNL     1      27.114   2.598  51.597  1.00  0.00    -0.237 NA
ENDROOT
BRANCH   3   7
HETATM    7  N1  UNL     1      22.916   2.682  51.595  1.00  0.00    -0.386 N 
HETATM    8  H7  UNL     1      22.553   3.648  51.819  1.00  0.00     0.160 HD
BRANCH   7   9
HETATM    9  C10 UNL     1      21.828   1.774  51.320  1.00  0.00     0.158 C 
BRANCH   9  10
HETATM   10  C11 UNL     1      21.578   0.941  52.510  1.00  0.00    -0.041 A 
HETATM   11  C12 UNL     1      20.780   1.084  53.622  1.00  0.00     0.009 A 
HETATM   12  C13 UNL     1      20.748   0.150  54.612  1.00  0.00     0.001 A 
HETATM   13  C14 UNL     1      21.503  -1.000  54.579  1.00  0.00     0.000 A 
HETATM   14  C15 UNL     1      22.315  -1.174  53.478  1.00  0.00     0.001 A 
HETATM   15  C16 UNL     1      22.351  -0.217  52.457  1.00  0.00     0.009 A 
ENDBRANCH   9  10
ENDBRANCH   7   9
ENDBRANCH   3   7
BRANCH   1  16
HETATM   16  O1  UNL     1      27.049   2.023  53.912  1.00  0.00    -0.295 OA
BRANCH  16  17
HETATM   17  C6  UNL     1      27.338   0.691  54.172  1.00  0.00     0.070 C 
HETATM   18  C1  UNL     1      28.540   0.461  54.655  1.00  0.00     0.007 C 
HETATM   19  C2  UNL     1      29.275  -0.516  54.149  1.00  0.00     0.014 C 
HETATM   20  C3  UNL     1      28.689  -1.331  53.083  1.00  0.00    -0.003 C 
HETATM   21  C4  UNL     1      27.356  -1.384  53.006  1.00  0.00    -0.020 C 
HETATM   22  C5  UNL     1      26.590  -0.596  54.029  1.00  0.00     0.093 C 
ENDBRANCH  16  17
ENDBRANCH   1  16
TORSDOF 5
ENDMDL
MODEL 3
REMARK VINA RESULT:      -7.8      2.064      6.216
REMARK  5 active torsions:
REMARK  status: ('A' for Active; 'I' for Inactive)
REMARK    1  A    between atoms: C6_6  and  O1_7 
REMARK    2  A    between atoms: O1_7  and  C7_8 
REMARK    3  A    between atoms: C9_10  and  N1_11 
REMARK    4  A    between atoms: N1_11  and  C10_12 
REMARK    5  A    between atoms: C10_12  and  C11_13 
ROOT
HETATM    1  C7  UNL     1      23.328   2.666  51.658  1.00  0.00     0.171 A 
HETATM    2  C8  UNL     1      24.503   2.467  52.321  1.00  0.00     0.087 A 
HETATM    3  C9  UNL     1      25.695   2.639  51.607  1.00  0.00     0.033 A 
HETATM    4  C17 UNL     1      25.550   3.000  50.285  1.00  0.00     0.048 A 
HETATM    5  C18 UNL     1      24.345   3.195  49.642  1.00  0.00     0.122 A 
HETATM    6  N2  UNL     1      23.230   3.018  50.367  1.00  0.00    -0.237 NA
ENDROOT
BRANCH   3   7
HETATM    7  N1  UNL     1      26.981   2.476  52.174  1.00  0.00    -0.386 N 
HETATM    8  H7  UNL     1      27.719   2.935  51.572  1.00  0.00     0.160 HD
BRANCH   7   9
HETATM    9  C10 UNL     1      27.574   1.865  53.339  1.00  0.00     0.158 C 
BRANCH   9  10
HETATM   10  C11 UNL     1      27.653   0.407  53.136  1.00  0.00    -0.041 A 
HETATM   11  C12 UNL     1      26.756  -0.545  52.712  1.00  0.00     0.009 A 
HETATM   12  C13 UNL     1      27.086  -1.863  52.630  1.00  0.00     0.001 A 
HETATM   13  C14 UNL     1      28.333  -2.342  52.962  1.00  0.00     0.000 A 
HETATM   14  C15 UNL     1      29.258  -1.413  53.391  1.00  0.00     0.001 A 
HETATM   15  C16 UNL     1      28.922  -0.057  53.476  1.00  0.00     0.009 A 
ENDBRANCH   9  10
ENDBRANCH   7   9
ENDBRANCH   3   7
BRANCH   1  16
HETATM   16  O1  UNL     1      22.205   2.470  52.452  1.00  0.00    -0.295 OA
BRANCH  16  17
HETATM   17  C6  UNL     1      21.796   1.168  52.697  1.00  0.00     0.070 C 
HETATM   18  C1  UNL     1      20.747   1.047  53.482  1.00  0.00     0.007 C 
HETATM   19  C2  UNL     1      20.765   0.166  54.470  1.00  0.00     0.014 C 
HETATM   20  C3  UNL     1      21.957  -0.671  54.617  1.00  0.00    -0.003 C 
HETATM   21  C4  UNL     1      22.720  -0.858  53.537  1.00  0.00    -0.020 C 
HETATM   22  C5  UNL     1      22.275  -0.183  52.272  1.00  0.00     0.093 C 
ENDBRANCH  16  17
ENDBRANCH   1  16
TORSDOF 5
ENDMDL
MODEL 4
REMARK VINA RESULT:      -7.6      1.482      2.167
REMARK  5 active torsions:
REMARK  status: ('A' for Active; 'I' for Inactive)
REMARK    1  A    between atoms: C6_6  and  O1_7 
REMARK    2  A    between atoms: O1_7  and  C7_8 
REMARK    3  A    between atoms: C9_10  and  N1_11 
REMARK    4  A    between atoms: N1_11  and  C10_12 
REMARK    5  A    between atoms: C10_12  and  C11_13 
ROOT
HETATM    1  C7  UNL     1      23.326   0.000  53.415  1.00  0.00     0.171 A 
HETATM    2  C8  UNL     1      23.659   1.222  52.910  1.00  0.00     0.087 A 
HETATM    3  C9  UNL     1      22.766   1.828  52.018  1.00  0.00     0.033 A 
HETATM    4  C17 UNL     1      21.621   1.111  51.744  1.00  0.00     0.048 A 
HETATM    5  C18 UNL     1      21.311  -0.124  52.273  1.00  0.00     0.122 A 
HETATM    6  N2  UNL     1      22.198  -0.666  53.121  1.00  0.00    -0.237 NA
ENDROOT
BRANCH   3   7
HETATM    7  N1  UNL     1      22.982   3.096  51.429  1.00  0.00    -0.386 N 
HETATM    8  H7  UNL     1      23.252   3.809  52.160  1.00  0.00     0.160 HD
BRANCH   7   9
HETATM    9  C10 UNL     1      22.941   3.694  50.116  1.00  0.00     0.158 C 
BRANCH   9  10
HETATM   10  C11 UNL     1      24.299   4.122  49.735  1.00  0.00    -0.041 A 
HETATM   11  C12 UNL     1      24.824   5.291  49.236  1.00  0.00     0.009 A 
HETATM   12  C13 UNL     1      26.148   5.422  48.944  1.00  0.00     0.001 A 
HETATM   13  C14 UNL     1      27.055   4.403  49.123  1.00  0.00     0.000 A 
HETATM   14  C15 UNL     1      26.562   3.216  49.622  1.00  0.00     0.001 A 
HETATM   15  C16 UNL     1      25.203   3.078  49.924  1.00  0.00     0.009 A 
ENDBRANCH   9  10
ENDBRANCH   7   9
ENDBRANCH   3   7
BRANCH   1  16
HETATM   16  O1  UNL     1      24.275  -0.516  54.287  1.00  0.00    -0.295 OA
BRANCH  16  17
HETATM   17  C6  UNL     1      25.598  -0.550  53.870  1.00  0.00     0.070 C 
HETATM   18  C1  UNL     1      26.449   0.084  54.647  1.00  0.00     0.007 C 
HETATM   19  C2  UNL     1      27.346   0.896  54.112  1.00  0.00     0.014 C 
HETATM   20  C3  UNL     1      27.372   1.019  52.653  1.00  0.00    -0.003 C 
HETATM   21  C4  UNL     1      26.866   0.012  51.937  1.00  0.00    -0.020 C 
HETATM   22  C5  UNL     1      26.318  -1.154  52.707  1.00  0.00     0.093 C 
ENDBRANCH  16  17
ENDBRANCH   1  16
TORSDOF 5
ENDMDL
MODEL 5
REMARK VINA RESULT:      -7.6      1.686      2.743
REMARK  5 active torsions:
REMARK  status: ('A' for Active; 'I' for Inactive)
REMARK    1  A    between atoms: C6_6  and  O1_7 
REMARK    2  A    between atoms: O1_7  and  C7_8 
REMARK    3  A    between atoms: C9_10  and  N1_11 
REMARK    4  A    between atoms: N1_11  and  C10_12 
REMARK    5  A    between atoms: C10_12  and  C11_13 
ROOT
HETATM    1  C7  UNL     1      24.298   1.155  52.419  1.00  0.00     0.171 A 
HETATM    2  C8  UNL     1      25.272   1.714  51.646  1.00  0.00     0.087 A 
HETATM    3  C9  UNL     1      25.190   3.087  51.381  1.00  0.00     0.033 A 
HETATM    4  C17 UNL     1      24.113   3.738  51.942  1.00  0.00     0.048 A 
HETATM    5  C18 UNL     1      23.142   3.143  52.721  1.00  0.00     0.122 A 
HETATM    6  N2  UNL     1      23.262   1.826  52.947  1.00  0.00    -0.237 NA
ENDROOT
BRANCH   3   7
HETATM    7  N1  UNL     1      26.138   3.796  50.606  1.00  0.00    -0.386 N 
HETATM    8  H7  UNL     1      26.297   4.764  50.998  1.00  0.00     0.160 HD
BRANCH   7   9
HETATM    9  C10 UNL     1      26.951   3.575  49.434  1.00  0.00     0.158 C 
BRANCH   9  10
HETATM   10  C11 UNL     1      27.288   4.875  48.825  1.00  0.00    -0.041 A 
HETATM   11  C12 UNL     1      28.452   5.429  48.346  1.00  0.00     0.009 A 
HETATM   12  C13 UNL     1      28.495   6.692  47.838  1.00  0.00     0.001 A 
HETATM   13  C14 UNL     1      27.387   7.505  47.764  1.00  0.00     0.000 A 
HETATM   14  C15 UNL     1      26.203   6.980  48.236  1.00  0.00     0.001 A 
HETATM   15  C16 UNL     1      26.154   5.682  48.759  1.00  0.00     0.009 A 
ENDBRANCH   9  10
ENDBRANCH   7   9
ENDBRANCH   3   7
BRANCH   1  16
HETATM   16  O1  UNL     1      24.468  -0.208  52.622  1.00  0.00    -0.295 OA
BRANCH  16  17
HETATM   17  C6  UNL     1      25.615  -0.634  53.276  1.00  0.00     0.070 C 
HETATM   18  C1  UNL     1      25.680  -0.330  54.553  1.00  0.00     0.007 C 
HETATM   19  C2  UNL     1      26.794   0.185  55.050  1.00  0.00     0.014 C 
HETATM   20  C3  UNL     1      27.931   0.356  54.143  1.00  0.00    -0.003 C 
HETATM   21  C4  UNL     1      27.974  -0.413  53.052  1.00  0.00    -0.020 C 
HETATM   22  C5  UNL     1      26.843  -1.383  52.865  1.00  0.00     0.093 C 
ENDBRANCH  16  17
ENDBRANCH   1  16
TORSDOF 5
ENDMDL
MODEL 6
REMARK VINA RESULT:      -7.5      1.732      6.328
REMARK  5 active torsions:
REMARK  status: ('A' for Active; 'I' for Inactive)
REMARK    1  A    between atoms: C6_6  and  O1_7 
REMARK    2  A    between atoms: O1_7  and  C7_8 
REMARK    3  A    between atoms: C9_10  and  N1_11 
REMARK    4  A    between atoms: N1_11  and  C10_12 
REMARK    5  A    between atoms: C10_12  and  C11_13 
ROOT
HETATM    1  C7  UNL     1      24.536   3.484  50.942  1.00  0.00     0.171 A 
HETATM    2  C8  UNL     1      25.016   2.466  51.711  1.00  0.00     0.087 A 
HETATM    3  C9  UNL     1      24.207   1.336  51.882  1.00  0.00     0.033 A 
HETATM    4  C17 UNL     1      22.988   1.376  51.240  1.00  0.00     0.048 A 
HETATM    5  C18 UNL     1      22.530   2.422  50.467  1.00  0.00     0.122 A 
HETATM    6  N2  UNL     1      23.340   3.483  50.333  1.00  0.00    -0.237 NA
ENDROOT
BRANCH   3   7
HETATM    7  N1  UNL     1      24.586   0.206  52.643  1.00  0.00    -0.386 N 
HETATM    8  H7  UNL     1      24.402  -0.687  52.108  1.00  0.00     0.160 HD
BRANCH   7   9
HETATM    9  C10 UNL     1      25.153  -0.078  53.939  1.00  0.00     0.158 C 
BRANCH   9  10
HETATM   10  C11 UNL     1      26.584  -0.397  53.784  1.00  0.00    -0.041 A 
HETATM   11  C12 UNL     1      27.284  -1.259  52.973  1.00  0.00     0.009 A 
HETATM   12  C13 UNL     1      28.639  -1.379  53.045  1.00  0.00     0.001 A 
HETATM   13  C14 UNL     1      29.406  -0.653  53.928  1.00  0.00     0.000 A 
HETATM   14  C15 UNL     1      28.735   0.221  54.756  1.00  0.00     0.001 A 
HETATM   15  C16 UNL     1      27.343   0.347  54.685  1.00  0.00     0.009 A 
ENDBRANCH   9  10
ENDBRANCH   7   9
ENDBRANCH   3   7
BRANCH   1  16
HETATM   16  O1  UNL     1      25.411   4.557  50.835  1.00  0.00    -0.295 OA
BRANCH  16  17
HETATM   17  C6  UNL     1      25.838   4.930  49.568  1.00  0.00     0.070 C 
HETATM   18  C1  UNL     1      26.880   4.272  49.110  1.00  0.00     0.007 C 
HETATM   19  C2  UNL     1      27.880   4.933  48.550  1.00  0.00     0.014 C 
HETATM   20  C3  UNL     1      27.755   6.387  48.431  1.00  0.00    -0.003 C 
HETATM   21  C4  UNL     1      26.525   6.906  48.435  1.00  0.00    -0.020 C 
HETATM   22  C5  UNL     1      25.385   5.937  48.560  1.00  0.00     0.093 C 
ENDBRANCH  16  17
ENDBRANCH   1  16
TORSDOF 5
ENDMDL
MODEL 7
REMARK VINA RESULT:      -7.5      2.185      4.977
REMARK  5 active torsions:
REMARK  status: ('A' for Active; 'I' for Inactive)
REMARK    1  A    between atoms: C6_6  and  O1_7 
REMARK    2  A    between atoms: O1_7  and  C7_8 
REMARK    3  A    between atoms: C9_10  and  N1_11 
REMARK    4  A    between atoms: N1_11  and  C10_12 
REMARK    5  A    between atoms: C10_12  and  C11_13 
ROOT
HETATM    1  C7  UNL     1      24.462   1.542  52.669  1.00  0.00     0.171 A 
HETATM    2  C8  UNL     1      24.639   2.673  51.929  1.00  0.00     0.087 A 
HETATM    3  C9  UNL     1      25.872   2.851  51.288  1.00  0.00     0.033 A 
HETATM    4  C17 UNL     1      26.791   1.842  51.478  1.00  0.00     0.048 A 
HETATM    5  C18 UNL     1      26.582   0.707  52.233  1.00  0.00     0.122 A 
HETATM    6  N2  UNL     1      25.386   0.582  52.829  1.00  0.00    -0.237 NA
ENDROOT
BRANCH   3   7
HETATM    7  N1  UNL     1      26.185   3.970  50.482  1.00  0.00    -0.386 N 
HETATM    8  H7  UNL     1      27.155   4.330  50.697  1.00  0.00     0.160 HD
BRANCH   7   9
HETATM    9  C10 UNL     1      25.560   4.760  49.448  1.00  0.00     0.158 C 
BRANCH   9  10
HETATM   10  C11 UNL     1      26.581   5.602  48.797  1.00  0.00    -0.041 A 
HETATM   11  C12 UNL     1      26.572   6.871  48.267  1.00  0.00     0.009 A 
HETATM   12  C13 UNL     1      27.676   7.421  47.691  1.00  0.00     0.001 A 
HETATM   13  C14 UNL     1      28.877   6.756  47.594  1.00  0.00     0.000 A 
HETATM   14  C15 UNL     1      28.921   5.480  48.116  1.00  0.00     0.001 A 
HETATM   15  C16 UNL     1      27.789   4.912  48.710  1.00  0.00     0.009 A 
ENDBRANCH   9  10
ENDBRANCH   7   9
ENDBRANCH   3   7
BRANCH   1  16
HETATM   16  O1  UNL     1      23.210   1.460  53.263  1.00  0.00    -0.295 OA
BRANCH  16  17
HETATM   17  C6  UNL     1      22.423   0.352  52.983  1.00  0.00     0.070 C 
HETATM   18  C1  UNL     1      21.514   0.530  52.049  1.00  0.00     0.007 C 
HETATM   19  C2  UNL     1      20.275   0.111  52.251  1.00  0.00     0.014 C 
HETATM   20  C3  UNL     1      19.984  -0.577  53.510  1.00  0.00    -0.003 C 
HETATM   21  C4  UNL     1      21.003  -1.159  54.148  1.00  0.00    -0.020 C 
HETATM   22  C5  UNL     1      22.354  -1.048  53.504  1.00  0.00     0.093 C 
ENDBRANCH  16  17
ENDBRANCH   1  16
TORSDOF 5
ENDMDL
MODEL 8
REMARK VINA RESULT:      -7.4      6.063      8.642
REMARK  5 active torsions:
REMARK  status: ('A' for Active; 'I' for Inactive)
REMARK    1  A    between atoms: C6_6  and  O1_7 
REMARK    2  A    between atoms: O1_7  and  C7_8 
REMARK    3  A    between atoms: C9_10  and  N1_11 
REMARK    4  A    between atoms: N1_11  and  C10_12 
REMARK    5  A    between atoms: C10_12  and  C11_13 
ROOT
HETATM    1  C7  UNL     1      32.137   6.297  47.025  1.00  0.00     0.171 A 
HETATM    2  C8  UNL     1      30.805   6.248  47.309  1.00  0.00     0.087 A 
HETATM    3  C9  UNL     1      30.357   6.898  48.465  1.00  0.00     0.033 A 
HETATM    4  C17 UNL     1      31.332   7.532  49.206  1.00  0.00     0.048 A 
HETATM    5  C18 UNL     1      32.674   7.564  48.892  1.00  0.00     0.122 A 
HETATM    6  N2  UNL     1      33.055   6.926  47.775  1.00  0.00    -0.237 NA
ENDROOT
BRANCH   3   7
HETATM    7  N1  UNL     1      29.003   6.937  48.871  1.00  0.00    -0.386 N 
HETATM    8  H7  UNL     1      28.927   7.015  49.922  1.00  0.00     0.160 HD
BRANCH   7   9
HETATM    9  C10 UNL     1      27.695   6.902  48.262  1.00  0.00     0.158 C 
BRANCH   9  10
HETATM   10  C11 UNL     1      26.978   5.697  48.718  1.00  0.00    -0.041 A 
HETATM   11  C12 UNL     1      27.368   4.411  49.011  1.00  0.00     0.009 A 
HETATM   12  C13 UNL     1      26.478   3.458  49.404  1.00  0.00     0.001 A 
HETATM   13  C14 UNL     1      25.131   3.706  49.539  1.00  0.00     0.000 A 
HETATM   14  C15 UNL     1      24.706   4.986  49.254  1.00  0.00     0.001 A 
HETATM   15  C16 UNL     1      25.617   5.968  48.850  1.00  0.00     0.009 A 
ENDBRANCH   9  10
ENDBRANCH   7   9
ENDBRANCH   3   7
BRANCH   1  16
HETATM   16  O1  UNL     1      32.480   5.623  45.860  1.00  0.00    -0.295 OA
BRANCH  16  17
HETATM   17  C6  UNL     1      33.174   4.427  45.976  1.00  0.00     0.070 C 
HETATM   18  C1  UNL     1      32.427   3.359  46.155  1.00  0.00     0.007 C 
HETATM   19  C2  UNL     1      32.750   2.481  47.091  1.00  0.00     0.014 C 
HETATM   20  C3  UNL     1      33.968   2.728  47.867  1.00  0.00    -0.003 C 
HETATM   21  C4  UNL     1      34.908   3.500  47.316  1.00  0.00    -0.020 C 
HETATM   22  C5  UNL     1      34.618   4.041  45.946  1.00  0.00     0.093 C 
ENDBRANCH  16  17
ENDBRANCH   1  16
TORSDOF 5
ENDMDL
MODEL 9
REMARK VINA RESULT:      -7.3      2.070      2.948
REMARK  5 active torsions:
REMARK  status: ('A' for Active; 'I' for Inactive)
REMARK    1  A    between atoms: C6_6  and  O1_7 
REMARK    2  A    between atoms: O1_7  and  C7_8 
REMARK    3  A    between atoms: C9_10  and  N1_11 
REMARK    4  A    between atoms: N1_11  and  C10_12 
REMARK    5  A    between atoms: C10_12  and  C11_13 
ROOT
HETATM    1  C7  UNL     1      25.051  -0.982  54.233  1.00  0.00     0.171 A 
HETATM    2  C8  UNL     1      24.232  -0.594  53.214  1.00  0.00     0.087 A 
HETATM    3  C9  UNL     1      22.850  -0.610  53.442  1.00  0.00     0.033 A 
HETATM    4  C17 UNL     1      22.460  -1.024  54.698  1.00  0.00     0.048 A 
HETATM    5  C18 UNL     1      23.314  -1.411  55.709  1.00  0.00     0.122 A 
HETATM    6  N2  UNL     1      24.629  -1.379  55.443  1.00  0.00    -0.237 NA
ENDROOT
BRANCH   3   7
HETATM    7  N1  UNL     1      21.890  -0.222  52.479  1.00  0.00    -0.386 N 
HETATM    8  H7  UNL     1      21.430  -1.068  52.044  1.00  0.00     0.160 HD
BRANCH   7   9
HETATM    9  C10 UNL     1      21.356   0.997  51.922  1.00  0.00     0.158 C 
BRANCH   9  10
HETATM   10  C11 UNL     1      22.470   1.876  51.520  1.00  0.00    -0.041 A 
HETATM   11  C12 UNL     1      23.247   1.971  50.389  1.00  0.00     0.009 A 
HETATM   12  C13 UNL     1      24.251   2.884  50.279  1.00  0.00     0.001 A 
HETATM   13  C14 UNL     1      24.564   3.775  51.280  1.00  0.00     0.000 A 
HETATM   14  C15 UNL     1      23.804   3.706  52.428  1.00  0.00     0.001 A 
HETATM   15  C16 UNL     1      22.770   2.770  52.546  1.00  0.00     0.009 A 
ENDBRANCH   9  10
ENDBRANCH   7   9
ENDBRANCH   3   7
BRANCH   1  16
HETATM   16  O1  UNL     1      26.400  -0.932  53.908  1.00  0.00    -0.295 OA
BRANCH  16  17
HETATM   17  C6  UNL     1      27.136   0.164  54.334  1.00  0.00     0.070 C 
HETATM   18  C1  UNL     1      26.542   1.329  54.192  1.00  0.00     0.007 C 
HETATM   19  C2  UNL     1      27.209   2.346  53.670  1.00  0.00     0.014 C 
HETATM   20  C3  UNL     1      28.611   2.130  53.307  1.00  0.00    -0.003 C 
HETATM   21  C4  UNL     1      29.266   1.143  53.925  1.00  0.00    -0.020 C 
HETATM   22  C5  UNL     1      28.491   0.351  54.938  1.00  0.00     0.093 C 
ENDBRANCH  16  17
ENDBRANCH   1  16
TORSDOF 5
ENDMDL
