MODEL 1
REMARK VINA RESULT:      -7.9      0.000      0.000
REMARK  6 active torsions:
REMARK  status: ('A' for Active; 'I' for Inactive)
REMARK    1  A    between atoms: O1_1  and  O2_2 
REMARK    2  A    between atoms: O2_2  and  N1_3 
REMARK    3  A    between atoms: N1_3  and  O3_4 
REMARK    4  A    between atoms: O3_4  and  C1_5 
REMARK    5  A    between atoms: C6_12  and  N4_13 
REMARK    6  A    between atoms: N4_13  and  C7_14 
ROOT
HETATM    1  C1  UNL     1      26.711  -0.313  52.726  1.00  0.00     0.107 A 
HETATM    2  C2  UNL     1      25.946   0.641  52.124  1.00  0.00     0.153 A 
HETATM    3  C3  UNL     1      24.469   0.870  52.439  1.00  0.00     0.053 A 
HETATM    4  C4  UNL     1      24.529   1.951  51.415  1.00  0.00     0.013 A 
HETATM    5  N2  UNL     1      24.583   1.027  52.253  1.00  0.00     0.000 N 
HETATM    6  C5  UNL     1      25.367   0.114  52.816  1.00  0.00     0.101 A 
HETATM    7  N3  UNL     1      24.219   0.511  52.860  1.00  0.00    -0.278 N 
HETATM    8  C6  UNL     1      23.113   0.636  53.142  1.00  0.00     0.175 A 
ENDROOT
BRANCH   8   9
HETATM    9  N4  UNL     1      22.355  -0.082  54.028  1.00  0.00    -0.380 N 
HETATM   10  H5  UNL     1      22.476  -0.569  54.931  1.00  0.00     0.157 HD
BRANCH   9  11
HETATM   11  C7  UNL     1      21.243   0.105  53.190  1.00  0.00     0.127 C 
HETATM   12  C8  UNL     1      20.847   1.479  52.935  1.00  0.00     0.002 C 
HETATM   13  C9  UNL     1      19.771   1.935  52.279  1.00  0.00     0.001 C 
HETATM   14  C10 UNL     1      18.740   1.089  51.669  1.00  0.00     0.044 C 
HETATM   15  C11 UNL     1      18.358  -0.173  51.948  1.00  0.00     0.137 C 
HETATM   16  F1  UNL     1      17.378  -0.776  51.257  1.00  0.00    -0.204 F 
HETATM   17  C12 UNL     1      19.013  -0.911  53.033  1.00  0.00     0.071 C 
HETATM   18 CL1  UNL     1      18.026  -2.200  53.722  1.00  0.00    -0.081 Cl
HETATM   19  C13 UNL     1      20.195  -0.856  53.605  1.00  0.00     0.028 C 
ENDBRANCH   9  11
ENDBRANCH   8   9
BRANCH   1  20
HETATM   20  O3  UNL     1      27.435  -1.244  53.321  1.00  0.00    -0.248 OA
BRANCH  20  21
HETATM   21  N1  UNL     1      28.593  -1.440  53.828  1.00  0.00    -0.140 N 
HETATM   22  H2  UNL     1      29.240  -0.682  54.024  1.00  0.00     0.226 HD
BRANCH  21  23
HETATM   23  O2  UNL     1      29.254  -2.514  53.386  1.00  0.00    -0.094 OA
BRANCH  23  24
HETATM   24  O1  UNL     1      28.488  -3.584  53.431  1.00  0.00    -0.225 OA
HETATM   25  H1  UNL     1      28.853  -4.199  54.114  1.00  0.00     0.256 HD
ENDBRANCH  23  24
ENDBRANCH  21  23
ENDBRANCH  20  21
ENDBRANCH   1  20
TORSDOF 6
ENDMDL
MODEL 2
REMARK VINA RESULT:      -7.9      6.248      7.729
REMARK  6 active torsions:
REMARK  status: ('A' for Active; 'I' for Inactive)
REMARK    1  A    between atoms: O1_1  and  O2_2 
REMARK    2  A    between atoms: O2_2  and  N1_3 
REMARK    3  A    between atoms: N1_3  and  O3_4 
REMARK    4  A    between atoms: O3_4  and  C1_5 
REMARK    5  A    between atoms: C6_12  and  N4_13 
REMARK    6  A    between atoms: N4_13  and  C7_14 
ROOT
HETATM    1  C1  UNL     1      25.519   5.866  49.565  1.00  0.00     0.107 A 
HETATM    2  C2  UNL     1      24.755   4.752  49.385  1.00  0.00     0.153 A 
HETATM    3  C3  UNL     1      24.446   3.746  50.492  1.00  0.00     0.053 A 
HETATM    4  C4  UNL     1      23.675   3.005  49.455  1.00  0.00     0.013 A 
HETATM    5  N2  UNL     1      24.345   3.698  50.247  1.00  0.00     0.000 N 
HETATM    6  C5  UNL     1      25.079   4.798  50.377  1.00  0.00     0.101 A 
HETATM    7  N3  UNL     1      24.681   3.860  51.041  1.00  0.00    -0.278 N 
HETATM    8  C6  UNL     1      24.481   3.142  51.914  1.00  0.00     0.175 A 
ENDROOT
BRANCH   8   9
HETATM    9  N4  UNL     1      24.937   3.195  53.204  1.00  0.00    -0.380 N 
HETATM   10  H5  UNL     1      24.881   3.828  54.018  1.00  0.00     0.157 HD
BRANCH   9  11
HETATM   11  C7  UNL     1      25.562   1.952  53.007  1.00  0.00     0.127 C 
HETATM   12  C8  UNL     1      24.749   0.772  53.243  1.00  0.00     0.002 C 
HETATM   13  C9  UNL     1      25.118  -0.516  53.244  1.00  0.00     0.001 C 
HETATM   14  C10 UNL     1      26.482  -0.998  52.998  1.00  0.00     0.044 C 
HETATM   15  C11 UNL     1      27.673  -0.387  53.152  1.00  0.00     0.137 C 
HETATM   16  F1  UNL     1      28.823  -1.014  52.862  1.00  0.00    -0.204 F 
HETATM   17  C12 UNL     1      27.727   0.990  53.654  1.00  0.00     0.071 C 
HETATM   18 CL1  UNL     1      29.254   1.411  54.430  1.00  0.00    -0.081 Cl
HETATM   19  C13 UNL     1      26.901   2.012  53.639  1.00  0.00     0.028 C 
ENDBRANCH   9  11
ENDBRANCH   8   9
BRANCH   1  20
HETATM   20  O3  UNL     1      26.262   6.941  49.759  1.00  0.00    -0.248 OA
BRANCH  20  21
HETATM   21  N1  UNL     1      26.445   7.896  50.590  1.00  0.00    -0.140 N 
HETATM   22  H2  UNL     1      25.692   8.288  51.148  1.00  0.00     0.226 HD
BRANCH  21  23
HETATM   23  O2  UNL     1      27.289   8.858  50.206  1.00  0.00    -0.094 OA
BRANCH  23  24
HETATM   24  O1  UNL     1      27.682   9.574  51.239  1.00  0.00    -0.225 OA
HETATM   25  H1  UNL     1      28.468   9.130  51.642  1.00  0.00     0.256 HD
ENDBRANCH  23  24
ENDBRANCH  21  23
ENDBRANCH  20  21
ENDBRANCH   1  20
TORSDOF 6
ENDMDL
MODEL 3
REMARK VINA RESULT:      -7.7      1.936      2.214
REMARK  6 active torsions:
REMARK  status: ('A' for Active; 'I' for Inactive)
REMARK    1  A    between atoms: O1_1  and  O2_2 
REMARK    2  A    between atoms: O2_2  and  N1_3 
REMARK    3  A    between atoms: N1_3  and  O3_4 
REMARK    4  A    between atoms: O3_4  and  C1_5 
REMARK    5  A    between atoms: C6_12  and  N4_13 
REMARK    6  A    between atoms: N4_13  and  C7_14 
ROOT
HETATM    1  C1  UNL     1      27.108   0.458  53.975  1.00  0.00     0.107 A 
HETATM    2  C2  UNL     1      26.235   1.436  53.604  1.00  0.00     0.153 A 
HETATM    3  C3  UNL     1      24.749   1.197  53.345  1.00  0.00     0.053 A 
HETATM    4  C4  UNL     1      24.678   2.652  53.035  1.00  0.00     0.013 A 
HETATM    5  N2  UNL     1      24.843   1.447  53.314  1.00  0.00     0.000 N 
HETATM    6  C5  UNL     1      25.728   0.527  53.681  1.00  0.00     0.101 A 
HETATM    7  N3  UNL     1      24.546   0.629  53.417  1.00  0.00    -0.278 N 
HETATM    8  C6  UNL     1      23.437   0.386  53.240  1.00  0.00     0.175 A 
ENDROOT
BRANCH   8   9
HETATM    9  N4  UNL     1      22.789  -0.817  53.312  1.00  0.00    -0.380 N 
HETATM   10  H5  UNL     1      23.001  -1.794  53.574  1.00  0.00     0.157 HD
BRANCH   9  11
HETATM   11  C7  UNL     1      21.617  -0.185  52.867  1.00  0.00     0.127 C 
HETATM   12  C8  UNL     1      20.360  -0.762  53.310  1.00  0.00     0.002 C 
HETATM   13  C9  UNL     1      19.111  -0.436  52.948  1.00  0.00     0.001 C 
HETATM   14  C10 UNL     1      18.765   0.617  51.986  1.00  0.00     0.044 C 
HETATM   15  C11 UNL     1      19.477   1.156  50.978  1.00  0.00     0.137 C 
HETATM   16  F1  UNL     1      18.969   2.128  50.204  1.00  0.00    -0.204 F 
HETATM   17  C12 UNL     1      20.835   0.676  50.704  1.00  0.00     0.071 C 
HETATM   18 CL1  UNL     1      21.368   0.937  49.043  1.00  0.00    -0.081 Cl
HETATM   19  C13 UNL     1      21.778   0.109  51.424  1.00  0.00     0.028 C 
ENDBRANCH   9  11
ENDBRANCH   8   9
BRANCH   1  20
HETATM   20  O3  UNL     1      27.938  -0.505  54.335  1.00  0.00    -0.248 OA
BRANCH  20  21
HETATM   21  N1  UNL     1      28.721  -1.389  53.843  1.00  0.00    -0.140 N 
HETATM   22  H2  UNL     1      29.629  -1.158  53.451  1.00  0.00     0.226 HD
BRANCH  21  23
HETATM   23  O2  UNL     1      28.140  -2.359  53.132  1.00  0.00    -0.094 OA
BRANCH  23  24
HETATM   24  O1  UNL     1      28.636  -3.535  53.457  1.00  0.00    -0.225 OA
HETATM   25  H1  UNL     1      28.868  -3.519  54.418  1.00  0.00     0.256 HD
ENDBRANCH  23  24
ENDBRANCH  21  23
ENDBRANCH  20  21
ENDBRANCH   1  20
TORSDOF 6
ENDMDL
MODEL 4
REMARK VINA RESULT:      -7.7      4.823      6.500
REMARK  6 active torsions:
REMARK  status: ('A' for Active; 'I' for Inactive)
REMARK    1  A    between atoms: O1_1  and  O2_2 
REMARK    2  A    between atoms: O2_2  and  N1_3 
REMARK    3  A    between atoms: N1_3  and  O3_4 
REMARK    4  A    between atoms: O3_4  and  C1_5 
REMARK    5  A    between atoms: C6_12  and  N4_13 
REMARK    6  A    between atoms: N4_13  and  C7_14 
ROOT
HETATM    1  C1  UNL     1      25.465  -0.504  53.518  1.00  0.00     0.107 A 
HETATM    2  C2  UNL     1      24.508   0.438  53.282  1.00  0.00     0.153 A 
HETATM    3  C3  UNL     1      24.660   1.566  52.262  1.00  0.00     0.053 A 
HETATM    4  C4  UNL     1      23.300   1.993  52.695  1.00  0.00     0.013 A 
HETATM    5  N2  UNL     1      24.431   1.555  52.404  1.00  0.00     0.000 N 
HETATM    6  C5  UNL     1      25.333   0.614  52.665  1.00  0.00     0.101 A 
HETATM    7  N3  UNL     1      25.179   1.584  51.948  1.00  0.00    -0.278 N 
HETATM    8  C6  UNL     1      25.351   2.407  51.165  1.00  0.00     0.175 A 
ENDROOT
BRANCH   8   9
HETATM    9  N4  UNL     1      26.449   2.647  50.384  1.00  0.00    -0.380 N 
HETATM   10  H5  UNL     1      27.350   2.195  50.158  1.00  0.00     0.157 HD
BRANCH   9  11
HETATM   11  C7  UNL     1      25.849   3.840  49.950  1.00  0.00     0.127 C 
HETATM   12  C8  UNL     1      24.529   3.724  49.355  1.00  0.00     0.002 C 
HETATM   13  C9  UNL     1      23.789   4.671  48.761  1.00  0.00     0.001 C 
HETATM   14  C10 UNL     1      24.197   6.070  48.590  1.00  0.00     0.044 C 
HETATM   15  C11 UNL     1      25.422   6.630  48.543  1.00  0.00     0.137 C 
HETATM   16  F1  UNL     1      25.580   7.953  48.380  1.00  0.00    -0.204 F 
HETATM   17  C12 UNL     1      26.616   5.788  48.665  1.00  0.00     0.071 C 
HETATM   18 CL1  UNL     1      28.062   6.483  47.935  1.00  0.00    -0.081 Cl
HETATM   19  C13 UNL     1      26.873   4.626  49.224  1.00  0.00     0.028 C 
ENDBRANCH   9  11
ENDBRANCH   8   9
BRANCH   1  20
HETATM   20  O3  UNL     1      26.404  -1.408  53.733  1.00  0.00    -0.248 OA
BRANCH  20  21
HETATM   21  N1  UNL     1      27.606  -1.700  53.410  1.00  0.00    -0.140 N 
HETATM   22  H2  UNL     1      28.273  -1.001  53.096  1.00  0.00     0.226 HD
BRANCH  21  23
HETATM   23  O2  UNL     1      27.773  -2.839  52.732  1.00  0.00    -0.094 OA
BRANCH  23  24
HETATM   24  O1  UNL     1      28.597  -3.644  53.371  1.00  0.00    -0.225 OA
HETATM   25  H1  UNL     1      28.075  -4.407  53.721  1.00  0.00     0.256 HD
ENDBRANCH  23  24
ENDBRANCH  21  23
ENDBRANCH  20  21
ENDBRANCH   1  20
TORSDOF 6
ENDMDL
MODEL 5
REMARK VINA RESULT:      -7.5      3.543      4.800
REMARK  6 active torsions:
REMARK  status: ('A' for Active; 'I' for Inactive)
REMARK    1  A    between atoms: O1_1  and  O2_2 
REMARK    2  A    between atoms: O2_2  and  N1_3 
REMARK    3  A    between atoms: N1_3  and  O3_4 
REMARK    4  A    between atoms: O3_4  and  C1_5 
REMARK    5  A    between atoms: C6_12  and  N4_13 
REMARK    6  A    between atoms: N4_13  and  C7_14 
ROOT
HETATM    1  C1  UNL     1      26.196  -0.623  53.714  1.00  0.00     0.107 A 
HETATM    2  C2  UNL     1      24.869  -0.542  53.416  1.00  0.00     0.153 A 
HETATM    3  C3  UNL     1      24.132   0.772  53.169  1.00  0.00     0.053 A 
HETATM    4  C4  UNL     1      22.920  -0.070  52.965  1.00  0.00     0.013 A 
HETATM    5  N2  UNL     1      23.989   0.544  53.154  1.00  0.00     0.000 N 
HETATM    6  C5  UNL     1      25.280   0.417  53.443  1.00  0.00     0.101 A 
HETATM    7  N3  UNL     1      24.460   1.282  53.206  1.00  0.00    -0.278 N 
HETATM    8  C6  UNL     1      23.962   2.302  53.028  1.00  0.00     0.175 A 
ENDROOT
BRANCH   8   9
HETATM    9  N4  UNL     1      24.504   3.557  53.097  1.00  0.00    -0.380 N 
HETATM   10  H5  UNL     1      25.032   4.134  53.772  1.00  0.00     0.157 HD
BRANCH   9  11
HETATM   11  C7  UNL     1      24.050   3.799  51.790  1.00  0.00     0.127 C 
HETATM   12  C8  UNL     1      25.026   3.650  50.725  1.00  0.00     0.002 C 
HETATM   13  C9  UNL     1      24.896   3.928  49.421  1.00  0.00     0.001 C 
HETATM   14  C10 UNL     1      23.682   4.465  48.795  1.00  0.00     0.044 C 
HETATM   15  C11 UNL     1      22.666   5.180  49.316  1.00  0.00     0.137 C 
HETATM   16  F1  UNL     1      21.631   5.578  48.560  1.00  0.00    -0.204 F 
HETATM   17  C12 UNL     1      22.682   5.546  50.736  1.00  0.00     0.071 C 
HETATM   18 CL1  UNL     1      21.726   6.977  51.120  1.00  0.00    -0.081 Cl
HETATM   19  C13 UNL     1      23.230   5.033  51.815  1.00  0.00     0.028 C 
ENDBRANCH   9  11
ENDBRANCH   8   9
BRANCH   1  20
HETATM   20  O3  UNL     1      27.484  -0.680  54.002  1.00  0.00    -0.248 OA
BRANCH  20  21
HETATM   21  N1  UNL     1      28.500  -1.451  53.901  1.00  0.00    -0.140 N 
HETATM   22  H2  UNL     1      29.454  -1.114  54.000  1.00  0.00     0.226 HD
BRANCH  21  23
HETATM   23  O2  UNL     1      28.435  -2.389  52.952  1.00  0.00    -0.094 OA
BRANCH  23  24
HETATM   24  O1  UNL     1      28.596  -3.589  53.472  1.00  0.00    -0.225 OA
HETATM   25  H1  UNL     1      28.160  -3.602  54.359  1.00  0.00     0.256 HD
ENDBRANCH  23  24
ENDBRANCH  21  23
ENDBRANCH  20  21
ENDBRANCH   1  20
TORSDOF 6
ENDMDL
MODEL 6
REMARK VINA RESULT:      -7.5      5.198      7.653
REMARK  6 active torsions:
REMARK  status: ('A' for Active; 'I' for Inactive)
REMARK    1  A    between atoms: O1_1  and  O2_2 
REMARK    2  A    between atoms: O2_2  and  N1_3 
REMARK    3  A    between atoms: N1_3  and  O3_4 
REMARK    4  A    between atoms: O3_4  and  C1_5 
REMARK    5  A    between atoms: C6_12  and  N4_13 
REMARK    6  A    between atoms: N4_13  and  C7_14 
ROOT
HETATM    1  C1  UNL     1      20.423  -0.877  53.850  1.00  0.00     0.107 A 
HETATM    2  C2  UNL     1      21.505  -1.178  54.621  1.00  0.00     0.153 A 
HETATM    3  C3  UNL     1      22.932  -0.747  54.290  1.00  0.00     0.053 A 
HETATM    4  C4  UNL     1      23.323  -1.462  55.537  1.00  0.00     0.013 A 
HETATM    5  N2  UNL     1      22.894  -0.892  54.513  1.00  0.00     0.000 N 
HETATM    6  C5  UNL     1      21.810  -0.619  53.794  1.00  0.00     0.101 A 
HETATM    7  N3  UNL     1      23.009  -0.420  53.783  1.00  0.00    -0.278 N 
HETATM    8  C6  UNL     1      24.059  -0.064  53.482  1.00  0.00     0.175 A 
ENDROOT
BRANCH   8   9
HETATM    9  N4  UNL     1      24.453   0.643  52.378  1.00  0.00    -0.380 N 
HETATM   10  H5  UNL     1      24.034   1.019  51.512  1.00  0.00     0.157 HD
BRANCH   9  11
HETATM   11  C7  UNL     1      25.756   0.685  52.900  1.00  0.00     0.127 C 
HETATM   12  C8  UNL     1      26.548   1.858  52.574  1.00  0.00     0.002 C 
HETATM   13  C9  UNL     1      27.839   2.100  52.839  1.00  0.00     0.001 C 
HETATM   14  C10 UNL     1      28.739   1.177  53.539  1.00  0.00     0.044 C 
HETATM   15  C11 UNL     1      28.693  -0.163  53.677  1.00  0.00     0.137 C 
HETATM   16  F1  UNL     1      29.629  -0.827  54.372  1.00  0.00    -0.204 F 
HETATM   17  C12 UNL     1      27.606  -0.924  53.053  1.00  0.00     0.071 C 
HETATM   18 CL1  UNL     1      28.005  -2.610  52.726  1.00  0.00    -0.081 Cl
HETATM   19  C13 UNL     1      26.370  -0.648  52.697  1.00  0.00     0.028 C 
ENDBRANCH   9  11
ENDBRANCH   8   9
BRANCH   1  20
HETATM   20  O3  UNL     1      19.386  -0.575  53.089  1.00  0.00    -0.248 OA
BRANCH  20  21
HETATM   21  N1  UNL     1      18.203  -0.968  52.804  1.00  0.00    -0.140 N 
HETATM   22  H2  UNL     1      17.923  -1.943  52.859  1.00  0.00     0.226 HD
BRANCH  21  23
HETATM   23  O2  UNL     1      17.621  -0.376  51.758  1.00  0.00    -0.094 OA
BRANCH  23  24
HETATM   24  O1  UNL     1      18.523   0.006  50.878  1.00  0.00    -0.225 OA
HETATM   25  H1  UNL     1      18.234  -0.303  49.984  1.00  0.00     0.256 HD
ENDBRANCH  23  24
ENDBRANCH  21  23
ENDBRANCH  20  21
ENDBRANCH   1  20
TORSDOF 6
ENDMDL
MODEL 7
REMARK VINA RESULT:      -7.4      3.253      4.283
REMARK  6 active torsions:
REMARK  status: ('A' for Active; 'I' for Inactive)
REMARK    1  A    between atoms: O1_1  and  O2_2 
REMARK    2  A    between atoms: O2_2  and  N1_3 
REMARK    3  A    between atoms: N1_3  and  O3_4 
REMARK    4  A    between atoms: O3_4  and  C1_5 
REMARK    5  A    between atoms: C6_12  and  N4_13 
REMARK    6  A    between atoms: N4_13  and  C7_14 
ROOT
HETATM    1  C1  UNL     1      25.572  -0.632  53.852  1.00  0.00     0.107 A 
HETATM    2  C2  UNL     1      24.293  -0.210  53.647  1.00  0.00     0.153 A 
HETATM    3  C3  UNL     1      23.931   1.108  52.965  1.00  0.00     0.053 A 
HETATM    4  C4  UNL     1      22.513   0.715  53.198  1.00  0.00     0.013 A 
HETATM    5  N2  UNL     1      23.729   0.952  53.051  1.00  0.00     0.000 N 
HETATM    6  C5  UNL     1      24.960   0.499  53.267  1.00  0.00     0.101 A 
HETATM    7  N3  UNL     1      24.393   1.455  52.776  1.00  0.00    -0.278 N 
HETATM    8  C6  UNL     1      24.184   2.457  52.254  1.00  0.00     0.175 A 
ENDROOT
BRANCH   8   9
HETATM    9  N4  UNL     1      25.067   3.394  51.788  1.00  0.00    -0.380 N 
HETATM   10  H5  UNL     1      26.074   3.613  51.866  1.00  0.00     0.157 HD
BRANCH   9  11
HETATM   11  C7  UNL     1      24.012   4.005  51.090  1.00  0.00     0.127 C 
HETATM   12  C8  UNL     1      22.914   4.517  51.891  1.00  0.00     0.002 C 
HETATM   13  C9  UNL     1      21.746   5.033  51.483  1.00  0.00     0.001 C 
HETATM   14  C10 UNL     1      21.339   5.181  50.081  1.00  0.00     0.044 C 
HETATM   15  C11 UNL     1      21.728   4.515  48.976  1.00  0.00     0.137 C 
HETATM   16  F1  UNL     1      21.227   4.812  47.768  1.00  0.00    -0.204 F 
HETATM   17  C12 UNL     1      22.715   3.436  49.084  1.00  0.00     0.071 C 
HETATM   18 CL1  UNL     1      22.628   2.251  47.780  1.00  0.00    -0.081 Cl
HETATM   19  C13 UNL     1      23.685   3.151  49.924  1.00  0.00     0.028 C 
ENDBRANCH   9  11
ENDBRANCH   8   9
BRANCH   1  20
HETATM   20  O3  UNL     1      26.820  -1.023  54.040  1.00  0.00    -0.248 OA
BRANCH  20  21
HETATM   21  N1  UNL     1      27.824  -1.508  53.413  1.00  0.00    -0.140 N 
HETATM   22  H2  UNL     1      28.402  -0.950  52.792  1.00  0.00     0.226 HD
BRANCH  21  23
HETATM   23  O2  UNL     1      27.672  -2.742  52.924  1.00  0.00    -0.094 OA
BRANCH  23  24
HETATM   24  O1  UNL     1      28.627  -3.537  53.361  1.00  0.00    -0.225 OA
HETATM   25  H1  UNL     1      29.198  -3.787  52.593  1.00  0.00     0.256 HD
ENDBRANCH  23  24
ENDBRANCH  21  23
ENDBRANCH  20  21
ENDBRANCH   1  20
TORSDOF 6
ENDMDL
MODEL 8
REMARK VINA RESULT:      -7.2      4.005      4.868
REMARK  6 active torsions:
REMARK  status: ('A' for Active; 'I' for Inactive)
REMARK    1  A    between atoms: O1_1  and  O2_2 
REMARK    2  A    between atoms: O2_2  and  N1_3 
REMARK    3  A    between atoms: N1_3  and  O3_4 
REMARK    4  A    between atoms: O3_4  and  C1_5 
REMARK    5  A    between atoms: C6_12  and  N4_13 
REMARK    6  A    between atoms: N4_13  and  C7_14 
ROOT
HETATM    1  C1  UNL     1      26.886   0.311  54.478  1.00  0.00     0.107 A 
HETATM    2  C2  UNL     1      25.682  -0.024  53.936  1.00  0.00     0.153 A 
HETATM    3  C3  UNL     1      24.753   0.974  53.246  1.00  0.00     0.053 A 
HETATM    4  C4  UNL     1      23.838  -0.184  53.042  1.00  0.00     0.013 A 
HETATM    5  N2  UNL     1      24.672   0.717  53.262  1.00  0.00     0.000 N 
HETATM    6  C5  UNL     1      25.855   0.997  53.800  1.00  0.00     0.101 A 
HETATM    7  N3  UNL     1      24.943   1.550  53.215  1.00  0.00    -0.278 N 
HETATM    8  C6  UNL     1      24.290   2.345  52.706  1.00  0.00     0.175 A 
ENDROOT
BRANCH   8   9
HETATM    9  N4  UNL     1      24.512   3.689  52.562  1.00  0.00    -0.380 N 
HETATM   10  H5  UNL     1      25.068   4.433  53.014  1.00  0.00     0.157 HD
BRANCH   9  11
HETATM   11  C7  UNL     1      23.634   3.691  51.465  1.00  0.00     0.127 C 
HETATM   12  C8  UNL     1      24.159   3.174  50.213  1.00  0.00     0.002 C 
HETATM   13  C9  UNL     1      23.586   3.167  49.002  1.00  0.00     0.001 C 
HETATM   14  C10 UNL     1      22.257   3.711  48.699  1.00  0.00     0.044 C 
HETATM   15  C11 UNL     1      21.530   4.658  49.324  1.00  0.00     0.137 C 
HETATM   16  F1  UNL     1      20.315   5.013  48.880  1.00  0.00    -0.204 F 
HETATM   17  C12 UNL     1      22.069   5.327  50.513  1.00  0.00     0.071 C 
HETATM   18 CL1  UNL     1      21.385   6.925  50.809  1.00  0.00    -0.081 Cl
HETATM   19  C13 UNL     1      22.940   4.999  51.442  1.00  0.00     0.028 C 
ENDBRANCH   9  11
ENDBRANCH   8   9
BRANCH   1  20
HETATM   20  O3  UNL     1      28.051   0.656  54.997  1.00  0.00    -0.248 OA
BRANCH  20  21
HETATM   21  N1  UNL     1      29.034   1.453  54.813  1.00  0.00    -0.140 N 
HETATM   22  H2  UNL     1      29.814   1.519  55.461  1.00  0.00     0.226 HD
BRANCH  21  23
HETATM   23  O2  UNL     1      28.730   2.659  54.326  1.00  0.00    -0.094 OA
BRANCH  23  24
HETATM   24  O1  UNL     1      29.175   2.789  53.093  1.00  0.00    -0.225 OA
HETATM   25  H1  UNL     1      29.904   3.458  53.096  1.00  0.00     0.256 HD
ENDBRANCH  23  24
ENDBRANCH  21  23
ENDBRANCH  20  21
ENDBRANCH   1  20
TORSDOF 6
ENDMDL
MODEL 9
REMARK VINA RESULT:      -7.1      5.418      6.840
REMARK  6 active torsions:
REMARK  status: ('A' for Active; 'I' for Inactive)
REMARK    1  A    between atoms: O1_1  and  O2_2 
REMARK    2  A    between atoms: O2_2  and  N1_3 
REMARK    3  A    between atoms: N1_3  and  O3_4 
REMARK    4  A    between atoms: O3_4  and  C1_5 
REMARK    5  A    between atoms: C6_12  and  N4_13 
REMARK    6  A    between atoms: N4_13  and  C7_14 
ROOT
HETATM    1  C1  UNL     1      26.249   6.652  49.321  1.00  0.00     0.107 A 
HETATM    2  C2  UNL     1      26.266   5.294  49.219  1.00  0.00     0.153 A 
HETATM    3  C3  UNL     1      25.516   4.360  50.167  1.00  0.00     0.053 A 
HETATM    4  C4  UNL     1      26.088   3.250  49.354  1.00  0.00     0.013 A 
HETATM    5  N2  UNL     1      25.661   4.248  49.970  1.00  0.00     0.000 N 
HETATM    6  C5  UNL     1      25.670   5.576  50.029  1.00  0.00     0.101 A 
HETATM    7  N3  UNL     1      25.193   4.621  50.611  1.00  0.00    -0.278 N 
HETATM    8  C6  UNL     1      24.606   3.971  51.354  1.00  0.00     0.175 A 
ENDROOT
BRANCH   8   9
HETATM    9  N4  UNL     1      23.853   4.351  52.433  1.00  0.00    -0.380 N 
HETATM   10  H5  UNL     1      23.461   5.219  52.834  1.00  0.00     0.157 HD
BRANCH   9  11
HETATM   11  C7  UNL     1      23.789   3.005  52.830  1.00  0.00     0.127 C 
HETATM   12  C8  UNL     1      25.049   2.371  53.177  1.00  0.00     0.002 C 
HETATM   13  C9  UNL     1      25.289   1.086  53.473  1.00  0.00     0.001 C 
HETATM   14  C10 UNL     1      24.273   0.027  53.499  1.00  0.00     0.044 C 
HETATM   15  C11 UNL     1      23.085  -0.068  52.870  1.00  0.00     0.137 C 
HETATM   16  F1  UNL     1      22.291  -1.137  53.035  1.00  0.00    -0.204 F 
HETATM   17  C12 UNL     1      22.642   1.008  51.978  1.00  0.00     0.071 C 
HETATM   18 CL1  UNL     1      21.486   0.492  50.751  1.00  0.00    -0.081 Cl
HETATM   19  C13 UNL     1      22.888   2.297  51.893  1.00  0.00     0.028 C 
ENDBRANCH   9  11
ENDBRANCH   8   9
BRANCH   1  20
HETATM   20  O3  UNL     1      26.219   7.968  49.437  1.00  0.00    -0.248 OA
BRANCH  20  21
HETATM   21  N1  UNL     1      25.777   8.898  50.196  1.00  0.00    -0.140 N 
HETATM   22  H2  UNL     1      24.824   9.244  50.138  1.00  0.00     0.226 HD
BRANCH  21  23
HETATM   23  O2  UNL     1      26.622   9.901  50.452  1.00  0.00    -0.094 OA
BRANCH  23  24
HETATM   24  O1  UNL     1      27.622   9.487  51.204  1.00  0.00    -0.225 OA
HETATM   25  H1  UNL     1      27.951   8.630  50.837  1.00  0.00     0.256 HD
ENDBRANCH  23  24
ENDBRANCH  21  23
ENDBRANCH  20  21
ENDBRANCH   1  20
TORSDOF 6
ENDMDL
