MODEL 1
REMARK VINA RESULT:      -7.8      0.000      0.000
REMARK  9 active torsions:
REMARK  status: ('A' for Active; 'I' for Inactive)
REMARK    1  A    between atoms: O1_2  and  C2_3 
REMARK    2  A    between atoms: C6_9  and  N3_10 
REMARK    3  A    between atoms: N3_10  and  C7_11 
REMARK    4  A    between atoms: C15_21  and  O2_22 
REMARK    5  A    between atoms: O2_22  and  C16_23 
REMARK    6  A    between atoms: C16_23  and  C17_24 
REMARK    7  A    between atoms: C17_24  and  O3_25 
REMARK    8  A    between atoms: C17_24  and  C18_26 
REMARK    9  A    between atoms: C18_26  and  N4_27 
ROOT
HETATM    1  C2  UNL     1      20.951   2.997  52.164  1.00  0.00     0.103 A 
HETATM    2  C3  UNL     1      20.341   2.031  52.963  1.00  0.00     0.072 A 
HETATM    3  C4  UNL     1      21.140   0.976  53.347  1.00  0.00     0.075 A 
HETATM    4  N1  UNL     1      20.623   0.020  54.109  1.00  0.00    -0.241 NA
HETATM    5  C5  UNL     1      21.351  -1.031  54.513  1.00  0.00     0.236 A 
HETATM    6  N2  UNL     1      22.639  -1.165  54.165  1.00  0.00    -0.224 NA
HETATM    7  C6  UNL     1      23.230  -0.222  53.386  1.00  0.00     0.142 A 
HETATM    8  C13 UNL     1      22.462   0.844  52.986  1.00  0.00     0.042 A 
HETATM    9  C14 UNL     1      23.011   1.828  52.196  1.00  0.00     0.057 A 
HETATM   10  C15 UNL     1      22.274   2.905  51.779  1.00  0.00     0.103 A 
ENDROOT
BRANCH   7  11
HETATM   11  N3  UNL     1      24.587  -0.406  53.046  1.00  0.00    -0.340 N 
HETATM   12  H6  UNL     1      24.858  -1.101  52.318  1.00  0.00     0.167 HD
BRANCH  11  13
HETATM   13  C7  UNL     1      25.898  -0.015  53.289  1.00  0.00     0.035 A 
HETATM   14  C8  UNL     1      26.209   1.308  53.604  1.00  0.00     0.032 A 
HETATM   15  C9  UNL     1      27.503   1.755  53.861  1.00  0.00     0.046 A 
HETATM   16  C10 UNL     1      28.452   0.775  53.778  1.00  0.00     0.138 A 
HETATM   17  F1  UNL     1      29.741   1.169  54.024  1.00  0.00    -0.204 F 
HETATM   18  C11 UNL     1      28.285  -0.553  53.480  1.00  0.00     0.074 A 
HETATM   19 CL1  UNL     1      29.595  -1.698  53.408  1.00  0.00    -0.081 Cl
HETATM   20  C12 UNL     1      26.961  -0.914  53.237  1.00  0.00     0.056 A 
ENDBRANCH  11  13
ENDBRANCH   7  11
BRANCH  10  21
HETATM   21  O2  UNL     1      22.794   3.922  50.978  1.00  0.00    -0.346 OA
BRANCH  21  22
HETATM   22  C16 UNL     1      24.043   4.498  51.339  1.00  0.00     0.209 C 
BRANCH  22  23
HETATM   23  C17 UNL     1      24.070   5.978  51.086  1.00  0.00     0.170 C 
BRANCH  23  24
HETATM   24  O3  UNL     1      24.408   6.687  52.215  1.00  0.00    -0.392 OA
HETATM   25  H14 UNL     1      24.280   7.652  52.130  1.00  0.00     0.210 HD
ENDBRANCH  23  24
BRANCH  23  26
HETATM   26  C18 UNL     1      22.779   6.438  50.443  1.00  0.00     0.300 C 
BRANCH  26  27
HETATM   27  N4  UNL     1      21.760   6.714  51.431  1.00  0.00     0.080 N 
HETATM   28  H17 UNL     1      20.936   7.078  50.883  1.00  0.00     0.312 HD
HETATM   29  H18 UNL     1      21.436   5.861  51.916  1.00  0.00     0.312 HD
ENDBRANCH  26  27
ENDBRANCH  23  26
ENDBRANCH  22  23
ENDBRANCH  21  22
ENDBRANCH  10  21
BRANCH   1  30
HETATM   30  O1  UNL     1      20.204   4.063  51.756  1.00  0.00    -0.353 OA
HETATM   31  C1  UNL     1      19.291   4.076  50.704  1.00  0.00     0.210 C 
ENDBRANCH   1  30
TORSDOF 9
ENDMDL
MODEL 2
REMARK VINA RESULT:      -7.7      2.698      4.851
REMARK  9 active torsions:
REMARK  status: ('A' for Active; 'I' for Inactive)
REMARK    1  A    between atoms: O1_2  and  C2_3 
REMARK    2  A    between atoms: C6_9  and  N3_10 
REMARK    3  A    between atoms: N3_10  and  C7_11 
REMARK    4  A    between atoms: C15_21  and  O2_22 
REMARK    5  A    between atoms: O2_22  and  C16_23 
REMARK    6  A    between atoms: C16_23  and  C17_24 
REMARK    7  A    between atoms: C17_24  and  O3_25 
REMARK    8  A    between atoms: C17_24  and  C18_26 
REMARK    9  A    between atoms: C18_26  and  N4_27 
ROOT
HETATM    1  C2  UNL     1      21.736   1.368  50.335  1.00  0.00     0.103 A 
HETATM    2  C3  UNL     1      22.232   2.364  49.495  1.00  0.00     0.072 A 
HETATM    3  C4  UNL     1      23.469   2.871  49.830  1.00  0.00     0.075 A 
HETATM    4  N1  UNL     1      24.003   3.823  49.074  1.00  0.00    -0.241 NA
HETATM    5  C5  UNL     1      25.202   4.353  49.351  1.00  0.00     0.236 A 
HETATM    6  N2  UNL     1      25.921   3.946  50.407  1.00  0.00    -0.224 NA
HETATM    7  C6  UNL     1      25.434   2.975  51.222  1.00  0.00     0.142 A 
HETATM    8  C13 UNL     1      24.203   2.448  50.916  1.00  0.00     0.042 A 
HETATM    9  C14 UNL     1      23.662   1.461  51.709  1.00  0.00     0.057 A 
HETATM   10  C15 UNL     1      22.437   0.914  51.433  1.00  0.00     0.103 A 
ENDROOT
BRANCH   7  11
HETATM   11  N3  UNL     1      26.226   2.579  52.320  1.00  0.00    -0.340 N 
HETATM   12  H6  UNL     1      26.193   3.115  53.214  1.00  0.00     0.167 HD
BRANCH  11  13
HETATM   13  C7  UNL     1      27.158   1.665  52.798  1.00  0.00     0.035 A 
HETATM   14  C8  UNL     1      28.272   2.086  53.526  1.00  0.00     0.032 A 
HETATM   15  C9  UNL     1      29.233   1.216  54.032  1.00  0.00     0.046 A 
HETATM   16  C10 UNL     1      28.990  -0.100  53.754  1.00  0.00     0.138 A 
HETATM   17  F1  UNL     1      29.911  -0.993  54.234  1.00  0.00    -0.204 F 
HETATM   18  C11 UNL     1      27.943  -0.645  53.056  1.00  0.00     0.074 A 
HETATM   19 CL1  UNL     1      27.757  -2.354  52.774  1.00  0.00    -0.081 Cl
HETATM   20  C12 UNL     1      27.028   0.295  52.584  1.00  0.00     0.056 A 
ENDBRANCH  11  13
ENDBRANCH   7  11
BRANCH  10  21
HETATM   21  O2  UNL     1      21.855  -0.087  52.213  1.00  0.00    -0.346 OA
BRANCH  21  22
HETATM   22  C16 UNL     1      22.660  -0.744  53.184  1.00  0.00     0.209 C 
BRANCH  22  23
HETATM   23  C17 UNL     1      22.059  -0.661  54.558  1.00  0.00     0.170 C 
BRANCH  23  24
HETATM   24  O3  UNL     1      21.955  -1.898  55.150  1.00  0.00    -0.392 OA
HETATM   25  H14 UNL     1      22.696  -2.501  54.941  1.00  0.00     0.210 HD
ENDBRANCH  23  24
BRANCH  23  26
HETATM   26  C18 UNL     1      20.758   0.112  54.530  1.00  0.00     0.300 C 
BRANCH  26  27
HETATM   27  N4  UNL     1      19.672  -0.692  54.014  1.00  0.00     0.080 N 
HETATM   28  H17 UNL     1      18.940  -0.685  54.773  1.00  0.00     0.312 HD
HETATM   29  H18 UNL     1      19.231  -0.274  53.179  1.00  0.00     0.312 HD
ENDBRANCH  26  27
ENDBRANCH  23  26
ENDBRANCH  22  23
ENDBRANCH  21  22
ENDBRANCH  10  21
BRANCH   1  30
HETATM   30  O1  UNL     1      20.513   0.832  50.048  1.00  0.00    -0.353 OA
HETATM   31  C1  UNL     1      19.277   1.434  50.271  1.00  0.00     0.210 C 
ENDBRANCH   1  30
TORSDOF 9
ENDMDL
MODEL 3
REMARK VINA RESULT:      -7.7      1.343      1.680
REMARK  9 active torsions:
REMARK  status: ('A' for Active; 'I' for Inactive)
REMARK    1  A    between atoms: O1_2  and  C2_3 
REMARK    2  A    between atoms: C6_9  and  N3_10 
REMARK    3  A    between atoms: N3_10  and  C7_11 
REMARK    4  A    between atoms: C15_21  and  O2_22 
REMARK    5  A    between atoms: O2_22  and  C16_23 
REMARK    6  A    between atoms: C16_23  and  C17_24 
REMARK    7  A    between atoms: C17_24  and  O3_25 
REMARK    8  A    between atoms: C17_24  and  C18_26 
REMARK    9  A    between atoms: C18_26  and  N4_27 
ROOT
HETATM    1  C2  UNL     1      20.608   2.632  52.444  1.00  0.00     0.103 A 
HETATM    2  C3  UNL     1      20.326   1.578  53.311  1.00  0.00     0.072 A 
HETATM    3  C4  UNL     1      21.377   0.731  53.589  1.00  0.00     0.075 A 
HETATM    4  N1  UNL     1      21.179  -0.295  54.407  1.00  0.00    -0.241 NA
HETATM    5  C5  UNL     1      22.164  -1.152  54.714  1.00  0.00     0.236 A 
HETATM    6  N2  UNL     1      23.397  -1.012  54.206  1.00  0.00    -0.224 NA
HETATM    7  C6  UNL     1      23.667   0.017  53.363  1.00  0.00     0.142 A 
HETATM    8  C13 UNL     1      22.642   0.881  53.065  1.00  0.00     0.042 A 
HETATM    9  C14 UNL     1      22.861   1.941  52.215  1.00  0.00     0.057 A 
HETATM   10  C15 UNL     1      21.860   2.820  51.897  1.00  0.00     0.103 A 
ENDROOT
BRANCH   7  11
HETATM   11  N3  UNL     1      24.979   0.124  52.855  1.00  0.00    -0.340 N 
HETATM   12  H6  UNL     1      25.144   0.499  51.896  1.00  0.00     0.167 HD
BRANCH  11  13
HETATM   13  C7  UNL     1      26.331  -0.078  53.105  1.00  0.00     0.035 A 
HETATM   14  C8  UNL     1      26.937  -1.307  52.841  1.00  0.00     0.032 A 
HETATM   15  C9  UNL     1      28.286  -1.565  53.067  1.00  0.00     0.046 A 
HETATM   16  C10 UNL     1      28.975  -0.499  53.575  1.00  0.00     0.138 A 
HETATM   17  F1  UNL     1      30.307  -0.707  53.813  1.00  0.00    -0.204 F 
HETATM   18  C11 UNL     1      28.507   0.754  53.879  1.00  0.00     0.074 A 
HETATM   19 CL1  UNL     1      29.504   2.026  54.525  1.00  0.00    -0.081 Cl
HETATM   20  C12 UNL     1      27.147   0.926  53.622  1.00  0.00     0.056 A 
ENDBRANCH  11  13
ENDBRANCH   7  11
BRANCH  10  21
HETATM   21  O2  UNL     1      22.043   3.906  51.038  1.00  0.00    -0.346 OA
BRANCH  21  22
HETATM   22  C16 UNL     1      23.175   3.907  50.178  1.00  0.00     0.209 C 
BRANCH  22  23
HETATM   23  C17 UNL     1      24.204   4.913  50.607  1.00  0.00     0.170 C 
BRANCH  23  24
HETATM   24  O3  UNL     1      25.362   4.312  51.043  1.00  0.00    -0.392 OA
HETATM   25  H14 UNL     1      25.712   3.636  50.430  1.00  0.00     0.210 HD
ENDBRANCH  23  24
BRANCH  23  26
HETATM   26  C18 UNL     1      23.616   5.894  51.599  1.00  0.00     0.300 C 
BRANCH  26  27
HETATM   27  N4  UNL     1      24.514   6.998  51.853  1.00  0.00     0.080 N 
HETATM   28  H17 UNL     1      24.332   7.277  52.854  1.00  0.00     0.312 HD
HETATM   29  H18 UNL     1      25.508   6.720  51.804  1.00  0.00     0.312 HD
ENDBRANCH  26  27
ENDBRANCH  23  26
ENDBRANCH  22  23
ENDBRANCH  21  22
ENDBRANCH  10  21
BRANCH   1  30
HETATM   30  O1  UNL     1      19.601   3.501  52.135  1.00  0.00    -0.353 OA
HETATM   31  C1  UNL     1      18.373   3.171  51.564  1.00  0.00     0.210 C 
ENDBRANCH   1  30
TORSDOF 9
ENDMDL
MODEL 4
REMARK VINA RESULT:      -7.6      2.494      2.811
REMARK  9 active torsions:
REMARK  status: ('A' for Active; 'I' for Inactive)
REMARK    1  A    between atoms: O1_2  and  C2_3 
REMARK    2  A    between atoms: C6_9  and  N3_10 
REMARK    3  A    between atoms: N3_10  and  C7_11 
REMARK    4  A    between atoms: C15_21  and  O2_22 
REMARK    5  A    between atoms: O2_22  and  C16_23 
REMARK    6  A    between atoms: C16_23  and  C17_24 
REMARK    7  A    between atoms: C17_24  and  O3_25 
REMARK    8  A    between atoms: C17_24  and  C18_26 
REMARK    9  A    between atoms: C18_26  and  N4_27 
ROOT
HETATM    1  C2  UNL     1      22.889   2.770  49.454  1.00  0.00     0.103 A 
HETATM    2  C3  UNL     1      22.015   1.851  50.032  1.00  0.00     0.072 A 
HETATM    3  C4  UNL     1      22.471   1.219  51.169  1.00  0.00     0.075 A 
HETATM    4  N1  UNL     1      21.690   0.332  51.771  1.00  0.00    -0.241 NA
HETATM    5  C5  UNL     1      22.079  -0.314  52.879  1.00  0.00     0.236 A 
HETATM    6  N2  UNL     1      23.281  -0.092  53.432  1.00  0.00    -0.224 NA
HETATM    7  C6  UNL     1      24.130   0.805  52.866  1.00  0.00     0.142 A 
HETATM    8  C13 UNL     1      23.706   1.453  51.732  1.00  0.00     0.042 A 
HETATM    9  C14 UNL     1      24.527   2.371  51.118  1.00  0.00     0.057 A 
HETATM   10  C15 UNL     1      24.135   3.034  49.985  1.00  0.00     0.103 A 
ENDROOT
BRANCH   7  11
HETATM   11  N3  UNL     1      25.382   1.005  53.484  1.00  0.00    -0.340 N 
HETATM   12  H6  UNL     1      25.477   1.676  54.277  1.00  0.00     0.167 HD
BRANCH  11  13
HETATM   13  C7  UNL     1      26.727   0.654  53.503  1.00  0.00     0.035 A 
HETATM   14  C8  UNL     1      27.718   1.609  53.733  1.00  0.00     0.032 A 
HETATM   15  C9  UNL     1      29.078   1.313  53.768  1.00  0.00     0.046 A 
HETATM   16  C10 UNL     1      29.362  -0.007  53.555  1.00  0.00     0.138 A 
HETATM   17  F1  UNL     1      30.689  -0.344  53.581  1.00  0.00    -0.204 F 
HETATM   18  C11 UNL     1      28.493  -1.040  53.319  1.00  0.00     0.074 A 
HETATM   19 CL1  UNL     1      28.997  -2.687  53.063  1.00  0.00    -0.081 Cl
HETATM   20  C12 UNL     1      27.152  -0.657  53.301  1.00  0.00     0.056 A 
ENDBRANCH  11  13
ENDBRANCH   7  11
BRANCH  10  21
HETATM   21  O2  UNL     1      24.939   3.972  49.334  1.00  0.00    -0.346 OA
BRANCH  21  22
HETATM   22  C16 UNL     1      26.346   3.909  49.528  1.00  0.00     0.209 C 
BRANCH  22  23
HETATM   23  C17 UNL     1      27.056   5.041  48.842  1.00  0.00     0.170 C 
BRANCH  23  24
HETATM   24  O3  UNL     1      28.415   4.999  49.051  1.00  0.00    -0.392 OA
HETATM   25  H14 UNL     1      28.786   4.095  49.064  1.00  0.00     0.210 HD
ENDBRANCH  23  24
BRANCH  23  26
HETATM   26  C18 UNL     1      26.426   6.369  49.203  1.00  0.00     0.300 C 
BRANCH  26  27
HETATM   27  N4  UNL     1      27.421   7.406  49.364  1.00  0.00     0.080 N 
HETATM   28  H17 UNL     1      27.214   8.107  48.604  1.00  0.00     0.312 HD
HETATM   29  H18 UNL     1      27.327   7.909  50.261  1.00  0.00     0.312 HD
ENDBRANCH  26  27
ENDBRANCH  23  26
ENDBRANCH  22  23
ENDBRANCH  21  22
ENDBRANCH  10  21
BRANCH   1  30
HETATM   30  O1  UNL     1      22.486   3.423  48.325  1.00  0.00    -0.353 OA
HETATM   31  C1  UNL     1      21.458   4.359  48.237  1.00  0.00     0.210 C 
ENDBRANCH   1  30
TORSDOF 9
ENDMDL
MODEL 5
REMARK VINA RESULT:      -7.6      4.369      6.790
REMARK  9 active torsions:
REMARK  status: ('A' for Active; 'I' for Inactive)
REMARK    1  A    between atoms: O1_2  and  C2_3 
REMARK    2  A    between atoms: C6_9  and  N3_10 
REMARK    3  A    between atoms: N3_10  and  C7_11 
REMARK    4  A    between atoms: C15_21  and  O2_22 
REMARK    5  A    between atoms: O2_22  and  C16_23 
REMARK    6  A    between atoms: C16_23  and  C17_24 
REMARK    7  A    between atoms: C17_24  and  O3_25 
REMARK    8  A    between atoms: C17_24  and  C18_26 
REMARK    9  A    between atoms: C18_26  and  N4_27 
ROOT
HETATM    1  C2  UNL     1      24.839   0.652  53.462  1.00  0.00     0.103 A 
HETATM    2  C3  UNL     1      23.709   0.360  52.700  1.00  0.00     0.072 A 
HETATM    3  C4  UNL     1      23.400   1.270  51.711  1.00  0.00     0.075 A 
HETATM    4  N1  UNL     1      22.336   1.055  50.947  1.00  0.00    -0.241 NA
HETATM    5  C5  UNL     1      21.986   1.904  49.971  1.00  0.00     0.236 A 
HETATM    6  N2  UNL     1      22.697   3.014  49.721  1.00  0.00    -0.224 NA
HETATM    7  C6  UNL     1      23.797   3.294  50.466  1.00  0.00     0.142 A 
HETATM    8  C13 UNL     1      24.134   2.407  51.460  1.00  0.00     0.042 A 
HETATM    9  C14 UNL     1      25.239   2.643  52.245  1.00  0.00     0.057 A 
HETATM   10  C15 UNL     1      25.603   1.780  53.244  1.00  0.00     0.103 A 
ENDROOT
BRANCH   7  11
HETATM   11  N3  UNL     1      24.512   4.472  50.166  1.00  0.00    -0.340 N 
HETATM   12  H6  UNL     1      24.202   5.390  50.552  1.00  0.00     0.167 HD
BRANCH  11  13
HETATM   13  C7  UNL     1      25.595   5.022  49.489  1.00  0.00     0.035 A 
HETATM   14  C8  UNL     1      26.760   4.285  49.275  1.00  0.00     0.032 A 
HETATM   15  C9  UNL     1      27.872   4.782  48.600  1.00  0.00     0.046 A 
HETATM   16  C10 UNL     1      27.722   6.068  48.160  1.00  0.00     0.138 A 
HETATM   17  F1  UNL     1      28.792   6.598  47.490  1.00  0.00    -0.204 F 
HETATM   18  C11 UNL     1      26.640   6.898  48.302  1.00  0.00     0.074 A 
HETATM   19 CL1  UNL     1      26.586   8.526  47.687  1.00  0.00    -0.081 Cl
HETATM   20  C12 UNL     1      25.572   6.321  48.989  1.00  0.00     0.056 A 
ENDBRANCH  11  13
ENDBRANCH   7  11
BRANCH  10  21
HETATM   21  O2  UNL     1      26.716   1.985  54.061  1.00  0.00    -0.346 OA
BRANCH  21  22
HETATM   22  C16 UNL     1      27.998   2.068  53.452  1.00  0.00     0.209 C 
BRANCH  22  23
HETATM   23  C17 UNL     1      29.033   1.292  54.218  1.00  0.00     0.170 C 
BRANCH  23  24
HETATM   24  O3  UNL     1      30.090   0.919  53.421  1.00  0.00    -0.392 OA
HETATM   25  H14 UNL     1      30.708   0.296  53.850  1.00  0.00     0.210 HD
ENDBRANCH  23  24
BRANCH  23  26
HETATM   26  C18 UNL     1      28.397   0.139  54.964  1.00  0.00     0.300 C 
BRANCH  26  27
HETATM   27  N4  UNL     1      28.032  -0.938  54.070  1.00  0.00     0.080 N 
HETATM   28  H17 UNL     1      27.869  -0.477  53.136  1.00  0.00     0.312 HD
HETATM   29  H18 UNL     1      28.799  -1.616  53.932  1.00  0.00     0.312 HD
ENDBRANCH  26  27
ENDBRANCH  23  26
ENDBRANCH  22  23
ENDBRANCH  21  22
ENDBRANCH  10  21
BRANCH   1  30
HETATM   30  O1  UNL     1      25.189  -0.217  54.455  1.00  0.00    -0.353 OA
HETATM   31  C1  UNL     1      24.345  -1.122  55.096  1.00  0.00     0.210 C 
ENDBRANCH   1  30
TORSDOF 9
ENDMDL
MODEL 6
REMARK VINA RESULT:      -7.5      3.851      6.673
REMARK  9 active torsions:
REMARK  status: ('A' for Active; 'I' for Inactive)
REMARK    1  A    between atoms: O1_2  and  C2_3 
REMARK    2  A    between atoms: C6_9  and  N3_10 
REMARK    3  A    between atoms: N3_10  and  C7_11 
REMARK    4  A    between atoms: C15_21  and  O2_22 
REMARK    5  A    between atoms: O2_22  and  C16_23 
REMARK    6  A    between atoms: C16_23  and  C17_24 
REMARK    7  A    between atoms: C17_24  and  O3_25 
REMARK    8  A    between atoms: C17_24  and  C18_26 
REMARK    9  A    between atoms: C18_26  and  N4_27 
ROOT
HETATM    1  C2  UNL     1      26.380   4.023  49.683  1.00  0.00     0.103 A 
HETATM    2  C3  UNL     1      25.325   4.681  49.053  1.00  0.00     0.072 A 
HETATM    3  C4  UNL     1      24.077   4.483  49.605  1.00  0.00     0.075 A 
HETATM    4  N1  UNL     1      23.027   5.079  49.056  1.00  0.00    -0.241 NA
HETATM    5  C5  UNL     1      21.790   4.924  49.549  1.00  0.00     0.236 A 
HETATM    6  N2  UNL     1      21.556   4.156  50.624  1.00  0.00    -0.224 NA
HETATM    7  C6  UNL     1      22.587   3.517  51.234  1.00  0.00     0.142 A 
HETATM    8  C13 UNL     1      23.844   3.693  50.710  1.00  0.00     0.042 A 
HETATM    9  C14 UNL     1      24.925   3.069  51.290  1.00  0.00     0.057 A 
HETATM   10  C15 UNL     1      26.191   3.223  50.791  1.00  0.00     0.103 A 
ENDROOT
BRANCH   7  11
HETATM   11  N3  UNL     1      22.293   2.721  52.361  1.00  0.00    -0.340 N 
HETATM   12  H6  UNL     1      22.212   3.155  53.306  1.00  0.00     0.167 HD
BRANCH  11  13
HETATM   13  C7  UNL     1      22.027   1.439  52.828  1.00  0.00     0.035 A 
HETATM   14  C8  UNL     1      23.051   0.617  53.299  1.00  0.00     0.032 A 
HETATM   15  C9  UNL     1      22.842  -0.672  53.783  1.00  0.00     0.046 A 
HETATM   16  C10 UNL     1      21.534  -1.067  53.757  1.00  0.00     0.138 A 
HETATM   17  F1  UNL     1      21.281  -2.329  54.225  1.00  0.00    -0.204 F 
HETATM   18  C11 UNL     1      20.438  -0.364  53.325  1.00  0.00     0.074 A 
HETATM   19 CL1  UNL     1      18.815  -0.996  53.349  1.00  0.00    -0.081 Cl
HETATM   20  C12 UNL     1      20.737   0.915  52.857  1.00  0.00     0.056 A 
ENDBRANCH  11  13
ENDBRANCH   7  11
BRANCH  10  21
HETATM   21  O2  UNL     1      27.312   2.605  51.351  1.00  0.00    -0.346 OA
BRANCH  21  22
HETATM   22  C16 UNL     1      27.142   1.840  52.537  1.00  0.00     0.209 C 
BRANCH  22  23
HETATM   23  C17 UNL     1      28.277   2.041  53.500  1.00  0.00     0.170 C 
BRANCH  23  24
HETATM   24  O3  UNL     1      29.187   2.964  53.038  1.00  0.00    -0.392 OA
HETATM   25  H14 UNL     1      28.843   3.879  53.009  1.00  0.00     0.210 HD
ENDBRANCH  23  24
BRANCH  23  26
HETATM   26  C18 UNL     1      28.898   0.715  53.884  1.00  0.00     0.300 C 
BRANCH  26  27
HETATM   27  N4  UNL     1      28.028  -0.050  54.749  1.00  0.00     0.080 N 
HETATM   28  H17 UNL     1      28.244  -1.060  54.534  1.00  0.00     0.312 HD
HETATM   29  H18 UNL     1      28.243   0.088  55.750  1.00  0.00     0.312 HD
ENDBRANCH  26  27
ENDBRANCH  23  26
ENDBRANCH  22  23
ENDBRANCH  21  22
ENDBRANCH  10  21
BRANCH   1  30
HETATM   30  O1  UNL     1      27.636   4.185  49.176  1.00  0.00    -0.353 OA
HETATM   31  C1  UNL     1      28.103   5.289  48.466  1.00  0.00     0.210 C 
ENDBRANCH   1  30
TORSDOF 9
ENDMDL
MODEL 7
REMARK VINA RESULT:      -7.4      4.126      6.611
REMARK  9 active torsions:
REMARK  status: ('A' for Active; 'I' for Inactive)
REMARK    1  A    between atoms: O1_2  and  C2_3 
REMARK    2  A    between atoms: C6_9  and  N3_10 
REMARK    3  A    between atoms: N3_10  and  C7_11 
REMARK    4  A    between atoms: C15_21  and  O2_22 
REMARK    5  A    between atoms: O2_22  and  C16_23 
REMARK    6  A    between atoms: C16_23  and  C17_24 
REMARK    7  A    between atoms: C17_24  and  O3_25 
REMARK    8  A    between atoms: C17_24  and  C18_26 
REMARK    9  A    between atoms: C18_26  and  N4_27 
ROOT
HETATM    1  C2  UNL     1      24.072  -0.037  53.521  1.00  0.00     0.103 A 
HETATM    2  C3  UNL     1      22.827   0.442  53.118  1.00  0.00     0.072 A 
HETATM    3  C4  UNL     1      22.841   1.369  52.097  1.00  0.00     0.075 A 
HETATM    4  N1  UNL     1      21.691   1.867  51.663  1.00  0.00    -0.241 NA
HETATM    5  C5  UNL     1      21.642   2.771  50.674  1.00  0.00     0.236 A 
HETATM    6  N2  UNL     1      22.758   3.215  50.077  1.00  0.00    -0.224 NA
HETATM    7  C6  UNL     1      23.969   2.746  50.473  1.00  0.00     0.142 A 
HETATM    8  C13 UNL     1      23.991   1.820  51.488  1.00  0.00     0.042 A 
HETATM    9  C14 UNL     1      25.191   1.311  51.928  1.00  0.00     0.057 A 
HETATM   10  C15 UNL     1      25.249   0.388  52.938  1.00  0.00     0.103 A 
ENDROOT
BRANCH   7  11
HETATM   11  N3  UNL     1      25.114   3.242  49.815  1.00  0.00    -0.340 N 
HETATM   12  H6  UNL     1      25.884   2.595  49.538  1.00  0.00     0.167 HD
BRANCH  11  13
HETATM   13  C7  UNL     1      25.753   4.365  49.305  1.00  0.00     0.035 A 
HETATM   14  C8  UNL     1      25.051   5.547  49.065  1.00  0.00     0.032 A 
HETATM   15  C9  UNL     1      25.641   6.703  48.561  1.00  0.00     0.046 A 
HETATM   16  C10 UNL     1      26.980   6.580  48.317  1.00  0.00     0.138 A 
HETATM   17  F1  UNL     1      27.601   7.695  47.820  1.00  0.00    -0.204 F 
HETATM   18  C11 UNL     1      27.785   5.487  48.506  1.00  0.00     0.074 A 
HETATM   19 CL1  UNL     1      29.490   5.470  48.150  1.00  0.00    -0.081 Cl
HETATM   20  C12 UNL     1      27.115   4.374  49.013  1.00  0.00     0.056 A 
ENDBRANCH  11  13
ENDBRANCH   7  11
BRANCH  10  21
HETATM   21  O2  UNL     1      26.447  -0.151  53.412  1.00  0.00    -0.346 OA
BRANCH  21  22
HETATM   22  C16 UNL     1      26.962   0.327  54.648  1.00  0.00     0.209 C 
BRANCH  22  23
HETATM   23  C17 UNL     1      28.456   0.192  54.720  1.00  0.00     0.170 C 
BRANCH  23  24
HETATM   24  O3  UNL     1      29.070   1.395  54.986  1.00  0.00    -0.392 OA
HETATM   25  H14 UNL     1      29.861   1.318  55.553  1.00  0.00     0.210 HD
ENDBRANCH  23  24
BRANCH  23  26
HETATM   26  C18 UNL     1      28.993  -0.506  53.489  1.00  0.00     0.300 C 
BRANCH  26  27
HETATM   27  N4  UNL     1      28.704  -1.923  53.511  1.00  0.00     0.080 N 
HETATM   28  H17 UNL     1      28.693  -2.186  54.532  1.00  0.00     0.312 HD
HETATM   29  H18 UNL     1      27.763  -2.141  53.143  1.00  0.00     0.312 HD
ENDBRANCH  26  27
ENDBRANCH  23  26
ENDBRANCH  22  23
ENDBRANCH  21  22
ENDBRANCH  10  21
BRANCH   1  30
HETATM   30  O1  UNL     1      24.115  -0.957  54.529  1.00  0.00    -0.353 OA
HETATM   31  C1  UNL     1      23.037  -1.380  55.305  1.00  0.00     0.210 C 
ENDBRANCH   1  30
TORSDOF 9
ENDMDL
MODEL 8
REMARK VINA RESULT:      -7.4      3.628      5.853
REMARK  9 active torsions:
REMARK  status: ('A' for Active; 'I' for Inactive)
REMARK    1  A    between atoms: O1_2  and  C2_3 
REMARK    2  A    between atoms: C6_9  and  N3_10 
REMARK    3  A    between atoms: N3_10  and  C7_11 
REMARK    4  A    between atoms: C15_21  and  O2_22 
REMARK    5  A    between atoms: O2_22  and  C16_23 
REMARK    6  A    between atoms: C16_23  and  C17_24 
REMARK    7  A    between atoms: C17_24  and  O3_25 
REMARK    8  A    between atoms: C17_24  and  C18_26 
REMARK    9  A    between atoms: C18_26  and  N4_27 
ROOT
HETATM    1  C2  UNL     1      24.363  -0.674  54.249  1.00  0.00     0.103 A 
HETATM    2  C3  UNL     1      22.995  -0.824  54.025  1.00  0.00     0.072 A 
HETATM    3  C4  UNL     1      22.471  -0.087  52.985  1.00  0.00     0.075 A 
HETATM    4  N1  UNL     1      21.176  -0.182  52.716  1.00  0.00    -0.241 NA
HETATM    5  C5  UNL     1      20.610   0.511  51.718  1.00  0.00     0.236 A 
HETATM    6  N2  UNL     1      21.330   1.335  50.942  1.00  0.00    -0.224 NA
HETATM    7  C6  UNL     1      22.663   1.478  51.163  1.00  0.00     0.142 A 
HETATM    8  C13 UNL     1      23.217   0.757  52.192  1.00  0.00     0.042 A 
HETATM    9  C14 UNL     1      24.563   0.865  52.460  1.00  0.00     0.057 A 
HETATM   10  C15 UNL     1      25.147   0.161  53.479  1.00  0.00     0.103 A 
ENDROOT
BRANCH   7  11
HETATM   11  N3  UNL     1      23.378   2.356  50.321  1.00  0.00    -0.340 N 
HETATM   12  H6  UNL     1      23.503   2.131  49.311  1.00  0.00     0.167 HD
BRANCH  11  13
HETATM   13  C7  UNL     1      24.085   3.549  50.236  1.00  0.00     0.035 A 
HETATM   14  C8  UNL     1      23.627   4.705  50.868  1.00  0.00     0.032 A 
HETATM   15  C9  UNL     1      24.296   5.926  50.820  1.00  0.00     0.046 A 
HETATM   16  C10 UNL     1      25.453   5.893  50.094  1.00  0.00     0.138 A 
HETATM   17  F1  UNL     1      26.146   7.072  50.021  1.00  0.00    -0.204 F 
HETATM   18  C11 UNL     1      26.014   4.834  49.429  1.00  0.00     0.074 A 
HETATM   19 CL1  UNL     1      27.506   4.935  48.536  1.00  0.00    -0.081 Cl
HETATM   20  C12 UNL     1      25.280   3.652  49.528  1.00  0.00     0.056 A 
ENDBRANCH  11  13
ENDBRANCH   7  11
BRANCH  10  21
HETATM   21  O2  UNL     1      26.508   0.244  53.781  1.00  0.00    -0.346 OA
BRANCH  21  22
HETATM   22  C16 UNL     1      27.391   0.764  52.796  1.00  0.00     0.209 C 
BRANCH  22  23
HETATM   23  C17 UNL     1      27.718   2.209  53.044  1.00  0.00     0.170 C 
BRANCH  23  24
HETATM   24  O3  UNL     1      27.734   2.940  51.878  1.00  0.00    -0.392 OA
HETATM   25  H14 UNL     1      27.909   2.406  51.079  1.00  0.00     0.210 HD
ENDBRANCH  23  24
BRANCH  23  26
HETATM   26  C18 UNL     1      28.983   2.341  53.863  1.00  0.00     0.300 C 
BRANCH  26  27
HETATM   27  N4  UNL     1      28.992   1.424  54.982  1.00  0.00     0.080 N 
HETATM   28  H17 UNL     1      28.289   0.679  54.732  1.00  0.00     0.312 HD
HETATM   29  H18 UNL     1      29.900   0.944  55.093  1.00  0.00     0.312 HD
ENDBRANCH  26  27
ENDBRANCH  23  26
ENDBRANCH  22  23
ENDBRANCH  21  22
ENDBRANCH  10  21
BRANCH   1  30
HETATM   30  O1  UNL     1      24.932  -1.382  55.267  1.00  0.00    -0.353 OA
HETATM   31  C1  UNL     1      24.975  -1.007  56.609  1.00  0.00     0.210 C 
ENDBRANCH   1  30
TORSDOF 9
ENDMDL
MODEL 9
REMARK VINA RESULT:      -7.2      4.339      6.562
REMARK  9 active torsions:
REMARK  status: ('A' for Active; 'I' for Inactive)
REMARK    1  A    between atoms: O1_2  and  C2_3 
REMARK    2  A    between atoms: C6_9  and  N3_10 
REMARK    3  A    between atoms: N3_10  and  C7_11 
REMARK    4  A    between atoms: C15_21  and  O2_22 
REMARK    5  A    between atoms: O2_22  and  C16_23 
REMARK    6  A    between atoms: C16_23  and  C17_24 
REMARK    7  A    between atoms: C17_24  and  O3_25 
REMARK    8  A    between atoms: C17_24  and  C18_26 
REMARK    9  A    between atoms: C18_26  and  N4_27 
ROOT
HETATM    1  C2  UNL     1      27.029   1.621  52.952  1.00  0.00     0.103 A 
HETATM    2  C3  UNL     1      26.826   0.579  53.856  1.00  0.00     0.072 A 
HETATM    3  C4  UNL     1      25.525   0.144  53.989  1.00  0.00     0.075 A 
HETATM    4  N1  UNL     1      25.259  -0.846  54.833  1.00  0.00    -0.241 NA
HETATM    5  C5  UNL     1      24.014  -1.311  55.005  1.00  0.00     0.236 A 
HETATM    6  N2  UNL     1      22.975  -0.795  54.331  1.00  0.00    -0.224 NA
HETATM    7  C6  UNL     1      23.177   0.220  53.452  1.00  0.00     0.142 A 
HETATM    8  C13 UNL     1      24.463   0.677  53.294  1.00  0.00     0.042 A 
HETATM    9  C14 UNL     1      24.724   1.705  52.416  1.00  0.00     0.057 A 
HETATM   10  C15 UNL     1      25.994   2.185  52.235  1.00  0.00     0.103 A 
ENDROOT
BRANCH   7  11
HETATM   11  N3  UNL     1      22.054   0.730  52.766  1.00  0.00    -0.340 N 
HETATM   12  H6  UNL     1      22.040   1.721  52.442  1.00  0.00     0.167 HD
BRANCH  11  13
HETATM   13  C7  UNL     1      20.788   0.453  52.265  1.00  0.00     0.035 A 
HETATM   14  C8  UNL     1      20.399   0.902  51.002  1.00  0.00     0.032 A 
HETATM   15  C9  UNL     1      19.146   0.650  50.448  1.00  0.00     0.046 A 
HETATM   16  C10 UNL     1      18.322  -0.082  51.256  1.00  0.00     0.138 A 
HETATM   17  F1  UNL     1      17.078  -0.354  50.751  1.00  0.00    -0.204 F 
HETATM   18  C11 UNL     1      18.576  -0.581  52.507  1.00  0.00     0.074 A 
HETATM   19 CL1  UNL     1      17.424  -1.505  53.430  1.00  0.00    -0.081 Cl
HETATM   20  C12 UNL     1      19.852  -0.284  52.986  1.00  0.00     0.056 A 
ENDBRANCH  11  13
ENDBRANCH   7  11
BRANCH  10  21
HETATM   21  O2  UNL     1      26.298   3.225  51.354  1.00  0.00    -0.346 OA
BRANCH  21  22
HETATM   22  C16 UNL     1      26.430   2.925  49.971  1.00  0.00     0.209 C 
BRANCH  22  23
HETATM   23  C17 UNL     1      26.724   4.154  49.158  1.00  0.00     0.170 C 
BRANCH  23  24
HETATM   24  O3  UNL     1      27.943   4.706  49.481  1.00  0.00    -0.392 OA
HETATM   25  H14 UNL     1      27.911   5.318  50.242  1.00  0.00     0.210 HD
ENDBRANCH  23  24
BRANCH  23  26
HETATM   26  C18 UNL     1      25.574   5.135  49.231  1.00  0.00     0.300 C 
BRANCH  26  27
HETATM   27  N4  UNL     1      25.673   5.987  50.395  1.00  0.00     0.080 N 
HETATM   28  H17 UNL     1      26.125   5.389  51.136  1.00  0.00     0.312 HD
HETATM   29  H18 UNL     1      26.301   6.793  50.245  1.00  0.00     0.312 HD
ENDBRANCH  26  27
ENDBRANCH  23  26
ENDBRANCH  22  23
ENDBRANCH  21  22
ENDBRANCH  10  21
BRANCH   1  30
HETATM   30  O1  UNL     1      28.299   2.090  52.782  1.00  0.00    -0.353 OA
HETATM   31  C1  UNL     1      29.193   2.435  53.794  1.00  0.00     0.210 C 
ENDBRANCH   1  30
TORSDOF 9
ENDMDL
