MODEL 1
REMARK VINA RESULT:      -7.1      0.000      0.000
REMARK  6 active torsions:
REMARK  status: ('A' for Active; 'I' for Inactive)
REMARK    1  A    between atoms: N2_8  and  C7_9 
REMARK    2  A    between atoms: C9_13  and  C10_14 
REMARK    3  A    between atoms: C10_14  and  C11_15 
REMARK    4  A    between atoms: C11_15  and  O1_16 
REMARK    5  A    between atoms: O1_16  and  C12_17 
REMARK    6  A    between atoms: C12_17  and  C13_18 
ROOT
HETATM    1  C7  UNL     1      25.183  -0.524  54.102  1.00  0.00     0.107 A 
HETATM    2  N3  UNL     1      25.303  -1.065  55.241  1.00  0.00    -0.229 NA
HETATM    3  C8  UNL     1      24.264  -1.495  56.064  1.00  0.00     0.229 A 
HETATM    4  N4  UNL     1      23.076  -1.358  55.706  1.00  0.00    -0.277 NA
HETATM    5  C9  UNL     1      22.698  -0.760  54.457  1.00  0.00     0.118 A 
HETATM    6  C17 UNL     1      23.808  -0.385  53.547  1.00  0.00     0.105 A 
ENDROOT
BRANCH   5   7
HETATM    7  C10 UNL     1      21.748  -1.749  53.805  1.00  0.00     0.054 C 
BRANCH   7   8
HETATM    8  C11 UNL     1      20.304  -1.375  53.909  1.00  0.00     0.169 C 
BRANCH   8   9
HETATM    9  O1  UNL     1      20.091  -0.025  53.746  1.00  0.00    -0.388 OA
BRANCH   9  10
HETATM   10  C12 UNL     1      19.578   0.248  52.497  1.00  0.00     0.201 C 
BRANCH  10  11
HETATM   11  C13 UNL     1      20.474   1.261  51.766  1.00  0.00     0.173 C 
HETATM   12  C14 UNL     1      21.366   0.519  50.799  1.00  0.00     0.303 C 
HETATM   13  N5  UNL     1      22.328   1.429  50.231  1.00  0.00     0.088 N 
HETATM   14  C15 UNL     1      22.110   2.794  50.670  1.00  0.00     0.295 C 
HETATM   15  H23 UNL     1      22.304   1.428  49.188  1.00  0.00     0.316 HD
HETATM   16  C16 UNL     1      22.095   2.843  52.190  1.00  0.00     0.198 C 
HETATM   17  O2  UNL     1      21.232   1.924  52.735  1.00  0.00    -0.380 OA
ENDBRANCH  10  11
ENDBRANCH   9  10
ENDBRANCH   8   9
ENDBRANCH   7   8
ENDBRANCH   5   7
BRANCH   1  18
HETATM   18  N2  UNL     1      26.090  -0.021  53.126  1.00  0.00    -0.336 N 
HETATM   19  C2  UNL     1      26.489   1.364  52.875  1.00  0.00     0.319 C 
HETATM   20  C1  UNL     1      25.771   2.347  53.716  1.00  0.00     0.066 C 
HETATM   21  N1  UNL     1      27.948   1.482  52.922  1.00  0.00     0.109 N 
HETATM   22  C3  UNL     1      28.531   0.760  54.028  1.00  0.00     0.299 C 
HETATM   23  H5  UNL     1      28.170   2.492  52.994  1.00  0.00     0.318 HD
HETATM   24  C4  UNL     1      28.770  -0.673  53.715  1.00  0.00     0.000 C 
HETATM   25  C5  UNL     1      27.949  -1.440  52.991  1.00  0.00    -0.009 C 
HETATM   26  C6  UNL     1      26.637  -1.117  52.323  1.00  0.00     0.153 C 
ENDBRANCH   1  18
TORSDOF 6
ENDMDL
MODEL 2
REMARK VINA RESULT:      -7.0      1.733      4.020
REMARK  6 active torsions:
REMARK  status: ('A' for Active; 'I' for Inactive)
REMARK    1  A    between atoms: N2_8  and  C7_9 
REMARK    2  A    between atoms: C9_13  and  C10_14 
REMARK    3  A    between atoms: C10_14  and  C11_15 
REMARK    4  A    between atoms: C11_15  and  O1_16 
REMARK    5  A    between atoms: O1_16  and  C12_17 
REMARK    6  A    between atoms: C12_17  and  C13_18 
ROOT
HETATM    1  C7  UNL     1      26.525   0.914  52.516  1.00  0.00     0.107 A 
HETATM    2  N3  UNL     1      27.156   1.709  51.758  1.00  0.00    -0.229 NA
HETATM    3  C8  UNL     1      26.599   2.708  50.962  1.00  0.00     0.229 A 
HETATM    4  N4  UNL     1      25.364   2.886  50.944  1.00  0.00    -0.277 NA
HETATM    5  C9  UNL     1      24.446   2.096  51.716  1.00  0.00     0.118 A 
HETATM    6  C17 UNL     1      25.050   1.093  52.628  1.00  0.00     0.105 A 
ENDROOT
BRANCH   5   7
HETATM    7  C10 UNL     1      23.586   3.094  52.471  1.00  0.00     0.054 C 
BRANCH   7   8
HETATM    8  C11 UNL     1      22.163   3.147  52.017  1.00  0.00     0.169 C 
BRANCH   8   9
HETATM    9  O1  UNL     1      21.751   1.976  51.422  1.00  0.00    -0.388 OA
BRANCH   9  10
HETATM   10  C12 UNL     1      20.544   1.557  51.936  1.00  0.00     0.201 C 
BRANCH  10  11
HETATM   11  C13 UNL     1      20.739   0.288  52.780  1.00  0.00     0.173 C 
HETATM   12  C14 UNL     1      20.669   0.656  54.243  1.00  0.00     0.303 C 
HETATM   13  N5  UNL     1      21.018  -0.488  55.049  1.00  0.00     0.088 N 
HETATM   14  C15 UNL     1      21.243  -1.672  54.242  1.00  0.00     0.295 C 
HETATM   15  H23 UNL     1      20.278  -0.719  55.746  1.00  0.00     0.316 HD
HETATM   16  C16 UNL     1      22.287  -1.372  53.178  1.00  0.00     0.198 C 
HETATM   17  O2  UNL     1      21.992  -0.239  52.458  1.00  0.00    -0.380 OA
ENDBRANCH  10  11
ENDBRANCH   9  10
ENDBRANCH   8   9
ENDBRANCH   7   8
ENDBRANCH   5   7
BRANCH   1  18
HETATM   18  N2  UNL     1      26.892  -0.151  53.387  1.00  0.00    -0.336 N 
HETATM   19  C2  UNL     1      27.014  -1.578  53.087  1.00  0.00     0.319 C 
HETATM   20  C1  UNL     1      26.617  -1.927  51.704  1.00  0.00     0.066 C 
HETATM   21  N1  UNL     1      28.342  -2.060  53.471  1.00  0.00     0.109 N 
HETATM   22  C3  UNL     1      29.399  -1.156  53.083  1.00  0.00     0.299 C 
HETATM   23  H5  UNL     1      28.475  -2.984  53.019  1.00  0.00     0.318 HD
HETATM   24  C4  UNL     1      29.625  -0.077  54.081  1.00  0.00     0.000 C 
HETATM   25  C5  UNL     1      28.658   0.544  54.761  1.00  0.00    -0.009 C 
HETATM   26  C6  UNL     1      27.161   0.357  54.733  1.00  0.00     0.153 C 
ENDBRANCH   1  18
TORSDOF 6
ENDMDL
MODEL 3
REMARK VINA RESULT:      -6.8      1.893      3.940
REMARK  6 active torsions:
REMARK  status: ('A' for Active; 'I' for Inactive)
REMARK    1  A    between atoms: N2_8  and  C7_9 
REMARK    2  A    between atoms: C9_13  and  C10_14 
REMARK    3  A    between atoms: C10_14  and  C11_15 
REMARK    4  A    between atoms: C11_15  and  O1_16 
REMARK    5  A    between atoms: O1_16  and  C12_17 
REMARK    6  A    between atoms: C12_17  and  C13_18 
ROOT
HETATM    1  C7  UNL     1      25.964   2.039  52.433  1.00  0.00     0.107 A 
HETATM    2  N3  UNL     1      25.154   2.534  53.273  1.00  0.00    -0.229 NA
HETATM    3  C8  UNL     1      24.151   3.463  53.005  1.00  0.00     0.229 A 
HETATM    4  N4  UNL     1      23.985   3.896  51.846  1.00  0.00    -0.277 NA
HETATM    5  C9  UNL     1      24.793   3.485  50.732  1.00  0.00     0.118 A 
HETATM    6  C17 UNL     1      25.801   2.431  51.006  1.00  0.00     0.105 A 
ENDROOT
BRANCH   5   7
HETATM    7  C10 UNL     1      23.813   3.058  49.654  1.00  0.00     0.054 C 
BRANCH   7   8
HETATM    8  C11 UNL     1      22.499   2.571  50.175  1.00  0.00     0.169 C 
BRANCH   8   9
HETATM    9  O1  UNL     1      22.539   1.252  50.568  1.00  0.00    -0.388 OA
BRANCH   9  10
HETATM   10  C12 UNL     1      21.286   0.801  50.918  1.00  0.00     0.201 C 
BRANCH  10  11
HETATM   11  C13 UNL     1      21.341   0.080  52.274  1.00  0.00     0.173 C 
HETATM   12  C14 UNL     1      20.394   0.763  53.232  1.00  0.00     0.303 C 
HETATM   13  N5  UNL     1      20.557   0.210  54.553  1.00  0.00     0.088 N 
HETATM   14  C15 UNL     1      21.503  -0.890  54.568  1.00  0.00     0.295 C 
HETATM   15  H23 UNL     1      19.659  -0.144  54.946  1.00  0.00     0.316 HD
HETATM   16  C16 UNL     1      22.822  -0.436  53.962  1.00  0.00     0.198 C 
HETATM   17  O2  UNL     1      22.658   0.159  52.735  1.00  0.00    -0.380 OA
ENDBRANCH  10  11
ENDBRANCH   9  10
ENDBRANCH   8   9
ENDBRANCH   7   8
ENDBRANCH   5   7
BRANCH   1  18
HETATM   18  N2  UNL     1      27.036   1.104  52.499  1.00  0.00    -0.336 N 
HETATM   19  C2  UNL     1      28.364   1.275  53.088  1.00  0.00     0.319 C 
HETATM   20  C1  UNL     1      28.612   2.641  53.600  1.00  0.00     0.066 C 
HETATM   21  N1  UNL     1      28.623   0.211  54.060  1.00  0.00     0.109 N 
HETATM   22  C3  UNL     1      27.490  -0.050  54.917  1.00  0.00     0.299 C 
HETATM   23  H5  UNL     1      29.441   0.505  54.625  1.00  0.00     0.318 HD
HETATM   24  C4  UNL     1      26.518  -0.996  54.309  1.00  0.00     0.000 C 
HETATM   25  C5  UNL     1      26.185  -1.017  53.015  1.00  0.00    -0.009 C 
HETATM   26  C6  UNL     1      26.653  -0.159  51.866  1.00  0.00     0.153 C 
ENDBRANCH   1  18
TORSDOF 6
ENDMDL
MODEL 4
REMARK VINA RESULT:      -6.8      2.952      7.075
REMARK  6 active torsions:
REMARK  status: ('A' for Active; 'I' for Inactive)
REMARK    1  A    between atoms: N2_8  and  C7_9 
REMARK    2  A    between atoms: C9_13  and  C10_14 
REMARK    3  A    between atoms: C10_14  and  C11_15 
REMARK    4  A    between atoms: C11_15  and  O1_16 
REMARK    5  A    between atoms: O1_16  and  C12_17 
REMARK    6  A    between atoms: C12_17  and  C13_18 
ROOT
HETATM    1  C7  UNL     1      22.565   2.790  50.920  1.00  0.00     0.107 A 
HETATM    2  N3  UNL     1      22.440   2.349  49.739  1.00  0.00    -0.229 NA
HETATM    3  C8  UNL     1      23.043   2.870  48.596  1.00  0.00     0.229 A 
HETATM    4  N4  UNL     1      23.785   3.871  48.674  1.00  0.00    -0.277 NA
HETATM    5  C9  UNL     1      24.065   4.547  49.910  1.00  0.00     0.118 A 
HETATM    6  C17 UNL     1      23.492   3.936  51.134  1.00  0.00     0.105 A 
ENDROOT
BRANCH   5   7
HETATM    7  C10 UNL     1      25.578   4.644  49.986  1.00  0.00     0.054 C 
BRANCH   7   8
HETATM    8  C11 UNL     1      26.289   3.346  49.782  1.00  0.00     0.169 C 
BRANCH   8   9
HETATM    9  O1  UNL     1      27.054   2.982  50.868  1.00  0.00    -0.388 OA
BRANCH   9  10
HETATM   10  C12 UNL     1      26.503   1.903  51.523  1.00  0.00     0.201 C 
BRANCH  10  11
HETATM   11  C13 UNL     1      27.454   1.409  52.624  1.00  0.00     0.173 C 
HETATM   12  C14 UNL     1      26.639   0.959  53.812  1.00  0.00     0.303 C 
HETATM   13  N5  UNL     1      27.515   0.653  54.915  1.00  0.00     0.088 N 
HETATM   14  C15 UNL     1      28.913   0.773  54.546  1.00  0.00     0.295 C 
HETATM   15  H23 UNL     1      27.369  -0.312  55.279  1.00  0.00     0.316 HD
HETATM   16  C16 UNL     1      29.171   2.156  53.968  1.00  0.00     0.198 C 
HETATM   17  O2  UNL     1      28.287   2.477  52.966  1.00  0.00    -0.380 OA
ENDBRANCH  10  11
ENDBRANCH   9  10
ENDBRANCH   8   9
ENDBRANCH   7   8
ENDBRANCH   5   7
BRANCH   1  18
HETATM   18  N2  UNL     1      22.047   2.416  52.193  1.00  0.00    -0.336 N 
HETATM   19  C2  UNL     1      20.683   2.554  52.703  1.00  0.00     0.319 C 
HETATM   20  C1  UNL     1      19.772   3.253  51.769  1.00  0.00     0.066 C 
HETATM   21  N1  UNL     1      20.189   1.258  53.171  1.00  0.00     0.109 N 
HETATM   22  C3  UNL     1      20.506   0.179  52.266  1.00  0.00     0.299 C 
HETATM   23  H5  UNL     1      19.161   1.345  53.281  1.00  0.00     0.318 HD
HETATM   24  C4  UNL     1      21.864  -0.382  52.498  1.00  0.00     0.000 C 
HETATM   25  C5  UNL     1      22.941   0.341  52.816  1.00  0.00    -0.009 C 
HETATM   26  C6  UNL     1      23.101   1.827  53.022  1.00  0.00     0.153 C 
ENDBRANCH   1  18
TORSDOF 6
ENDMDL
MODEL 5
REMARK VINA RESULT:      -6.7      6.497      8.922
REMARK  6 active torsions:
REMARK  status: ('A' for Active; 'I' for Inactive)
REMARK    1  A    between atoms: N2_8  and  C7_9 
REMARK    2  A    between atoms: C9_13  and  C10_14 
REMARK    3  A    between atoms: C10_14  and  C11_15 
REMARK    4  A    between atoms: C11_15  and  O1_16 
REMARK    5  A    between atoms: O1_16  and  C12_17 
REMARK    6  A    between atoms: C12_17  and  C13_18 
ROOT
HETATM    1  C7  UNL     1      27.807   7.040  48.509  1.00  0.00     0.107 A 
HETATM    2  N3  UNL     1      27.424   7.947  49.307  1.00  0.00    -0.229 NA
HETATM    3  C8  UNL     1      26.273   7.924  50.091  1.00  0.00     0.229 A 
HETATM    4  N4  UNL     1      25.497   6.947  50.045  1.00  0.00    -0.277 NA
HETATM    5  C9  UNL     1      25.722   5.805  49.204  1.00  0.00     0.118 A 
HETATM    6  C17 UNL     1      26.993   5.795  48.438  1.00  0.00     0.105 A 
ENDROOT
BRANCH   5   7
HETATM    7  C10 UNL     1      25.608   4.598  50.118  1.00  0.00     0.054 C 
BRANCH   7   8
HETATM    8  C11 UNL     1      26.622   3.531  49.857  1.00  0.00     0.169 C 
BRANCH   8   9
HETATM    9  O1  UNL     1      27.162   3.017  51.015  1.00  0.00    -0.388 OA
BRANCH   9  10
HETATM   10  C12 UNL     1      26.532   1.848  51.379  1.00  0.00     0.201 C 
BRANCH  10  11
HETATM   11  C13 UNL     1      27.226   1.230  52.603  1.00  0.00     0.173 C 
HETATM   12  C14 UNL     1      26.292   1.306  53.787  1.00  0.00     0.303 C 
HETATM   13  N5  UNL     1      26.985   0.888  54.979  1.00  0.00     0.088 N 
HETATM   14  C15 UNL     1      28.332   0.433  54.693  1.00  0.00     0.295 C 
HETATM   15  H23 UNL     1      26.491   0.114  55.473  1.00  0.00     0.316 HD
HETATM   16  C16 UNL     1      29.085   1.515  53.934  1.00  0.00     0.198 C 
HETATM   17  O2  UNL     1      28.390   1.966  52.838  1.00  0.00    -0.380 OA
ENDBRANCH  10  11
ENDBRANCH   9  10
ENDBRANCH   8   9
ENDBRANCH   7   8
ENDBRANCH   5   7
BRANCH   1  18
HETATM   18  N2  UNL     1      28.920   6.872  47.636  1.00  0.00    -0.336 N 
HETATM   19  C2  UNL     1      29.236   7.599  46.406  1.00  0.00     0.319 C 
HETATM   20  C1  UNL     1      28.194   8.574  46.012  1.00  0.00     0.066 C 
HETATM   21  N1  UNL     1      30.586   8.160  46.488  1.00  0.00     0.109 N 
HETATM   22  C3  UNL     1      30.862   8.769  47.768  1.00  0.00     0.299 C 
HETATM   23  H5  UNL     1      30.671   8.863  45.729  1.00  0.00     0.318 HD
HETATM   24  C4  UNL     1      31.330   7.786  48.780  1.00  0.00     0.000 C 
HETATM   25  C5  UNL     1      30.861   6.542  48.906  1.00  0.00    -0.009 C 
HETATM   26  C6  UNL     1      29.799   5.808  48.125  1.00  0.00     0.153 C 
ENDBRANCH   1  18
TORSDOF 6
ENDMDL
MODEL 6
REMARK VINA RESULT:      -6.6      2.958      7.177
REMARK  6 active torsions:
REMARK  status: ('A' for Active; 'I' for Inactive)
REMARK    1  A    between atoms: N2_8  and  C7_9 
REMARK    2  A    between atoms: C9_13  and  C10_14 
REMARK    3  A    between atoms: C10_14  and  C11_15 
REMARK    4  A    between atoms: C11_15  and  O1_16 
REMARK    5  A    between atoms: O1_16  and  C12_17 
REMARK    6  A    between atoms: C12_17  and  C13_18 
ROOT
HETATM    1  C7  UNL     1      22.708   3.042  51.002  1.00  0.00     0.107 A 
HETATM    2  N3  UNL     1      21.613   2.765  51.578  1.00  0.00    -0.229 NA
HETATM    3  C8  UNL     1      21.374   1.680  52.418  1.00  0.00     0.229 A 
HETATM    4  N4  UNL     1      22.282   0.859  52.664  1.00  0.00    -0.277 NA
HETATM    5  C9  UNL     1      23.605   0.964  52.115  1.00  0.00     0.118 A 
HETATM    6  C17 UNL     1      23.879   2.168  51.292  1.00  0.00     0.105 A 
ENDROOT
BRANCH   5   7
HETATM    7  C10 UNL     1      24.547   0.869  53.301  1.00  0.00     0.054 C 
BRANCH   7   8
HETATM    8  C11 UNL     1      25.346   2.106  53.553  1.00  0.00     0.169 C 
BRANCH   8   9
HETATM    9  O1  UNL     1      26.484   1.863  54.290  1.00  0.00    -0.388 OA
BRANCH   9  10
HETATM   10  C12 UNL     1      26.545   0.546  54.688  1.00  0.00     0.201 C 
BRANCH  10  11
HETATM   11  C13 UNL     1      27.955  -0.015  54.447  1.00  0.00     0.173 C 
HETATM   12  C14 UNL     1      28.819   1.068  53.847  1.00  0.00     0.303 C 
HETATM   13  N5  UNL     1      30.092   0.515  53.459  1.00  0.00     0.088 N 
HETATM   14  C15 UNL     1      30.214  -0.881  53.833  1.00  0.00     0.295 C 
HETATM   15  H23 UNL     1      30.892   1.025  53.889  1.00  0.00     0.316 HD
HETATM   16  C16 UNL     1      29.042  -1.666  53.263  1.00  0.00     0.198 C 
HETATM   17  O2  UNL     1      27.830  -1.096  53.571  1.00  0.00    -0.380 OA
ENDBRANCH  10  11
ENDBRANCH   9  10
ENDBRANCH   8   9
ENDBRANCH   7   8
ENDBRANCH   5   7
BRANCH   1  18
HETATM   18  N2  UNL     1      23.151   4.072  50.125  1.00  0.00    -0.336 N 
HETATM   19  C2  UNL     1      22.988   4.172  48.674  1.00  0.00     0.319 C 
HETATM   20  C1  UNL     1      22.342   2.986  48.070  1.00  0.00     0.066 C 
HETATM   21  N1  UNL     1      22.354   5.446  48.328  1.00  0.00     0.109 N 
HETATM   22  C3  UNL     1      21.248   5.774  49.195  1.00  0.00     0.299 C 
HETATM   23  H5  UNL     1      22.031   5.369  47.345  1.00  0.00     0.318 HD
HETATM   24  C4  UNL     1      21.681   6.458  50.442  1.00  0.00     0.000 C 
HETATM   25  C5  UNL     1      22.786   6.157  51.129  1.00  0.00    -0.009 C 
HETATM   26  C6  UNL     1      23.849   5.118  50.875  1.00  0.00     0.153 C 
ENDBRANCH   1  18
TORSDOF 6
ENDMDL
MODEL 7
REMARK VINA RESULT:      -6.6      3.419      5.170
REMARK  6 active torsions:
REMARK  status: ('A' for Active; 'I' for Inactive)
REMARK    1  A    between atoms: N2_8  and  C7_9 
REMARK    2  A    between atoms: C9_13  and  C10_14 
REMARK    3  A    between atoms: C10_14  and  C11_15 
REMARK    4  A    between atoms: C11_15  and  O1_16 
REMARK    5  A    between atoms: O1_16  and  C12_17 
REMARK    6  A    between atoms: C12_17  and  C13_18 
ROOT
HETATM    1  C7  UNL     1      26.524   0.852  52.482  1.00  0.00     0.107 A 
HETATM    2  N3  UNL     1      27.144   1.592  51.661  1.00  0.00    -0.229 NA
HETATM    3  C8  UNL     1      26.589   2.601  50.877  1.00  0.00     0.229 A 
HETATM    4  N4  UNL     1      25.366   2.847  50.936  1.00  0.00    -0.277 NA
HETATM    5  C9  UNL     1      24.462   2.128  51.789  1.00  0.00     0.118 A 
HETATM    6  C17 UNL     1      25.072   1.116  52.686  1.00  0.00     0.105 A 
ENDROOT
BRANCH   5   7
HETATM    7  C10 UNL     1      23.710   3.190  52.571  1.00  0.00     0.054 C 
BRANCH   7   8
HETATM    8  C11 UNL     1      22.598   3.840  51.814  1.00  0.00     0.169 C 
BRANCH   8   9
HETATM    9  O1  UNL     1      22.853   5.162  51.526  1.00  0.00    -0.388 OA
BRANCH   9  10
HETATM   10  C12 UNL     1      22.937   5.367  50.166  1.00  0.00     0.201 C 
BRANCH  10  11
HETATM   11  C13 UNL     1      24.290   6.000  49.809  1.00  0.00     0.173 C 
HETATM   12  C14 UNL     1      24.852   6.682  51.033  1.00  0.00     0.303 C 
HETATM   13  N5  UNL     1      26.035   7.425  50.675  1.00  0.00     0.088 N 
HETATM   14  C15 UNL     1      26.396   7.233  49.283  1.00  0.00     0.295 C 
HETATM   15  H23 UNL     1      26.860   7.155  51.253  1.00  0.00     0.316 HD
HETATM   16  C16 UNL     1      25.207   7.575  48.397  1.00  0.00     0.198 C 
HETATM   17  O2  UNL     1      24.061   6.923  48.785  1.00  0.00    -0.380 OA
ENDBRANCH  10  11
ENDBRANCH   9  10
ENDBRANCH   8   9
ENDBRANCH   7   8
ENDBRANCH   5   7
BRANCH   1  18
HETATM   18  N2  UNL     1      26.892  -0.210  53.356  1.00  0.00    -0.336 N 
HETATM   19  C2  UNL     1      27.025  -1.636  53.058  1.00  0.00     0.319 C 
HETATM   20  C1  UNL     1      26.640  -1.988  51.672  1.00  0.00     0.066 C 
HETATM   21  N1  UNL     1      28.353  -2.109  53.452  1.00  0.00     0.109 N 
HETATM   22  C3  UNL     1      29.407  -1.198  53.071  1.00  0.00     0.299 C 
HETATM   23  H5  UNL     1      28.495  -3.033  53.001  1.00  0.00     0.318 HD
HETATM   24  C4  UNL     1      29.619  -0.117  54.070  1.00  0.00     0.000 C 
HETATM   25  C5  UNL     1      28.642   0.497  54.743  1.00  0.00    -0.009 C 
HETATM   26  C6  UNL     1      27.147   0.301  54.704  1.00  0.00     0.153 C 
ENDBRANCH   1  18
TORSDOF 6
ENDMDL
MODEL 8
REMARK VINA RESULT:      -6.6      3.289      6.675
REMARK  6 active torsions:
REMARK  status: ('A' for Active; 'I' for Inactive)
REMARK    1  A    between atoms: N2_8  and  C7_9 
REMARK    2  A    between atoms: C9_13  and  C10_14 
REMARK    3  A    between atoms: C10_14  and  C11_15 
REMARK    4  A    between atoms: C11_15  and  O1_16 
REMARK    5  A    between atoms: O1_16  and  C12_17 
REMARK    6  A    between atoms: C12_17  and  C13_18 
ROOT
HETATM    1  C7  UNL     1      23.598   3.699  50.564  1.00  0.00     0.107 A 
HETATM    2  N3  UNL     1      22.656   3.310  49.810  1.00  0.00    -0.229 NA
HETATM    3  C8  UNL     1      22.057   2.052  49.822  1.00  0.00     0.229 A 
HETATM    4  N4  UNL     1      22.442   1.176  50.623  1.00  0.00    -0.277 NA
HETATM    5  C9  UNL     1      23.504   1.388  51.566  1.00  0.00     0.118 A 
HETATM    6  C17 UNL     1      24.079   2.755  51.610  1.00  0.00     0.105 A 
ENDROOT
BRANCH   5   7
HETATM    7  C10 UNL     1      22.941   0.973  52.913  1.00  0.00     0.054 C 
BRANCH   7   8
HETATM    8  C11 UNL     1      23.439  -0.346  53.409  1.00  0.00     0.169 C 
BRANCH   8   9
HETATM    9  O1  UNL     1      24.810  -0.456  53.343  1.00  0.00    -0.388 OA
BRANCH   9  10
HETATM   10  C12 UNL     1      25.357  -0.597  54.599  1.00  0.00     0.201 C 
BRANCH  10  11
HETATM   11  C13 UNL     1      26.737   0.076  54.655  1.00  0.00     0.173 C 
HETATM   12  C14 UNL     1      26.646   1.437  54.006  1.00  0.00     0.303 C 
HETATM   13  N5  UNL     1      27.964   2.011  53.897  1.00  0.00     0.088 N 
HETATM   14  C15 UNL     1      28.974   1.174  54.515  1.00  0.00     0.295 C 
HETATM   15  H23 UNL     1      28.022   2.952  54.341  1.00  0.00     0.316 HD
HETATM   16  C16 UNL     1      28.902  -0.228  53.928  1.00  0.00     0.198 C 
HETATM   17  O2  UNL     1      27.631  -0.746  53.964  1.00  0.00    -0.380 OA
ENDBRANCH  10  11
ENDBRANCH   9  10
ENDBRANCH   8   9
ENDBRANCH   7   8
ENDBRANCH   5   7
BRANCH   1  18
HETATM   18  N2  UNL     1      24.335   4.909  50.709  1.00  0.00    -0.336 N 
HETATM   19  C2  UNL     1      25.571   5.314  50.038  1.00  0.00     0.319 C 
HETATM   20  C1  UNL     1      26.138   4.265  49.162  1.00  0.00     0.066 C 
HETATM   21  N1  UNL     1      25.384   6.611  49.384  1.00  0.00     0.109 N 
HETATM   22  C3  UNL     1      24.127   6.707  48.681  1.00  0.00     0.299 C 
HETATM   23  H5  UNL     1      26.175   6.736  48.724  1.00  0.00     0.318 HD
HETATM   24  C4  UNL     1      23.006   7.120  49.567  1.00  0.00     0.000 C 
HETATM   25  C5  UNL     1      22.847   6.715  50.830  1.00  0.00    -0.009 C 
HETATM   26  C6  UNL     1      23.685   5.792  51.680  1.00  0.00     0.153 C 
ENDBRANCH   1  18
TORSDOF 6
ENDMDL
MODEL 9
REMARK VINA RESULT:      -6.5      3.868      5.922
REMARK  6 active torsions:
REMARK  status: ('A' for Active; 'I' for Inactive)
REMARK    1  A    between atoms: N2_8  and  C7_9 
REMARK    2  A    between atoms: C9_13  and  C10_14 
REMARK    3  A    between atoms: C10_14  and  C11_15 
REMARK    4  A    between atoms: C11_15  and  O1_16 
REMARK    5  A    between atoms: O1_16  and  C12_17 
REMARK    6  A    between atoms: C12_17  and  C13_18 
ROOT
HETATM    1  C7  UNL     1      24.254   1.719  52.534  1.00  0.00     0.107 A 
HETATM    2  N3  UNL     1      23.755   1.373  51.422  1.00  0.00    -0.229 NA
HETATM    3  C8  UNL     1      22.949   2.157  50.599  1.00  0.00     0.229 A 
HETATM    4  N4  UNL     1      22.647   3.321  50.935  1.00  0.00    -0.277 NA
HETATM    5  C9  UNL     1      23.089   3.924  52.161  1.00  0.00     0.118 A 
HETATM    6  C17 UNL     1      24.018   3.117  52.990  1.00  0.00     0.105 A 
ENDROOT
BRANCH   5   7
HETATM    7  C10 UNL     1      23.704   5.253  51.761  1.00  0.00     0.054 C 
BRANCH   7   8
HETATM    8  C11 UNL     1      22.920   6.011  50.739  1.00  0.00     0.169 C 
BRANCH   8   9
HETATM    9  O1  UNL     1      23.723   6.690  49.850  1.00  0.00    -0.388 OA
BRANCH   9  10
HETATM   10  C12 UNL     1      24.225   5.842  48.888  1.00  0.00     0.201 C 
BRANCH  10  11
HETATM   11  C13 UNL     1      25.690   6.193  48.584  1.00  0.00     0.173 C 
HETATM   12  C14 UNL     1      26.575   5.067  49.064  1.00  0.00     0.303 C 
HETATM   13  N5  UNL     1      27.958   5.452  48.943  1.00  0.00     0.088 N 
HETATM   14  C15 UNL     1      28.108   6.753  48.318  1.00  0.00     0.295 C 
HETATM   15  H23 UNL     1      28.510   4.769  48.381  1.00  0.00     0.316 HD
HETATM   16  C16 UNL     1      27.285   7.781  49.080  1.00  0.00     0.198 C 
HETATM   17  O2  UNL     1      25.983   7.381  49.260  1.00  0.00    -0.380 OA
ENDBRANCH  10  11
ENDBRANCH   9  10
ENDBRANCH   8   9
ENDBRANCH   7   8
ENDBRANCH   5   7
BRANCH   1  18
HETATM   18  N2  UNL     1      25.080   1.087  53.507  1.00  0.00    -0.336 N 
HETATM   19  C2  UNL     1      24.822  -0.134  54.272  1.00  0.00     0.319 C 
HETATM   20  C1  UNL     1      23.481  -0.710  54.030  1.00  0.00     0.066 C 
HETATM   21  N1  UNL     1      25.926  -1.079  54.094  1.00  0.00     0.109 N 
HETATM   22  C3  UNL     1      26.363  -1.176  52.722  1.00  0.00     0.299 C 
HETATM   23  H5  UNL     1      25.594  -2.002  54.432  1.00  0.00     0.318 HD
HETATM   24  C4  UNL     1      27.353  -0.127  52.361  1.00  0.00     0.000 C 
HETATM   25  C5  UNL     1      27.308   1.139  52.786  1.00  0.00    -0.009 C 
HETATM   26  C6  UNL     1      26.323   1.838  53.690  1.00  0.00     0.153 C 
ENDBRANCH   1  18
TORSDOF 6
ENDMDL
