MODEL 1
REMARK VINA RESULT:      -7.8      0.000      0.000
REMARK  1 active torsions:
REMARK  status: ('A' for Active; 'I' for Inactive)
REMARK    1  A    between atoms: O1_2  and  C2_3 
ROOT
HETATM    1  C2  UNL     1      17.399  -0.060  51.149  1.00  0.00     0.196 A 
HETATM    2  C3  UNL     1      18.092  -0.266  52.274  1.00  0.00    -0.001 A 
HETATM    3  O2  UNL     1      17.043  -1.135  52.259  1.00  0.00     0.000 OA
HETATM    4  C4  UNL     1      17.023  -2.236  53.178  1.00  0.00     0.000 C 
HETATM    5  C5  UNL     1      19.283   0.544  52.535  1.00  0.00     0.186 C 
HETATM    6  N1  UNL     1      20.512  -0.101  52.682  1.00  0.00    -0.299 NA
HETATM    7  C6  UNL     1      20.995  -0.794  53.601  1.00  0.00     0.110 C 
HETATM    8  C7  UNL     1      22.364  -1.247  53.266  1.00  0.00     0.220 C 
HETATM    9  O3  UNL     1      23.338  -0.397  53.884  1.00  0.00    -0.358 OA
HETATM   10  C8  UNL     1      24.585  -0.400  53.233  1.00  0.00     0.135 C 
HETATM   11  C9  UNL     1      25.405   0.429  52.625  1.00  0.00     0.025 C 
HETATM   12  C10 UNL     1      26.587   0.877  51.909  1.00  0.00     0.019 C 
HETATM   13  C11 UNL     1      26.877   2.060  51.503  1.00  0.00     0.084 C 
HETATM   14  N2  UNL     1      27.061   3.380  51.126  1.00  0.00    -0.383 N 
HETATM   15  C12 UNL     1      26.050   4.027  50.275  1.00  0.00     0.237 C 
HETATM   16  N3  UNL     1      24.846   4.228  51.012  1.00  0.00    -0.402 N 
HETATM   17  C13 UNL     1      23.745   4.783  50.296  1.00  0.00     0.083 C 
HETATM   18  C14 UNL     1      24.029   6.085  49.578  1.00  0.00     0.032 C 
HETATM   19  C15 UNL     1      22.666   5.078  51.361  1.00  0.00     0.103 C 
HETATM   20  S1  UNL     1      21.207   5.828  50.607  1.00  0.00    -0.138 SA
HETATM   21  C16 UNL     1      20.417   4.644  49.592  1.00  0.00     0.062 C 
HETATM   22  C17 UNL     1      19.994   3.701  48.791  1.00  0.00     0.105 C 
HETATM   23  N4  UNL     1      18.956   2.995  48.169  1.00  0.00    -0.326 N 
HETATM   24  C18 UNL     1      18.526   3.230  46.820  1.00  0.00     0.165 C 
HETATM   25  S2  UNL     1      18.349   1.861  49.302  1.00  0.00     0.031 SA
HETATM   26  C19 UNL     1      17.850   0.880  50.254  1.00  0.00    -0.042 C 
HETATM   27  H16 UNL     1      27.878   3.986  51.411  1.00  0.00     0.160 HD
HETATM   28  H19 UNL     1      24.946   4.537  51.986  1.00  0.00     0.155 HD
ENDROOT
BRANCH   1  29
HETATM   29  O1  UNL     1      16.354  -0.313  50.279  1.00  0.00    -0.364 OA
HETATM   30  C1  UNL     1      15.171   0.461  50.354  1.00  0.00     0.204 C 
ENDBRANCH   1  29
TORSDOF 1
ENDMDL
MODEL 2
REMARK VINA RESULT:      -7.6      3.136      7.595
REMARK  1 active torsions:
REMARK  status: ('A' for Active; 'I' for Inactive)
REMARK    1  A    between atoms: O1_2  and  C2_3 
ROOT
HETATM    1  C2  UNL     1      25.509   5.984  48.858  1.00  0.00     0.196 A 
HETATM    2  C3  UNL     1      26.113   4.792  48.934  1.00  0.00    -0.001 A 
HETATM    3  O2  UNL     1      27.050   5.721  48.596  1.00  0.00     0.000 OA
HETATM    4  C4  UNL     1      28.442   5.385  48.683  1.00  0.00     0.000 C 
HETATM    5  C5  UNL     1      25.321   3.613  49.289  1.00  0.00     0.186 C 
HETATM    6  N1  UNL     1      25.666   2.895  50.434  1.00  0.00    -0.299 NA
HETATM    7  C6  UNL     1      26.611   2.121  50.690  1.00  0.00     0.110 C 
HETATM    8  C7  UNL     1      26.518   1.602  52.074  1.00  0.00     0.220 C 
HETATM    9  O3  UNL     1      25.924   0.298  52.080  1.00  0.00    -0.358 OA
HETATM   10  C8  UNL     1      25.320  -0.042  53.304  1.00  0.00     0.135 C 
HETATM   11  C9  UNL     1      24.142  -0.368  53.789  1.00  0.00     0.025 C 
HETATM   12  C10 UNL     1      23.146  -0.745  54.776  1.00  0.00     0.019 C 
HETATM   13  C11 UNL     1      21.894  -0.972  54.604  1.00  0.00     0.084 C 
HETATM   14  N2  UNL     1      20.566  -1.189  54.273  1.00  0.00    -0.383 N 
HETATM   15  C12 UNL     1      19.807  -0.111  53.620  1.00  0.00     0.237 C 
HETATM   16  N3  UNL     1      20.283   0.085  52.289  1.00  0.00    -0.402 N 
HETATM   17  C13 UNL     1      19.690   1.152  51.551  1.00  0.00     0.083 C 
HETATM   18  C14 UNL     1      18.179   1.117  51.464  1.00  0.00     0.032 C 
HETATM   19  C15 UNL     1      20.231   1.007  50.111  1.00  0.00     0.103 C 
HETATM   20  S1  UNL     1      19.533   2.277  49.034  1.00  0.00    -0.138 SA
HETATM   21  C16 UNL     1      20.159   3.838  49.513  1.00  0.00     0.062 C 
HETATM   22  C17 UNL     1      20.615   4.943  50.043  1.00  0.00     0.105 C 
HETATM   23  N4  UNL     1      21.100   6.252  49.921  1.00  0.00    -0.326 N 
HETATM   24  C18 UNL     1      20.299   7.424  50.131  1.00  0.00     0.165 C 
HETATM   25  S2  UNL     1      22.757   6.152  49.493  1.00  0.00     0.031 SA
HETATM   26  C19 UNL     1      24.170   6.068  49.154  1.00  0.00    -0.042 C 
HETATM   27  H16 UNL     1      20.036  -2.088  54.441  1.00  0.00     0.160 HD
HETATM   28  H19 UNL     1      20.511  -0.758  51.751  1.00  0.00     0.155 HD
ENDROOT
BRANCH   1  29
HETATM   29  O1  UNL     1      25.493   7.346  48.629  1.00  0.00    -0.364 OA
HETATM   30  C1  UNL     1      25.165   7.841  47.343  1.00  0.00     0.204 C 
ENDBRANCH   1  29
TORSDOF 1
ENDMDL
MODEL 3
REMARK VINA RESULT:      -7.6      1.352      1.527
REMARK  1 active torsions:
REMARK  status: ('A' for Active; 'I' for Inactive)
REMARK    1  A    between atoms: O1_2  and  C2_3 
ROOT
HETATM    1  C2  UNL     1      17.321   1.264  50.318  1.00  0.00     0.196 A 
HETATM    2  C3  UNL     1      17.695   1.007  51.577  1.00  0.00    -0.001 A 
HETATM    3  O2  UNL     1      16.466   0.452  51.379  1.00  0.00     0.000 OA
HETATM    4  C4  UNL     1      15.958  -0.495  52.329  1.00  0.00     0.000 C 
HETATM    5  C5  UNL     1      18.992   1.495  52.047  1.00  0.00     0.186 C 
HETATM    6  N1  UNL     1      19.935   0.568  52.492  1.00  0.00    -0.299 NA
HETATM    7  C6  UNL     1      20.013  -0.121  53.530  1.00  0.00     0.110 C 
HETATM    8  C7  UNL     1      21.237  -0.957  53.526  1.00  0.00     0.220 C 
HETATM    9  O3  UNL     1      22.272  -0.332  54.295  1.00  0.00    -0.358 OA
HETATM   10  C8  UNL     1      23.569  -0.739  53.932  1.00  0.00     0.135 C 
HETATM   11  C9  UNL     1      24.692  -0.230  53.474  1.00  0.00     0.025 C 
HETATM   12  C10 UNL     1      26.067  -0.194  53.010  1.00  0.00     0.019 C 
HETATM   13  C11 UNL     1      26.754   0.816  52.616  1.00  0.00     0.084 C 
HETATM   14  N2  UNL     1      27.373   1.990  52.218  1.00  0.00    -0.383 N 
HETATM   15  C12 UNL     1      26.773   2.783  51.135  1.00  0.00     0.237 C 
HETATM   16  N3  UNL     1      25.555   3.378  51.581  1.00  0.00    -0.402 N 
HETATM   17  C13 UNL     1      24.817   4.122  50.614  1.00  0.00     0.083 C 
HETATM   18  C14 UNL     1      25.593   5.214  49.908  1.00  0.00     0.032 C 
HETATM   19  C15 UNL     1      23.680   4.810  51.402  1.00  0.00     0.103 C 
HETATM   20  S1  UNL     1      22.669   5.831  50.309  1.00  0.00    -0.138 SA
HETATM   21  C16 UNL     1      21.789   4.794  49.211  1.00  0.00     0.062 C 
HETATM   22  C17 UNL     1      21.281   3.914  48.388  1.00  0.00     0.105 C 
HETATM   23  N4  UNL     1      20.227   3.445  47.592  1.00  0.00    -0.326 N 
HETATM   24  C18 UNL     1      20.153   3.634  46.171  1.00  0.00     0.165 C 
HETATM   25  S2  UNL     1      19.116   2.645  48.624  1.00  0.00     0.031 SA
HETATM   26  C19 UNL     1      18.185   1.945  49.495  1.00  0.00    -0.042 C 
HETATM   27  H16 UNL     1      28.257   2.385  52.643  1.00  0.00     0.160 HD
HETATM   28  H19 UNL     1      25.548   3.755  52.535  1.00  0.00     0.155 HD
ENDROOT
BRANCH   1  29
HETATM   29  O1  UNL     1      16.438   1.202  49.257  1.00  0.00    -0.364 OA
HETATM   30  C1  UNL     1      15.523   2.260  49.037  1.00  0.00     0.204 C 
ENDBRANCH   1  29
TORSDOF 1
ENDMDL
MODEL 4
REMARK VINA RESULT:      -7.2      2.330      3.207
REMARK  1 active torsions:
REMARK  status: ('A' for Active; 'I' for Inactive)
REMARK    1  A    between atoms: O1_2  and  C2_3 
ROOT
HETATM    1  C2  UNL     1      19.057   1.306  51.899  1.00  0.00     0.196 A 
HETATM    2  C3  UNL     1      20.179   1.306  52.629  1.00  0.00    -0.001 A 
HETATM    3  O2  UNL     1      19.446   0.209  52.976  1.00  0.00     0.000 OA
HETATM    4  C4  UNL     1      20.060  -0.837  53.741  1.00  0.00     0.000 C 
HETATM    5  C5  UNL     1      21.150   2.384  52.443  1.00  0.00     0.186 C 
HETATM    6  N1  UNL     1      22.442   2.058  52.032  1.00  0.00    -0.299 NA
HETATM    7  C6  UNL     1      23.405   1.528  52.624  1.00  0.00     0.110 C 
HETATM    8  C7  UNL     1      24.581   1.407  51.730  1.00  0.00     0.220 C 
HETATM    9  O3  UNL     1      25.498   2.484  51.961  1.00  0.00    -0.358 OA
HETATM   10  C8  UNL     1      26.331   2.762  50.862  1.00  0.00     0.135 C 
HETATM   11  C9  UNL     1      26.614   3.747  50.037  1.00  0.00     0.025 C 
HETATM   12  C10 UNL     1      27.259   4.444  48.939  1.00  0.00     0.019 C 
HETATM   13  C11 UNL     1      27.076   5.650  48.539  1.00  0.00     0.084 C 
HETATM   14  N2  UNL     1      26.778   6.965  48.218  1.00  0.00    -0.383 N 
HETATM   15  C12 UNL     1      25.388   7.325  47.899  1.00  0.00     0.237 C 
HETATM   16  N3  UNL     1      24.582   7.252  49.074  1.00  0.00    -0.402 N 
HETATM   17  C13 UNL     1      23.189   7.506  48.907  1.00  0.00     0.083 C 
HETATM   18  C14 UNL     1      22.845   8.817  48.234  1.00  0.00     0.032 C 
HETATM   19  C15 UNL     1      22.606   7.563  50.337  1.00  0.00     0.103 C 
HETATM   20  S1  UNL     1      20.837   7.919  50.295  1.00  0.00    -0.138 SA
HETATM   21  C16 UNL     1      19.996   6.551  49.604  1.00  0.00     0.062 C 
HETATM   22  C17 UNL     1      19.512   5.512  48.976  1.00  0.00     0.105 C 
HETATM   23  N4  UNL     1      18.503   4.560  48.777  1.00  0.00    -0.326 N 
HETATM   24  C18 UNL     1      17.515   4.646  47.739  1.00  0.00     0.165 C 
HETATM   25  S2  UNL     1      18.694   3.346  49.972  1.00  0.00     0.031 SA
HETATM   26  C19 UNL     1      18.871   2.301  50.970  1.00  0.00    -0.042 C 
HETATM   27  H16 UNL     1      27.477   7.757  48.191  1.00  0.00     0.160 HD
HETATM   28  H19 UNL     1      25.000   7.604  49.943  1.00  0.00     0.155 HD
ENDROOT
BRANCH   1  29
HETATM   29  O1  UNL     1      17.837   0.785  51.511  1.00  0.00    -0.364 OA
HETATM   30  C1  UNL     1      17.747   0.000  50.335  1.00  0.00     0.204 C 
ENDBRANCH   1  29
TORSDOF 1
ENDMDL
MODEL 5
REMARK VINA RESULT:      -7.1      2.245      7.435
REMARK  1 active torsions:
REMARK  status: ('A' for Active; 'I' for Inactive)
REMARK    1  A    between atoms: O1_2  and  C2_3 
ROOT
HETATM    1  C2  UNL     1      25.694   1.522  53.667  1.00  0.00     0.196 A 
HETATM    2  C3  UNL     1      25.035   0.358  53.687  1.00  0.00    -0.001 A 
HETATM    3  O2  UNL     1      26.012   0.308  54.636  1.00  0.00     0.000 OA
HETATM    4  C4  UNL     1      25.985  -0.731  55.625  1.00  0.00     0.000 C 
HETATM    5  C5  UNL     1      23.923   0.153  52.759  1.00  0.00     0.186 C 
HETATM    6  N1  UNL     1      22.655  -0.109  53.279  1.00  0.00    -0.299 NA
HETATM    7  C6  UNL     1      22.159  -1.118  53.822  1.00  0.00     0.110 C 
HETATM    8  C7  UNL     1      20.745  -0.883  54.196  1.00  0.00     0.220 C 
HETATM    9  O3  UNL     1      19.868  -1.431  53.204  1.00  0.00    -0.358 OA
HETATM   10  C8  UNL     1      18.598  -0.826  53.178  1.00  0.00     0.135 C 
HETATM   11  C9  UNL     1      17.820  -0.154  52.357  1.00  0.00     0.025 C 
HETATM   12  C10 UNL     1      16.648   0.569  51.897  1.00  0.00     0.019 C 
HETATM   13  C11 UNL     1      16.434   1.098  50.747  1.00  0.00     0.084 C 
HETATM   14  N2  UNL     1      16.338   1.619  49.467  1.00  0.00    -0.383 N 
HETATM   15  C12 UNL     1      17.359   2.572  49.005  1.00  0.00     0.237 C 
HETATM   16  N3  UNL     1      18.605   1.903  48.822  1.00  0.00    -0.402 N 
HETATM   17  C13 UNL     1      19.715   2.715  48.444  1.00  0.00     0.083 C 
HETATM   18  C14 UNL     1      19.502   3.569  47.212  1.00  0.00     0.032 C 
HETATM   19  C15 UNL     1      20.858   1.728  48.121  1.00  0.00     0.103 C 
HETATM   20  S1  UNL     1      22.337   2.612  47.583  1.00  0.00    -0.138 SA
HETATM   21  C16 UNL     1      22.989   3.509  48.935  1.00  0.00     0.062 C 
HETATM   22  C17 UNL     1      23.302   4.209  49.994  1.00  0.00     0.105 C 
HETATM   23  N4  UNL     1      24.255   4.780  50.848  1.00  0.00    -0.326 N 
HETATM   24  C18 UNL     1      24.644   6.161  50.802  1.00  0.00     0.165 C 
HETATM   25  S2  UNL     1      24.819   3.545  51.894  1.00  0.00     0.031 SA
HETATM   26  C19 UNL     1      25.280   2.504  52.800  1.00  0.00    -0.042 C 
HETATM   27  H16 UNL     1      15.583   1.378  48.768  1.00  0.00     0.160 HD
HETATM   28  H19 UNL     1      18.570   0.969  48.399  1.00  0.00     0.155 HD
ENDROOT
BRANCH   1  29
HETATM   29  O1  UNL     1      26.677   2.391  54.102  1.00  0.00    -0.364 OA
HETATM   30  C1  UNL     1      27.967   2.345  53.519  1.00  0.00     0.204 C 
ENDBRANCH   1  29
TORSDOF 1
ENDMDL
MODEL 6
REMARK VINA RESULT:      -6.8      2.294      3.247
REMARK  1 active torsions:
REMARK  status: ('A' for Active; 'I' for Inactive)
REMARK    1  A    between atoms: O1_2  and  C2_3 
ROOT
HETATM    1  C2  UNL     1      17.137   2.765  48.013  1.00  0.00     0.196 A 
HETATM    2  C3  UNL     1      17.213   2.662  49.345  1.00  0.00    -0.001 A 
HETATM    3  O2  UNL     1      15.979   2.234  48.957  1.00  0.00     0.000 OA
HETATM    4  C4  UNL     1      15.157   1.513  49.885  1.00  0.00     0.000 C 
HETATM    5  C5  UNL     1      18.450   3.057  50.020  1.00  0.00     0.186 C 
HETATM    6  N1  UNL     1      19.137   2.103  50.771  1.00  0.00    -0.299 NA
HETATM    7  C6  UNL     1      18.905   1.577  51.879  1.00  0.00     0.110 C 
HETATM    8  C7  UNL     1      19.966   0.610  52.245  1.00  0.00     0.220 C 
HETATM    9  O3  UNL     1      20.911   1.217  53.135  1.00  0.00    -0.358 OA
HETATM   10  C8  UNL     1      22.178   0.607  53.116  1.00  0.00     0.135 C 
HETATM   11  C9  UNL     1      23.433   0.900  52.852  1.00  0.00     0.025 C 
HETATM   12  C10 UNL     1      24.862   0.699  52.696  1.00  0.00     0.019 C 
HETATM   13  C11 UNL     1      25.756   1.547  52.337  1.00  0.00     0.084 C 
HETATM   14  N2  UNL     1      26.610   2.563  51.939  1.00  0.00    -0.383 N 
HETATM   15  C12 UNL     1      26.361   3.246  50.660  1.00  0.00     0.237 C 
HETATM   16  N3  UNL     1      25.182   4.044  50.754  1.00  0.00    -0.402 N 
HETATM   17  C13 UNL     1      24.769   4.714  49.564  1.00  0.00     0.083 C 
HETATM   18  C14 UNL     1      25.823   5.583  48.912  1.00  0.00     0.032 C 
HETATM   19  C15 UNL     1      23.615   5.646  49.995  1.00  0.00     0.103 C 
HETATM   20  S1  UNL     1      23.004   6.601  48.590  1.00  0.00    -0.138 SA
HETATM   21  C16 UNL     1      22.213   5.521  47.466  1.00  0.00     0.062 C 
HETATM   22  C17 UNL     1      21.752   4.592  46.670  1.00  0.00     0.105 C 
HETATM   23  N4  UNL     1      20.817   4.136  45.730  1.00  0.00    -0.326 N 
HETATM   24  C18 UNL     1      21.054   4.112  44.314  1.00  0.00     0.165 C 
HETATM   25  S2  UNL     1      19.418   3.644  46.588  1.00  0.00     0.031 SA
HETATM   26  C19 UNL     1      18.239   3.202  47.317  1.00  0.00    -0.042 C 
HETATM   27  H16 UNL     1      27.442   2.909  52.492  1.00  0.00     0.160 HD
HETATM   28  H19 UNL     1      25.043   4.561  51.629  1.00  0.00     0.155 HD
ENDROOT
BRANCH   1  29
HETATM   29  O1  UNL     1      16.482   2.647  46.802  1.00  0.00    -0.364 OA
HETATM   30  C1  UNL     1      15.792   3.760  46.261  1.00  0.00     0.204 C 
ENDBRANCH   1  29
TORSDOF 1
ENDMDL
MODEL 7
REMARK VINA RESULT:      -6.6      9.851     14.682
REMARK  1 active torsions:
REMARK  status: ('A' for Active; 'I' for Inactive)
REMARK    1  A    between atoms: O1_2  and  C2_3 
ROOT
HETATM    1  C2  UNL     1      30.210  14.160  45.338  1.00  0.00     0.196 A 
HETATM    2  C3  UNL     1      29.433  14.194  46.427  1.00  0.00    -0.001 A 
HETATM    3  O2  UNL     1      29.339  15.401  45.802  1.00  0.00     0.000 OA
HETATM    4  C4  UNL     1      28.293  16.310  46.173  1.00  0.00     0.000 C 
HETATM    5  C5  UNL     1      29.351  13.008  47.281  1.00  0.00     0.186 C 
HETATM    6  N1  UNL     1      28.109  12.403  47.469  1.00  0.00    -0.299 NA
HETATM    7  C6  UNL     1      27.102  12.734  48.130  1.00  0.00     0.110 C 
HETATM    8  C7  UNL     1      26.025  11.725  48.004  1.00  0.00     0.220 C 
HETATM    9  O3  UNL     1      26.030  10.844  49.134  1.00  0.00    -0.358 OA
HETATM   10  C8  UNL     1      25.444   9.591  48.876  1.00  0.00     0.135 C 
HETATM   11  C9  UNL     1      25.758   8.314  48.877  1.00  0.00     0.025 C 
HETATM   12  C10 UNL     1      25.581   6.881  48.724  1.00  0.00     0.019 C 
HETATM   13  C11 UNL     1      26.440   5.944  48.908  1.00  0.00     0.084 C 
HETATM   14  N2  UNL     1      27.463   5.041  49.144  1.00  0.00    -0.383 N 
HETATM   15  C12 UNL     1      28.721   5.173  48.392  1.00  0.00     0.237 C 
HETATM   16  N3  UNL     1      29.424   6.339  48.815  1.00  0.00    -0.402 N 
HETATM   17  C13 UNL     1      30.633   6.641  48.121  1.00  0.00     0.083 C 
HETATM   18  C14 UNL     1      31.651   5.521  48.076  1.00  0.00     0.032 C 
HETATM   19  C15 UNL     1      31.277   7.808  48.903  1.00  0.00     0.103 C 
HETATM   20  S1  UNL     1      32.852   8.284  48.161  1.00  0.00    -0.138 SA
HETATM   21  C16 UNL     1      32.552   9.004  46.596  1.00  0.00     0.062 C 
HETATM   22  C17 UNL     1      32.195   9.417  45.409  1.00  0.00     0.105 C 
HETATM   23  N4  UNL     1      32.342  10.281  44.315  1.00  0.00    -0.326 N 
HETATM   24  C18 UNL     1      33.036   9.932  43.109  1.00  0.00     0.165 C 
HETATM   25  S2  UNL     1      31.562  11.755  44.711  1.00  0.00     0.031 SA
HETATM   26  C19 UNL     1      30.878  12.998  45.036  1.00  0.00    -0.042 C 
HETATM   27  H16 UNL     1      27.427   4.250  49.844  1.00  0.00     0.160 HD
HETATM   28  H19 UNL     1      29.425   6.539  49.821  1.00  0.00     0.155 HD
ENDROOT
BRANCH   1  29
HETATM   29  O1  UNL     1      30.771  14.718  44.205  1.00  0.00    -0.364 OA
HETATM   30  C1  UNL     1      30.131  14.560  42.951  1.00  0.00     0.204 C 
ENDBRANCH   1  29
TORSDOF 1
ENDMDL
MODEL 8
REMARK VINA RESULT:      -6.5      6.502     11.410
REMARK  1 active torsions:
REMARK  status: ('A' for Active; 'I' for Inactive)
REMARK    1  A    between atoms: O1_2  and  C2_3 
ROOT
HETATM    1  C2  UNL     1      30.551   7.989  48.238  1.00  0.00     0.196 A 
HETATM    2  C3  UNL     1      29.935   6.833  47.965  1.00  0.00    -0.001 A 
HETATM    3  O2  UNL     1      31.259   6.573  48.152  1.00  0.00     0.000 OA
HETATM    4  C4  UNL     1      31.694   5.218  48.334  1.00  0.00     0.000 C 
HETATM    5  C5  UNL     1      28.491   6.836  47.724  1.00  0.00     0.186 C 
HETATM    6  N1  UNL     1      27.672   6.079  48.562  1.00  0.00    -0.299 NA
HETATM    7  C6  UNL     1      27.477   4.850  48.664  1.00  0.00     0.110 C 
HETATM    8  C7  UNL     1      26.484   4.552  49.722  1.00  0.00     0.220 C 
HETATM    9  O3  UNL     1      25.187   4.345  49.149  1.00  0.00    -0.358 OA
HETATM   10  C8  UNL     1      24.129   4.583  50.044  1.00  0.00     0.135 C 
HETATM   11  C9  UNL     1      23.077   5.361  50.175  1.00  0.00     0.025 C 
HETATM   12  C10 UNL     1      21.881   5.924  50.776  1.00  0.00     0.019 C 
HETATM   13  C11 UNL     1      21.127   6.863  50.330  1.00  0.00     0.084 C 
HETATM   14  N2  UNL     1      20.405   7.883  49.731  1.00  0.00    -0.383 N 
HETATM   15  C12 UNL     1      21.085   9.147  49.409  1.00  0.00     0.237 C 
HETATM   16  N3  UNL     1      22.011   8.946  48.343  1.00  0.00    -0.402 N 
HETATM   17  C13 UNL     1      22.802  10.071  47.965  1.00  0.00     0.083 C 
HETATM   18  C14 UNL     1      22.025  11.325  47.627  1.00  0.00     0.032 C 
HETATM   19  C15 UNL     1      23.548   9.639  46.683  1.00  0.00     0.103 C 
HETATM   20  S1  UNL     1      24.574  10.985  46.054  1.00  0.00    -0.138 SA
HETATM   21  C16 UNL     1      25.888  11.271  47.172  1.00  0.00     0.062 C 
HETATM   22  C17 UNL     1      26.749  11.448  48.140  1.00  0.00     0.105 C 
HETATM   23  N4  UNL     1      28.039  11.757  48.592  1.00  0.00    -0.326 N 
HETATM   24  C18 UNL     1      28.425  13.048  49.087  1.00  0.00     0.165 C 
HETATM   25  S2  UNL     1      28.995  10.343  48.433  1.00  0.00     0.031 SA
HETATM   26  C19 UNL     1      29.801   9.137  48.322  1.00  0.00    -0.042 C 
HETATM   27  H16 UNL     1      19.383   7.830  49.466  1.00  0.00     0.160 HD
HETATM   28  H19 UNL     1      21.706   8.337  47.575  1.00  0.00     0.155 HD
ENDROOT
BRANCH   1  29
HETATM   29  O1  UNL     1      31.664   8.755  48.530  1.00  0.00    -0.364 OA
HETATM   30  C1  UNL     1      32.366   9.406  47.486  1.00  0.00     0.204 C 
ENDBRANCH   1  29
TORSDOF 1
ENDMDL
MODEL 9
REMARK VINA RESULT:      -6.5      3.768      8.055
REMARK  1 active torsions:
REMARK  status: ('A' for Active; 'I' for Inactive)
REMARK    1  A    between atoms: O1_2  and  C2_3 
ROOT
HETATM    1  C2  UNL     1      24.995   7.985  48.766  1.00  0.00     0.196 A 
HETATM    2  C3  UNL     1      25.637   6.815  48.661  1.00  0.00    -0.001 A 
HETATM    3  O2  UNL     1      26.553   7.815  48.525  1.00  0.00     0.000 OA
HETATM    4  C4  UNL     1      27.952   7.509  48.609  1.00  0.00     0.000 C 
HETATM    5  C5  UNL     1      24.875   5.572  48.778  1.00  0.00     0.186 C 
HETATM    6  N1  UNL     1      25.204   4.677  49.797  1.00  0.00    -0.299 NA
HETATM    7  C6  UNL     1      26.167   3.898  49.955  1.00  0.00     0.110 C 
HETATM    8  C7  UNL     1      26.043   3.147  51.225  1.00  0.00     0.220 C 
HETATM    9  O3  UNL     1      25.495   1.844  50.985  1.00  0.00    -0.358 OA
HETATM   10  C8  UNL     1      24.861   1.282  52.108  1.00  0.00     0.135 C 
HETATM   11  C9  UNL     1      23.679   0.844  52.482  1.00  0.00     0.025 C 
HETATM   12  C10 UNL     1      22.663   0.275  53.349  1.00  0.00     0.019 C 
HETATM   13  C11 UNL     1      21.427   0.046  53.091  1.00  0.00     0.084 C 
HETATM   14  N2  UNL     1      20.119  -0.148  52.675  1.00  0.00    -0.383 N 
HETATM   15  C12 UNL     1      19.347   1.004  52.185  1.00  0.00     0.237 C 
HETATM   16  N3  UNL     1      19.861   1.439  50.928  1.00  0.00    -0.402 N 
HETATM   17  C13 UNL     1      19.258   2.600  50.359  1.00  0.00     0.083 C 
HETATM   18  C14 UNL     1      17.752   2.538  50.207  1.00  0.00     0.032 C 
HETATM   19  C15 UNL     1      19.852   2.720  48.938  1.00  0.00     0.103 C 
HETATM   20  S1  UNL     1      19.149   4.136  48.067  1.00  0.00    -0.138 SA
HETATM   21  C16 UNL     1      19.703   5.608  48.830  1.00  0.00     0.062 C 
HETATM   22  C17 UNL     1      20.102   6.618  49.558  1.00  0.00     0.105 C 
HETATM   23  N4  UNL     1      20.545   7.942  49.681  1.00  0.00    -0.326 N 
HETATM   24  C18 UNL     1      19.697   9.037  50.056  1.00  0.00     0.165 C 
HETATM   25  S2  UNL     1      22.218   7.964  49.310  1.00  0.00     0.031 SA
HETATM   26  C19 UNL     1      23.644   7.980  49.018  1.00  0.00    -0.042 C 
HETATM   27  H16 UNL     1      19.615  -1.077  52.666  1.00  0.00     0.160 HD
HETATM   28  H19 UNL     1      20.137   0.708  50.263  1.00  0.00     0.155 HD
ENDROOT
BRANCH   1  29
HETATM   29  O1  UNL     1      24.940   9.366  48.772  1.00  0.00    -0.364 OA
HETATM   30  C1  UNL     1      24.621  10.064  47.582  1.00  0.00     0.204 C 
ENDBRANCH   1  29
TORSDOF 1
ENDMDL
