MODEL 1
REMARK VINA RESULT:      -9.0      0.000      0.000
REMARK  5 active torsions:
REMARK  status: ('A' for Active; 'I' for Inactive)
REMARK    1  A    between atoms: C2_2  and  C3_3 
REMARK       I    between atoms: C3_3  and  N1_5 
REMARK    2  A    between atoms: N1_5  and  C4_6 
REMARK    3  A    between atoms: C11_13  and  O2_14 
REMARK    4  A    between atoms: O2_14  and  C12_15 
REMARK    5  A    between atoms: C22_30  and  O3_31 
ROOT
HETATM    1  C4  UNL     1      23.787   7.549  50.530  1.00  0.00     0.069 A 
HETATM    2  C5  UNL     1      24.189   6.437  51.101  1.00  0.00     0.048 A 
HETATM    3  C6  UNL     1      23.147   5.382  51.180  1.00  0.00     0.018 A 
HETATM    4  C7  UNL     1      23.121   4.151  51.584  1.00  0.00     0.030 C 
HETATM    5  C8  UNL     1      22.672   2.851  51.908  1.00  0.00     0.072 C 
HETATM    6  C9  UNL     1      22.913   1.685  52.393  1.00  0.00    -0.012 C 
HETATM    7  C10 UNL     1      23.939   0.790  53.036  1.00  0.00     0.031 C 
HETATM    8  C11 UNL     1      25.171   1.195  53.381  1.00  0.00     0.066 C 
HETATM    9  C18 UNL     1      25.929   2.437  53.390  1.00  0.00     0.157 C 
HETATM   10  N2  UNL     1      26.871   2.581  52.357  1.00  0.00    -0.285 NA
HETATM   11  P1  UNL     1      26.050   2.942  50.802  1.00  0.00     0.003 P 
HETATM   12  N3  UNL     1      24.551   3.921  51.113  1.00  0.00    -0.357 N 
HETATM   13  C19 UNL     1      21.841   5.685  50.633  1.00  0.00     0.065 A 
HETATM   14  N4  UNL     1      20.861   4.816  50.687  1.00  0.00    -0.294 NA
HETATM   15  C20 UNL     1      19.561   5.086  50.153  1.00  0.00     0.178 C 
HETATM   16  C21 UNL     1      21.520   6.977  50.015  1.00  0.00     0.071 A 
HETATM   17  C22 UNL     1      22.491   7.842  49.985  1.00  0.00     0.097 A 
HETATM   18  H17 UNL     1      27.552   1.872  52.268  1.00  0.00     0.128 HD
HETATM   19  H18 UNL     1      25.792   1.756  50.024  1.00  0.00     0.088 HD
HETATM   20  H19 UNL     1      25.373   4.439  50.645  1.00  0.00     0.225 HD
ENDROOT
BRANCH   1  21
HETATM   21  N1  UNL     1      24.931   8.377  50.573  1.00  0.00    -0.325 N 
HETATM   22  C3  UNL     1      25.672   8.272  49.367  1.00  0.00     0.221 C 
HETATM   23  O1  UNL     1      25.447   7.580  48.343  1.00  0.00    -0.273 OA
HETATM   24  H6  UNL     1      25.407   9.043  51.201  1.00  0.00     0.169 HD
BRANCH  22  25
HETATM   25  C2  UNL     1      26.947   8.933  48.929  1.00  0.00     0.098 C 
HETATM   26  C1  UNL     1      27.622   9.482  50.182  1.00  0.00     0.014 C 
ENDBRANCH  22  25
ENDBRANCH   1  21
BRANCH  17  27
HETATM   27  O3  UNL     1      22.178   9.042  49.397  1.00  0.00    -0.354 OA
HETATM   28  C23 UNL     1      20.917   9.573  49.275  1.00  0.00     0.210 C 
ENDBRANCH  17  27
BRANCH   8  29
HETATM   29  O2  UNL     1      25.712   0.051  53.867  1.00  0.00    -0.314 OA
BRANCH  29  30
HETATM   30  C12 UNL     1      26.889  -0.529  53.667  1.00  0.00     0.078 A 
HETATM   31  C13 UNL     1      26.608  -1.728  52.976  1.00  0.00     0.037 A 
HETATM   32  C14 UNL     1      27.657  -2.607  52.604  1.00  0.00     0.006 A 
HETATM   33  C15 UNL     1      28.943  -2.278  52.919  1.00  0.00     0.042 A 
HETATM   34  C16 UNL     1      29.294  -1.118  53.590  1.00  0.00     0.119 A 
HETATM   35  F1  UNL     1      30.514  -0.693  53.966  1.00  0.00    -0.206 F 
HETATM   36  C17 UNL     1      28.231  -0.318  53.920  1.00  0.00     0.079 A 
ENDBRANCH  29  30
ENDBRANCH   8  29
TORSDOF 5
ENDMDL
MODEL 2
REMARK VINA RESULT:      -8.7      4.854      8.485
REMARK  5 active torsions:
REMARK  status: ('A' for Active; 'I' for Inactive)
REMARK    1  A    between atoms: C2_2  and  C3_3 
REMARK       I    between atoms: C3_3  and  N1_5 
REMARK    2  A    between atoms: N1_5  and  C4_6 
REMARK    3  A    between atoms: C11_13  and  O2_14 
REMARK    4  A    between atoms: O2_14  and  C12_15 
REMARK    5  A    between atoms: C22_30  and  O3_31 
ROOT
HETATM    1  C4  UNL     1      25.749   3.057  51.452  1.00  0.00     0.069 A 
HETATM    2  C5  UNL     1      24.472   2.871  51.206  1.00  0.00     0.048 A 
HETATM    3  C6  UNL     1      23.906   1.644  51.820  1.00  0.00     0.018 A 
HETATM    4  C7  UNL     1      22.723   1.120  51.894  1.00  0.00     0.030 C 
HETATM    5  C8  UNL     1      21.657   0.243  52.194  1.00  0.00     0.072 C 
HETATM    6  C9  UNL     1      20.412  -0.062  52.093  1.00  0.00    -0.012 C 
HETATM    7  C10 UNL     1      19.076   0.325  51.518  1.00  0.00     0.031 C 
HETATM    8  C11 UNL     1      18.894   1.369  50.694  1.00  0.00     0.066 C 
HETATM    9  C18 UNL     1      19.717   2.365  50.024  1.00  0.00     0.157 C 
HETATM   10  N2  UNL     1      19.710   3.646  50.603  1.00  0.00    -0.285 NA
HETATM   11  P1  UNL     1      20.687   3.662  52.109  1.00  0.00     0.003 P 
HETATM   12  N3  UNL     1      22.072   2.496  51.954  1.00  0.00    -0.357 N 
HETATM   13  C19 UNL     1      24.797   0.810  52.600  1.00  0.00     0.065 A 
HETATM   14  N4  UNL     1      24.380  -0.303  53.153  1.00  0.00    -0.294 NA
HETATM   15  C20 UNL     1      25.237  -1.145  53.932  1.00  0.00     0.178 C 
HETATM   16  C21 UNL     1      26.214   1.135  52.801  1.00  0.00     0.071 A 
HETATM   17  C22 UNL     1      26.627   2.229  52.231  1.00  0.00     0.097 A 
HETATM   18  H17 UNL     1      18.833   4.082  50.718  1.00  0.00     0.128 HD
HETATM   19  H18 UNL     1      19.890   3.431  53.287  1.00  0.00     0.088 HD
HETATM   20  H19 UNL     1      22.324   3.544  51.938  1.00  0.00     0.225 HD
ENDROOT
BRANCH   1  21
HETATM   21  N1  UNL     1      26.045   4.262  50.776  1.00  0.00    -0.325 N 
HETATM   22  C3  UNL     1      26.805   4.006  49.605  1.00  0.00     0.221 C 
HETATM   23  O1  UNL     1      27.215   2.916  49.134  1.00  0.00    -0.273 OA
HETATM   24  H6  UNL     1      25.885   5.278  50.856  1.00  0.00     0.169 HD
BRANCH  22  25
HETATM   25  C2  UNL     1      27.365   4.936  48.567  1.00  0.00     0.098 C 
HETATM   26  C1  UNL     1      26.504   6.195  48.580  1.00  0.00     0.014 C 
ENDBRANCH  22  25
ENDBRANCH   1  21
BRANCH  17  27
HETATM   27  O3  UNL     1      27.951   2.523  52.434  1.00  0.00    -0.354 OA
HETATM   28  C23 UNL     1      28.637   2.372  53.615  1.00  0.00     0.210 C 
ENDBRANCH  17  27
BRANCH   8  29
HETATM   29  O2  UNL     1      17.554   1.331  50.492  1.00  0.00    -0.314 OA
BRANCH  29  30
HETATM   30  C12 UNL     1      16.527   1.545  51.307  1.00  0.00     0.078 A 
HETATM   31  C13 UNL     1      16.382   2.949  51.371  1.00  0.00     0.037 A 
HETATM   32  C14 UNL     1      15.365   3.531  52.171  1.00  0.00     0.006 A 
HETATM   33  C15 UNL     1      14.527   2.717  52.876  1.00  0.00     0.042 A 
HETATM   34  C16 UNL     1      14.608   1.335  52.859  1.00  0.00     0.119 A 
HETATM   35  F1  UNL     1      13.855   0.434  53.516  1.00  0.00    -0.206 F 
HETATM   36  C17 UNL     1      15.613   0.842  52.068  1.00  0.00     0.079 A 
ENDBRANCH  29  30
ENDBRANCH   8  29
TORSDOF 5
ENDMDL
MODEL 3
REMARK VINA RESULT:      -8.7      3.491      8.636
REMARK  5 active torsions:
REMARK  status: ('A' for Active; 'I' for Inactive)
REMARK    1  A    between atoms: C2_2  and  C3_3 
REMARK       I    between atoms: C3_3  and  N1_5 
REMARK    2  A    between atoms: N1_5  and  C4_6 
REMARK    3  A    between atoms: C11_13  and  O2_14 
REMARK    4  A    between atoms: O2_14  and  C12_15 
REMARK    5  A    between atoms: C22_30  and  O3_31 
ROOT
HETATM    1  C4  UNL     1      21.866   0.934  53.267  1.00  0.00     0.069 A 
HETATM    2  C5  UNL     1      22.444   1.832  52.504  1.00  0.00     0.048 A 
HETATM    3  C6  UNL     1      23.891   1.594  52.270  1.00  0.00     0.018 A 
HETATM    4  C7  UNL     1      24.807   2.163  51.554  1.00  0.00     0.030 C 
HETATM    5  C8  UNL     1      26.051   2.471  50.957  1.00  0.00     0.072 C 
HETATM    6  C9  UNL     1      26.756   3.228  50.194  1.00  0.00    -0.012 C 
HETATM    7  C10 UNL     1      26.766   4.452  49.317  1.00  0.00     0.031 C 
HETATM    8  C11 UNL     1      25.713   5.271  49.168  1.00  0.00     0.066 C 
HETATM    9  C18 UNL     1      24.374   5.409  49.720  1.00  0.00     0.157 C 
HETATM   10  N2  UNL     1      23.328   4.966  48.892  1.00  0.00    -0.285 NA
HETATM   11  P1  UNL     1      23.269   3.172  48.858  1.00  0.00     0.003 P 
HETATM   12  N3  UNL     1      23.801   2.510  50.464  1.00  0.00    -0.357 N 
HETATM   13  C19 UNL     1      24.488   0.429  52.890  1.00  0.00     0.065 A 
HETATM   14  N4  UNL     1      25.764   0.162  52.752  1.00  0.00    -0.294 NA
HETATM   15  C20 UNL     1      26.382  -0.982  53.350  1.00  0.00     0.178 C 
HETATM   16  C21 UNL     1      23.724  -0.505  53.725  1.00  0.00     0.071 A 
HETATM   17  C22 UNL     1      22.463  -0.222  53.875  1.00  0.00     0.097 A 
HETATM   18  H17 UNL     1      23.270   5.363  47.991  1.00  0.00     0.128 HD
HETATM   19  H18 UNL     1      24.006   2.616  47.752  1.00  0.00     0.088 HD
HETATM   20  H19 UNL     1      22.752   2.416  50.231  1.00  0.00     0.225 HD
ENDROOT
BRANCH   1  21
HETATM   21  N1  UNL     1      20.524   1.371  53.338  1.00  0.00    -0.325 N 
HETATM   22  C3  UNL     1      19.771   0.858  52.250  1.00  0.00     0.221 C 
HETATM   23  O1  UNL     1      20.132   0.116  51.302  1.00  0.00    -0.273 OA
HETATM   24  H6  UNL     1      19.906   1.946  53.931  1.00  0.00     0.169 HD
BRANCH  22  25
HETATM   25  C2  UNL     1      18.328   1.034  51.876  1.00  0.00     0.098 C 
HETATM   26  C1  UNL     1      17.878  -0.258  51.201  1.00  0.00     0.014 C 
ENDBRANCH  22  25
ENDBRANCH   1  21
BRANCH  17  27
HETATM   27  O3  UNL     1      21.760  -1.108  54.652  1.00  0.00    -0.354 OA
HETATM   28  C23 UNL     1      20.834  -2.015  54.199  1.00  0.00     0.210 C 
ENDBRANCH  17  27
BRANCH   8  29
HETATM   29  O2  UNL     1      26.189   6.172  48.274  1.00  0.00    -0.314 OA
BRANCH  29  30
HETATM   30  C12 UNL     1      27.271   6.943  48.281  1.00  0.00     0.078 A 
HETATM   31  C13 UNL     1      26.993   7.976  49.203  1.00  0.00     0.037 A 
HETATM   32  C14 UNL     1      27.949   8.993  49.454  1.00  0.00     0.006 A 
HETATM   33  C15 UNL     1      29.143   8.959  48.794  1.00  0.00     0.042 A 
HETATM   34  C16 UNL     1      29.485   7.977  47.880  1.00  0.00     0.119 A 
HETATM   35  F1  UNL     1      30.616   7.844  47.162  1.00  0.00    -0.206 F 
HETATM   36  C17 UNL     1      28.515   7.029  47.686  1.00  0.00     0.079 A 
ENDBRANCH  29  30
ENDBRANCH   8  29
TORSDOF 5
ENDMDL
MODEL 4
REMARK VINA RESULT:      -8.6      5.234      7.448
REMARK  5 active torsions:
REMARK  status: ('A' for Active; 'I' for Inactive)
REMARK    1  A    between atoms: C2_2  and  C3_3 
REMARK       I    between atoms: C3_3  and  N1_5 
REMARK    2  A    between atoms: N1_5  and  C4_6 
REMARK    3  A    between atoms: C11_13  and  O2_14 
REMARK    4  A    between atoms: O2_14  and  C12_15 
REMARK    5  A    between atoms: C22_30  and  O3_31 
ROOT
HETATM    1  C4  UNL     1      24.289   3.548  49.311  1.00  0.00     0.069 A 
HETATM    2  C5  UNL     1      23.345   2.858  49.909  1.00  0.00     0.048 A 
HETATM    3  C6  UNL     1      23.816   2.048  51.059  1.00  0.00     0.018 A 
HETATM    4  C7  UNL     1      23.243   1.298  51.946  1.00  0.00     0.030 C 
HETATM    5  C8  UNL     1      23.033   0.430  53.042  1.00  0.00     0.072 C 
HETATM    6  C9  UNL     1      22.230  -0.264  53.766  1.00  0.00    -0.012 C 
HETATM    7  C10 UNL     1      20.806  -0.703  53.979  1.00  0.00     0.031 C 
HETATM    8  C11 UNL     1      19.798  -0.391  53.149  1.00  0.00     0.066 C 
HETATM    9  C18 UNL     1      19.628   0.292  51.875  1.00  0.00     0.157 C 
HETATM   10  N2  UNL     1      19.115   1.598  51.951  1.00  0.00    -0.285 NA
HETATM   11  P1  UNL     1      20.374   2.735  52.540  1.00  0.00     0.003 P 
HETATM   12  N3  UNL     1      22.009   2.191  51.966  1.00  0.00    -0.357 N 
HETATM   13  C19 UNL     1      25.226   2.106  51.389  1.00  0.00     0.065 A 
HETATM   14  N4  UNL     1      25.725   1.401  52.374  1.00  0.00    -0.294 NA
HETATM   15  C20 UNL     1      27.113   1.440  52.725  1.00  0.00     0.178 C 
HETATM   16  C21 UNL     1      26.183   2.925  50.636  1.00  0.00     0.071 A 
HETATM   17  C22 UNL     1      25.685   3.604  49.645  1.00  0.00     0.097 A 
HETATM   18  H17 UNL     1      18.253   1.716  52.415  1.00  0.00     0.128 HD
HETATM   19  H18 UNL     1      20.318   2.930  53.967  1.00  0.00     0.088 HD
HETATM   20  H19 UNL     1      21.611   3.081  51.505  1.00  0.00     0.225 HD
ENDROOT
BRANCH   1  21
HETATM   21  N1  UNL     1      23.605   4.220  48.274  1.00  0.00    -0.325 N 
HETATM   22  C3  UNL     1      23.122   5.477  48.724  1.00  0.00     0.221 C 
HETATM   23  O1  UNL     1      23.224   6.020  49.853  1.00  0.00    -0.273 OA
HETATM   24  H6  UNL     1      23.341   4.096  47.284  1.00  0.00     0.169 HD
BRANCH  22  25
HETATM   25  C2  UNL     1      22.340   6.546  48.018  1.00  0.00     0.098 C 
HETATM   26  C1  UNL     1      23.017   6.783  46.671  1.00  0.00     0.014 C 
ENDBRANCH  22  25
ENDBRANCH   1  21
BRANCH  17  27
HETATM   27  O3  UNL     1      26.590   4.371  48.956  1.00  0.00    -0.354 OA
HETATM   28  C23 UNL     1      26.674   5.742  48.991  1.00  0.00     0.210 C 
ENDBRANCH  17  27
BRANCH   8  29
HETATM   29  O2  UNL     1      18.739  -0.963  53.774  1.00  0.00    -0.314 OA
BRANCH  29  30
HETATM   30  C12 UNL     1      17.696  -1.641  53.310  1.00  0.00     0.078 A 
HETATM   31  C13 UNL     1      17.854  -2.958  53.796  1.00  0.00     0.037 A 
HETATM   32  C14 UNL     1      16.903  -3.961  53.478  1.00  0.00     0.006 A 
HETATM   33  C15 UNL     1      15.829  -3.637  52.701  1.00  0.00     0.042 A 
HETATM   34  C16 UNL     1      15.608  -2.367  52.193  1.00  0.00     0.119 A 
HETATM   35  F1  UNL     1      14.604  -1.931  51.410  1.00  0.00    -0.206 F 
HETATM   36  C17 UNL     1      16.566  -1.451  52.537  1.00  0.00     0.079 A 
ENDBRANCH  29  30
ENDBRANCH   8  29
TORSDOF 5
ENDMDL
MODEL 5
REMARK VINA RESULT:      -8.5      3.373      4.663
REMARK  5 active torsions:
REMARK  status: ('A' for Active; 'I' for Inactive)
REMARK    1  A    between atoms: C2_2  and  C3_3 
REMARK       I    between atoms: C3_3  and  N1_5 
REMARK    2  A    between atoms: N1_5  and  C4_6 
REMARK    3  A    between atoms: C11_13  and  O2_14 
REMARK    4  A    between atoms: O2_14  and  C12_15 
REMARK    5  A    between atoms: C22_30  and  O3_31 
ROOT
HETATM    1  C4  UNL     1      26.997   9.333  49.720  1.00  0.00     0.069 A 
HETATM    2  C5  UNL     1      26.637   8.112  50.043  1.00  0.00     0.048 A 
HETATM    3  C6  UNL     1      25.307   7.711  49.521  1.00  0.00     0.018 A 
HETATM    4  C7  UNL     1      24.610   6.619  49.536  1.00  0.00     0.030 C 
HETATM    5  C8  UNL     1      23.569   5.684  49.337  1.00  0.00     0.072 C 
HETATM    6  C9  UNL     1      23.088   4.507  49.521  1.00  0.00    -0.012 C 
HETATM    7  C10 UNL     1      23.304   3.155  50.149  1.00  0.00     0.031 C 
HETATM    8  C11 UNL     1      24.352   2.856  50.931  1.00  0.00     0.066 C 
HETATM    9  C18 UNL     1      25.495   3.549  51.506  1.00  0.00     0.157 C 
HETATM   10  N2  UNL     1      26.727   3.321  50.868  1.00  0.00    -0.285 NA
HETATM   11  P1  UNL     1      26.805   4.213  49.312  1.00  0.00     0.003 P 
HETATM   12  N3  UNL     1      25.868   5.764  49.446  1.00  0.00    -0.357 N 
HETATM   13  C19 UNL     1      24.574   8.680  48.733  1.00  0.00     0.065 A 
HETATM   14  N4  UNL     1      23.382   8.411  48.257  1.00  0.00    -0.294 NA
HETATM   15  C20 UNL     1      22.635   9.347  47.474  1.00  0.00     0.178 C 
HETATM   16  C21 UNL     1      25.094  10.021  48.440  1.00  0.00     0.071 A 
HETATM   17  C22 UNL     1      26.267  10.289  48.934  1.00  0.00     0.097 A 
HETATM   18  H17 UNL     1      27.021   2.384  50.781  1.00  0.00     0.128 HD
HETATM   19  H18 UNL     1      26.393   3.406  48.191  1.00  0.00     0.088 HD
HETATM   20  H19 UNL     1      26.942   5.856  49.399  1.00  0.00     0.225 HD
ENDROOT
BRANCH   1  21
HETATM   21  N1  UNL     1      28.268   9.475  50.320  1.00  0.00    -0.325 N 
HETATM   22  C3  UNL     1      29.298   9.336  49.352  1.00  0.00     0.221 C 
HETATM   23  O1  UNL     1      29.216   9.116  48.117  1.00  0.00    -0.273 OA
HETATM   24  H6  UNL     1      28.697   9.652  51.241  1.00  0.00     0.169 HD
BRANCH  22  25
HETATM   25  C2  UNL     1      30.792   9.395  49.483  1.00  0.00     0.098 C 
HETATM   26  C1  UNL     1      31.311   7.965  49.367  1.00  0.00     0.014 C 
ENDBRANCH  22  25
ENDBRANCH   1  21
BRANCH  17  27
HETATM   27  O3  UNL     1      26.743  11.543  48.645  1.00  0.00    -0.354 OA
HETATM   28  C23 UNL     1      27.186  11.971  47.418  1.00  0.00     0.210 C 
ENDBRANCH  17  27
BRANCH   8  29
HETATM   29  O2  UNL     1      24.126   1.548  51.207  1.00  0.00    -0.314 OA
BRANCH  29  30
HETATM   30  C12 UNL     1      23.489   0.950  52.207  1.00  0.00     0.078 A 
HETATM   31  C13 UNL     1      24.461   0.154  52.853  1.00  0.00     0.037 A 
HETATM   32  C14 UNL     1      24.112  -0.636  53.978  1.00  0.00     0.006 A 
HETATM   33  C15 UNL     1      22.825  -0.614  54.432  1.00  0.00     0.042 A 
HETATM   34  C16 UNL     1      21.822   0.144  53.852  1.00  0.00     0.119 A 
HETATM   35  F1  UNL     1      20.524   0.237  54.196  1.00  0.00    -0.206 F 
HETATM   36  C17 UNL     1      22.229   0.879  52.770  1.00  0.00     0.079 A 
ENDBRANCH  29  30
ENDBRANCH   8  29
TORSDOF 5
ENDMDL
MODEL 6
REMARK VINA RESULT:      -8.5      3.978      6.524
REMARK  5 active torsions:
REMARK  status: ('A' for Active; 'I' for Inactive)
REMARK    1  A    between atoms: C2_2  and  C3_3 
REMARK       I    between atoms: C3_3  and  N1_5 
REMARK    2  A    between atoms: N1_5  and  C4_6 
REMARK    3  A    between atoms: C11_13  and  O2_14 
REMARK    4  A    between atoms: O2_14  and  C12_15 
REMARK    5  A    between atoms: C22_30  and  O3_31 
ROOT
HETATM    1  C4  UNL     1      28.431   9.051  47.360  1.00  0.00     0.069 A 
HETATM    2  C5  UNL     1      27.498   8.181  47.674  1.00  0.00     0.048 A 
HETATM    3  C6  UNL     1      28.017   6.853  48.086  1.00  0.00     0.018 A 
HETATM    4  C7  UNL     1      27.482   5.759  48.529  1.00  0.00     0.030 C 
HETATM    5  C8  UNL     1      27.318   4.439  49.005  1.00  0.00     0.072 C 
HETATM    6  C9  UNL     1      26.542   3.489  49.391  1.00  0.00    -0.012 C 
HETATM    7  C10 UNL     1      25.118   3.059  49.621  1.00  0.00     0.031 C 
HETATM    8  C11 UNL     1      24.052   3.815  49.315  1.00  0.00     0.066 C 
HETATM    9  C18 UNL     1      23.791   5.094  48.672  1.00  0.00     0.157 C 
HETATM   10  N2  UNL     1      23.489   6.159  49.538  1.00  0.00    -0.285 NA
HETATM   11  P1  UNL     1      24.971   6.733  50.372  1.00  0.00     0.003 P 
HETATM   12  N3  UNL     1      26.406   6.537  49.276  1.00  0.00    -0.357 N 
HETATM   13  C19 UNL     1      29.454   6.667  48.099  1.00  0.00     0.065 A 
HETATM   14  N4  UNL     1      29.989   5.517  48.427  1.00  0.00    -0.294 NA
HETATM   15  C20 UNL     1      31.405   5.304  48.451  1.00  0.00     0.178 C 
HETATM   16  C21 UNL     1      30.394   7.730  47.724  1.00  0.00     0.071 A 
HETATM   17  C22 UNL     1      29.855   8.862  47.379  1.00  0.00     0.097 A 
HETATM   18  H17 UNL     1      22.732   6.031  50.158  1.00  0.00     0.128 HD
HETATM   19  H18 UNL     1      25.159   6.107  51.657  1.00  0.00     0.088 HD
HETATM   20  H19 UNL     1      26.075   7.547  49.455  1.00  0.00     0.225 HD
ENDROOT
BRANCH   1  21
HETATM   21  N1  UNL     1      27.702  10.209  47.010  1.00  0.00    -0.325 N 
HETATM   22  C3  UNL     1      27.555  11.067  48.131  1.00  0.00     0.221 C 
HETATM   23  O1  UNL     1      27.966  10.926  49.310  1.00  0.00    -0.273 OA
HETATM   24  H6  UNL     1      27.239  10.641  46.196  1.00  0.00     0.169 HD
BRANCH  22  25
HETATM   25  C2  UNL     1      26.867  12.393  48.278  1.00  0.00     0.098 C 
HETATM   26  C1  UNL     1      27.951  13.466  48.252  1.00  0.00     0.014 C 
ENDBRANCH  22  25
ENDBRANCH   1  21
BRANCH  17  27
HETATM   27  O3  UNL     1      30.747   9.848  47.039  1.00  0.00    -0.354 OA
HETATM   28  C23 UNL     1      31.312  10.752  47.904  1.00  0.00     0.210 C 
ENDBRANCH  17  27
BRANCH   8  29
HETATM   29  O2  UNL     1      23.028   3.032  49.737  1.00  0.00    -0.314 OA
BRANCH  29  30
HETATM   30  C12 UNL     1      22.945   2.125  50.704  1.00  0.00     0.078 A 
HETATM   31  C13 UNL     1      21.801   1.354  50.402  1.00  0.00     0.037 A 
HETATM   32  C14 UNL     1      21.411   0.284  51.247  1.00  0.00     0.006 A 
HETATM   33  C15 UNL     1      22.158   0.006  52.355  1.00  0.00     0.042 A 
HETATM   34  C16 UNL     1      23.292   0.717  52.712  1.00  0.00     0.119 A 
HETATM   35  F1  UNL     1      24.096   0.550  53.778  1.00  0.00    -0.206 F 
HETATM   36  C17 UNL     1      23.608   1.736  51.853  1.00  0.00     0.079 A 
ENDBRANCH  29  30
ENDBRANCH   8  29
TORSDOF 5
ENDMDL
MODEL 7
REMARK VINA RESULT:      -8.5      3.434      5.435
REMARK  5 active torsions:
REMARK  status: ('A' for Active; 'I' for Inactive)
REMARK    1  A    between atoms: C2_2  and  C3_3 
REMARK       I    between atoms: C3_3  and  N1_5 
REMARK    2  A    between atoms: N1_5  and  C4_6 
REMARK    3  A    between atoms: C11_13  and  O2_14 
REMARK    4  A    between atoms: O2_14  and  C12_15 
REMARK    5  A    between atoms: C22_30  and  O3_31 
ROOT
HETATM    1  C4  UNL     1      24.875   7.239  47.864  1.00  0.00     0.069 A 
HETATM    2  C5  UNL     1      24.614   6.173  48.586  1.00  0.00     0.048 A 
HETATM    3  C6  UNL     1      25.813   5.382  48.960  1.00  0.00     0.018 A 
HETATM    4  C7  UNL     1      26.027   4.336  49.693  1.00  0.00     0.030 C 
HETATM    5  C8  UNL     1      26.670   3.269  50.360  1.00  0.00     0.072 C 
HETATM    6  C9  UNL     1      26.596   2.223  51.104  1.00  0.00    -0.012 C 
HETATM    7  C10 UNL     1      25.686   1.293  51.861  1.00  0.00     0.031 C 
HETATM    8  C11 UNL     1      24.348   1.384  51.846  1.00  0.00     0.066 C 
HETATM    9  C18 UNL     1      23.333   2.182  51.174  1.00  0.00     0.157 C 
HETATM   10  N2  UNL     1      22.749   3.199  51.950  1.00  0.00    -0.285 NA
HETATM   11  P1  UNL     1      23.887   4.574  52.146  1.00  0.00     0.003 P 
HETATM   12  N3  UNL     1      24.918   4.734  50.659  1.00  0.00    -0.357 N 
HETATM   13  C19 UNL     1      27.102   5.860  48.503  1.00  0.00     0.065 A 
HETATM   14  N4  UNL     1      28.206   5.205  48.770  1.00  0.00    -0.294 NA
HETATM   15  C20 UNL     1      29.494   5.653  48.334  1.00  0.00     0.178 C 
HETATM   16  C21 UNL     1      27.257   7.077  47.698  1.00  0.00     0.071 A 
HETATM   17  C22 UNL     1      26.157   7.710  47.418  1.00  0.00     0.097 A 
HETATM   18  H17 UNL     1      22.332   2.930  52.802  1.00  0.00     0.128 HD
HETATM   19  H18 UNL     1      24.664   4.480  53.357  1.00  0.00     0.088 HD
HETATM   20  H19 UNL     1      24.175   5.501  50.812  1.00  0.00     0.225 HD
ENDROOT
BRANCH   1  21
HETATM   21  N1  UNL     1      23.602   7.810  47.642  1.00  0.00    -0.325 N 
HETATM   22  C3  UNL     1      23.188   8.566  48.769  1.00  0.00     0.221 C 
HETATM   23  O1  UNL     1      23.777   8.771  49.860  1.00  0.00    -0.273 OA
HETATM   24  H6  UNL     1      22.868   7.860  46.919  1.00  0.00     0.169 HD
BRANCH  22  25
HETATM   25  C2  UNL     1      21.933   9.348  49.029  1.00  0.00     0.098 C 
HETATM   26  C1  UNL     1      20.811   8.671  48.247  1.00  0.00     0.014 C 
ENDBRANCH  22  25
ENDBRANCH   1  21
BRANCH  17  27
HETATM   27  O3  UNL     1      26.318   8.850  46.672  1.00  0.00    -0.354 OA
HETATM   28  C23 UNL     1      27.409   9.684  46.704  1.00  0.00     0.210 C 
ENDBRANCH  17  27
BRANCH   8  29
HETATM   29  O2  UNL     1      23.993   0.383  52.688  1.00  0.00    -0.314 OA
BRANCH  29  30
HETATM   30  C12 UNL     1      22.809  -0.109  53.034  1.00  0.00     0.078 A 
HETATM   31  C13 UNL     1      23.043  -0.878  54.195  1.00  0.00     0.037 A 
HETATM   32  C14 UNL     1      21.975  -1.559  54.835  1.00  0.00     0.006 A 
HETATM   33  C15 UNL     1      20.717  -1.458  54.315  1.00  0.00     0.042 A 
HETATM   34  C16 UNL     1      20.414  -0.720  53.184  1.00  0.00     0.119 A 
HETATM   35  F1  UNL     1      19.225  -0.556  52.572  1.00  0.00    -0.206 F 
HETATM   36  C17 UNL     1      21.492  -0.092  52.617  1.00  0.00     0.079 A 
ENDBRANCH  29  30
ENDBRANCH   8  29
TORSDOF 5
ENDMDL
MODEL 8
REMARK VINA RESULT:      -8.4      3.358      8.699
REMARK  5 active torsions:
REMARK  status: ('A' for Active; 'I' for Inactive)
REMARK    1  A    between atoms: C2_2  and  C3_3 
REMARK       I    between atoms: C3_3  and  N1_5 
REMARK    2  A    between atoms: N1_5  and  C4_6 
REMARK    3  A    between atoms: C11_13  and  O2_14 
REMARK    4  A    between atoms: O2_14  and  C12_15 
REMARK    5  A    between atoms: C22_30  and  O3_31 
ROOT
HETATM    1  C4  UNL     1      25.225   1.525  53.318  1.00  0.00     0.069 A 
HETATM    2  C5  UNL     1      25.276   2.503  52.442  1.00  0.00     0.048 A 
HETATM    3  C6  UNL     1      24.187   2.476  51.434  1.00  0.00     0.018 A 
HETATM    4  C7  UNL     1      23.819   3.251  50.463  1.00  0.00     0.030 C 
HETATM    5  C8  UNL     1      23.116   3.784  49.360  1.00  0.00     0.072 C 
HETATM    6  C9  UNL     1      22.991   4.695  48.462  1.00  0.00    -0.012 C 
HETATM    7  C10 UNL     1      23.565   5.960  47.880  1.00  0.00     0.031 C 
HETATM    8  C11 UNL     1      24.715   6.515  48.291  1.00  0.00     0.066 C 
HETATM    9  C18 UNL     1      25.785   6.200  49.226  1.00  0.00     0.157 C 
HETATM   10  N2  UNL     1      25.758   6.908  50.440  1.00  0.00    -0.285 NA
HETATM   11  P1  UNL     1      24.462   6.276  51.509  1.00  0.00     0.003 P 
HETATM   12  N3  UNL     1      24.255   4.492  51.233  1.00  0.00    -0.357 N 
HETATM   13  C19 UNL     1      23.214   1.406  51.524  1.00  0.00     0.065 A 
HETATM   14  N4  UNL     1      22.237   1.298  50.657  1.00  0.00    -0.294 NA
HETATM   15  C20 UNL     1      21.260   0.254  50.722  1.00  0.00     0.178 C 
HETATM   16  C21 UNL     1      23.270   0.369  52.561  1.00  0.00     0.071 A 
HETATM   17  C22 UNL     1      24.255   0.469  53.404  1.00  0.00     0.097 A 
HETATM   18  H17 UNL     1      25.755   7.893  50.385  1.00  0.00     0.128 HD
HETATM   19  H18 UNL     1      23.229   7.009  51.376  1.00  0.00     0.088 HD
HETATM   20  H19 UNL     1      24.701   4.783  52.170  1.00  0.00     0.225 HD
ENDROOT
BRANCH   1  21
HETATM   21  N1  UNL     1      26.341   1.765  54.150  1.00  0.00    -0.325 N 
HETATM   22  C3  UNL     1      27.424   0.919  53.794  1.00  0.00     0.221 C 
HETATM   23  O1  UNL     1      27.499   0.047  52.893  1.00  0.00    -0.273 OA
HETATM   24  H6  UNL     1      26.630   2.364  54.939  1.00  0.00     0.169 HD
BRANCH  22  25
HETATM   25  C2  UNL     1      28.804   0.785  54.369  1.00  0.00     0.098 C 
HETATM   26  C1  UNL     1      29.497  -0.345  53.614  1.00  0.00     0.014 C 
ENDBRANCH  22  25
ENDBRANCH   1  21
BRANCH  17  27
HETATM   27  O3  UNL     1      24.289  -0.503  54.372  1.00  0.00    -0.354 OA
HETATM   28  C23 UNL     1      23.196  -1.123  54.927  1.00  0.00     0.210 C 
ENDBRANCH  17  27
BRANCH   8  29
HETATM   29  O2  UNL     1      24.779   7.624  47.516  1.00  0.00    -0.314 OA
BRANCH  29  30
HETATM   30  C12 UNL     1      25.639   8.003  46.577  1.00  0.00     0.078 A 
HETATM   31  C13 UNL     1      24.874   8.146  45.398  1.00  0.00     0.037 A 
HETATM   32  C14 UNL     1      25.491   8.540  44.183  1.00  0.00     0.006 A 
HETATM   33  C15 UNL     1      26.834   8.783  44.168  1.00  0.00     0.042 A 
HETATM   34  C16 UNL     1      27.645   8.666  45.285  1.00  0.00     0.119 A 
HETATM   35  F1  UNL     1      28.973   8.863  45.391  1.00  0.00    -0.206 F 
HETATM   36  C17 UNL     1      26.984   8.280  46.421  1.00  0.00     0.079 A 
ENDBRANCH  29  30
ENDBRANCH   8  29
TORSDOF 5
ENDMDL
MODEL 9
REMARK VINA RESULT:      -8.3      5.139      8.299
REMARK  5 active torsions:
REMARK  status: ('A' for Active; 'I' for Inactive)
REMARK    1  A    between atoms: C2_2  and  C3_3 
REMARK       I    between atoms: C3_3  and  N1_5 
REMARK    2  A    between atoms: N1_5  and  C4_6 
REMARK    3  A    between atoms: C11_13  and  O2_14 
REMARK    4  A    between atoms: O2_14  and  C12_15 
REMARK    5  A    between atoms: C22_30  and  O3_31 
ROOT
HETATM    1  C4  UNL     1      25.739   3.084  51.439  1.00  0.00     0.069 A 
HETATM    2  C5  UNL     1      24.474   2.872  51.159  1.00  0.00     0.048 A 
HETATM    3  C6  UNL     1      23.911   1.643  51.773  1.00  0.00     0.018 A 
HETATM    4  C7  UNL     1      22.737   1.099  51.822  1.00  0.00     0.030 C 
HETATM    5  C8  UNL     1      21.677   0.207  52.103  1.00  0.00     0.072 C 
HETATM    6  C9  UNL     1      20.442  -0.123  51.969  1.00  0.00    -0.012 C 
HETATM    7  C10 UNL     1      19.117   0.232  51.350  1.00  0.00     0.031 C 
HETATM    8  C11 UNL     1      18.940   1.261  50.506  1.00  0.00     0.066 C 
HETATM    9  C18 UNL     1      19.765   2.262  49.846  1.00  0.00     0.157 C 
HETATM   10  N2  UNL     1      19.718   3.551  50.405  1.00  0.00    -0.285 NA
HETATM   11  P1  UNL     1      20.650   3.606  51.939  1.00  0.00     0.003 P 
HETATM   12  N3  UNL     1      22.059   2.464  51.842  1.00  0.00    -0.357 N 
HETATM   13  C19 UNL     1      24.794   0.837  52.592  1.00  0.00     0.065 A 
HETATM   14  N4  UNL     1      24.381  -0.275  53.149  1.00  0.00    -0.294 NA
HETATM   15  C20 UNL     1      25.228  -1.090  53.965  1.00  0.00     0.178 C 
HETATM   16  C21 UNL     1      26.198   1.190  52.829  1.00  0.00     0.071 A 
HETATM   17  C22 UNL     1      26.608   2.283  52.256  1.00  0.00     0.097 A 
HETATM   18  H17 UNL     1      18.830   3.972  50.488  1.00  0.00     0.128 HD
HETATM   19  H18 UNL     1      19.823   3.377  53.096  1.00  0.00     0.088 HD
HETATM   20  H19 UNL     1      22.293   3.516  51.817  1.00  0.00     0.225 HD
ENDROOT
BRANCH   1  21
HETATM   21  N1  UNL     1      26.034   4.285  50.755  1.00  0.00    -0.325 N 
HETATM   22  C3  UNL     1      26.805   4.023  49.592  1.00  0.00     0.221 C 
HETATM   23  O1  UNL     1      27.226   2.930  49.136  1.00  0.00    -0.273 OA
HETATM   24  H6  UNL     1      25.867   5.300  50.823  1.00  0.00     0.169 HD
BRANCH  22  25
HETATM   25  C2  UNL     1      27.368   4.946  48.551  1.00  0.00     0.098 C 
HETATM   26  C1  UNL     1      26.579   6.249  48.631  1.00  0.00     0.014 C 
ENDBRANCH  22  25
ENDBRANCH   1  21
BRANCH  17  27
HETATM   27  O3  UNL     1      27.920   2.605  52.493  1.00  0.00    -0.354 OA
HETATM   28  C23 UNL     1      28.628   2.308  53.632  1.00  0.00     0.210 C 
ENDBRANCH  17  27
BRANCH   8  29
HETATM   29  O2  UNL     1      17.608   1.195  50.266  1.00  0.00    -0.314 OA
BRANCH  29  30
HETATM   30  C12 UNL     1      16.614   0.614  50.929  1.00  0.00     0.078 A 
HETATM   31  C13 UNL     1      16.255  -0.515  50.160  1.00  0.00     0.037 A 
HETATM   32  C14 UNL     1      15.205  -1.370  50.584  1.00  0.00     0.006 A 
HETATM   33  C15 UNL     1      14.549  -1.089  51.747  1.00  0.00     0.042 A 
HETATM   34  C16 UNL     1      14.849  -0.003  52.552  1.00  0.00     0.119 A 
HETATM   35  F1  UNL     1      14.269   0.383  53.704  1.00  0.00    -0.206 F 
HETATM   36  C17 UNL     1      15.870   0.779  52.081  1.00  0.00     0.079 A 
ENDBRANCH  29  30
ENDBRANCH   8  29
TORSDOF 5
ENDMDL
