MODEL 1
REMARK VINA RESULT:      -9.0      0.000      0.000
REMARK  3 active torsions:
REMARK  status: ('A' for Active; 'I' for Inactive)
REMARK    1  A    between atoms: O1_2  and  C2_3 
REMARK    2  A    between atoms: C7_9  and  N1_10 
REMARK    3  A    between atoms: N1_10  and  C8_11 
ROOT
HETATM    1  C2  UNL     1      18.284  -0.865  52.564  1.00  0.00     0.067 A 
HETATM    2  C3  UNL     1      19.288  -0.638  53.397  1.00  0.00     0.037 A 
HETATM    3  C4  UNL     1      20.474   0.281  53.241  1.00  0.00     0.142 A 
HETATM    4  C5  UNL     1      21.679  -0.557  53.480  1.00  0.00     0.058 C 
HETATM    5  C6  UNL     1      22.954   0.163  53.743  1.00  0.00     0.174 C 
HETATM    6  O2  UNL     1      23.413   0.984  52.753  1.00  0.00    -0.348 OA
HETATM    7  C7  UNL     1      24.607   1.608  53.100  1.00  0.00     0.353 C 
HETATM    8  N2  UNL     1      24.505   3.036  53.100  1.00  0.00    -0.232 NA
HETATM    9  C14 UNL     1      23.536   3.742  52.650  1.00  0.00     0.233 C 
HETATM   10  N3  UNL     1      22.538   2.891  52.131  1.00  0.00    -0.228 NA
HETATM   11  C15 UNL     1      21.306   3.213  51.954  1.00  0.00     0.285 C 
HETATM   12  O3  UNL     1      21.301   1.897  51.508  1.00  0.00    -0.229 OA
HETATM   13  N4  UNL     1      20.416   0.967  51.993  1.00  0.00    -0.254 N 
HETATM   14  C16 UNL     1      19.367   0.760  51.058  1.00  0.00     0.121 A 
HETATM   15  C17 UNL     1      18.362  -0.095  51.314  1.00  0.00     0.055 A 
ENDROOT
BRANCH   7  16
HETATM   16  N1  UNL     1      25.678   1.135  52.236  1.00  0.00    -0.346 N 
HETATM   17  H11 UNL     1      25.531   1.151  51.184  1.00  0.00     0.164 HD
BRANCH  16  18
HETATM   18  C8  UNL     1      26.941   0.639  52.681  1.00  0.00     0.033 A 
HETATM   19  C9  UNL     1      27.955   1.484  53.135  1.00  0.00     0.032 A 
HETATM   20  C10 UNL     1      29.152   0.961  53.551  1.00  0.00     0.046 A 
HETATM   21  C11 UNL     1      29.323  -0.408  53.510  1.00  0.00     0.138 A 
HETATM   22  F1  UNL     1      30.550  -0.822  53.947  1.00  0.00    -0.204 F 
HETATM   23  C12 UNL     1      28.319  -1.236  53.061  1.00  0.00     0.074 A 
HETATM   24 CL1  UNL     1      28.692  -2.950  53.070  1.00  0.00    -0.081 Cl
HETATM   25  C13 UNL     1      27.105  -0.715  52.638  1.00  0.00     0.056 A 
ENDBRANCH  16  18
ENDBRANCH   7  16
BRANCH   1  26
HETATM   26  O1  UNL     1      17.219  -1.742  52.792  1.00  0.00    -0.356 OA
HETATM   27  C1  UNL     1      17.543  -2.893  53.556  1.00  0.00     0.210 C 
ENDBRANCH   1  26
TORSDOF 3
ENDMDL
MODEL 2
REMARK VINA RESULT:      -8.5      3.909      6.977
REMARK  3 active torsions:
REMARK  status: ('A' for Active; 'I' for Inactive)
REMARK    1  A    between atoms: O1_2  and  C2_3 
REMARK    2  A    between atoms: C7_9  and  N1_10 
REMARK    3  A    between atoms: N1_10  and  C8_11 
ROOT
HETATM    1  C2  UNL     1      26.806   7.499  48.761  1.00  0.00     0.067 A 
HETATM    2  C3  UNL     1      26.695   6.195  48.562  1.00  0.00     0.037 A 
HETATM    3  C4  UNL     1      25.870   5.178  49.310  1.00  0.00     0.142 A 
HETATM    4  C5  UNL     1      26.813   4.101  49.717  1.00  0.00     0.058 C 
HETATM    5  C6  UNL     1      26.210   2.812  50.149  1.00  0.00     0.174 C 
HETATM    6  O2  UNL     1      25.389   2.851  51.240  1.00  0.00    -0.348 OA
HETATM    7  C7  UNL     1      24.879   1.596  51.558  1.00  0.00     0.353 C 
HETATM    8  N2  UNL     1      23.449   1.554  51.516  1.00  0.00    -0.232 NA
HETATM    9  C14 UNL     1      22.649   2.548  51.410  1.00  0.00     0.233 C 
HETATM   10  N3  UNL     1      23.394   3.744  51.338  1.00  0.00    -0.228 NA
HETATM   11  C15 UNL     1      22.966   4.858  50.861  1.00  0.00     0.285 C 
HETATM   12  O3  UNL     1      24.257   5.209  51.232  1.00  0.00    -0.229 OA
HETATM   13  N4  UNL     1      25.132   5.803  50.357  1.00  0.00    -0.254 N 
HETATM   14  C16 UNL     1      25.214   7.195  50.620  1.00  0.00     0.121 A 
HETATM   15  C17 UNL     1      25.994   8.001  49.880  1.00  0.00     0.055 A 
ENDROOT
BRANCH   7  16
HETATM   16  N1  UNL     1      25.402   1.164  52.845  1.00  0.00    -0.346 N 
HETATM   17  H11 UNL     1      24.758   1.183  53.691  1.00  0.00     0.164 HD
BRANCH  16  18
HETATM   18  C8  UNL     1      26.732   0.706  53.086  1.00  0.00     0.033 A 
HETATM   19  C9  UNL     1      27.761   1.572  53.459  1.00  0.00     0.032 A 
HETATM   20  C10 UNL     1      29.025   1.086  53.678  1.00  0.00     0.046 A 
HETATM   21  C11 UNL     1      29.246  -0.267  53.521  1.00  0.00     0.138 A 
HETATM   22  F1  UNL     1      30.537  -0.645  53.764  1.00  0.00    -0.204 F 
HETATM   23  C12 UNL     1      28.227  -1.116  53.152  1.00  0.00     0.074 A 
HETATM   24 CL1  UNL     1      28.669  -2.806  52.995  1.00  0.00    -0.081 Cl
HETATM   25  C13 UNL     1      26.946  -0.632  52.929  1.00  0.00     0.056 A 
ENDBRANCH  16  18
ENDBRANCH   7  16
BRANCH   1  26
HETATM   26  O1  UNL     1      27.602   8.373  48.014  1.00  0.00    -0.356 OA
HETATM   27  C1  UNL     1      28.150   9.458  48.745  1.00  0.00     0.210 C 
ENDBRANCH   1  26
TORSDOF 3
ENDMDL
MODEL 3
REMARK VINA RESULT:      -8.5      4.117      7.199
REMARK  3 active torsions:
REMARK  status: ('A' for Active; 'I' for Inactive)
REMARK    1  A    between atoms: O1_2  and  C2_3 
REMARK    2  A    between atoms: C7_9  and  N1_10 
REMARK    3  A    between atoms: N1_10  and  C8_11 
ROOT
HETATM    1  C2  UNL     1      27.014   7.521  48.813  1.00  0.00     0.067 A 
HETATM    2  C3  UNL     1      26.797   6.235  48.586  1.00  0.00     0.037 A 
HETATM    3  C4  UNL     1      25.850   5.286  49.278  1.00  0.00     0.142 A 
HETATM    4  C5  UNL     1      26.673   4.124  49.707  1.00  0.00     0.058 C 
HETATM    5  C6  UNL     1      25.937   2.888  50.090  1.00  0.00     0.174 C 
HETATM    6  O2  UNL     1      25.074   2.987  51.143  1.00  0.00    -0.348 OA
HETATM    7  C7  UNL     1      24.439   1.778  51.416  1.00  0.00     0.353 C 
HETATM    8  N2  UNL     1      23.015   1.866  51.309  1.00  0.00    -0.232 NA
HETATM    9  C14 UNL     1      22.313   2.929  51.185  1.00  0.00     0.233 C 
HETATM   10  N3  UNL     1      23.164   4.054  51.168  1.00  0.00    -0.228 NA
HETATM   11  C15 UNL     1      22.860   5.209  50.692  1.00  0.00     0.285 C 
HETATM   12  O3  UNL     1      24.159   5.437  51.127  1.00  0.00    -0.229 OA
HETATM   13  N4  UNL     1      25.123   5.961  50.302  1.00  0.00    -0.254 N 
HETATM   14  C16 UNL     1      25.317   7.337  50.594  1.00  0.00     0.121 A 
HETATM   15  C17 UNL     1      26.200   8.079  49.903  1.00  0.00     0.055 A 
ENDROOT
BRANCH   7  16
HETATM   16  N1  UNL     1      24.861   1.284  52.718  1.00  0.00    -0.346 N 
HETATM   17  H11 UNL     1      24.171   1.316  53.525  1.00  0.00     0.164 HD
BRANCH  16  18
HETATM   18  C8  UNL     1      26.149   0.747  53.020  1.00  0.00     0.033 A 
HETATM   19  C9  UNL     1      26.475  -0.589  52.774  1.00  0.00     0.032 A 
HETATM   20  C10 UNL     1      27.725  -1.060  53.082  1.00  0.00     0.046 A 
HETATM   21  C11 UNL     1      28.640  -0.188  53.635  1.00  0.00     0.138 A 
HETATM   22  F1  UNL     1      29.852  -0.760  53.903  1.00  0.00    -0.204 F 
HETATM   23  C12 UNL     1      28.313   1.128  53.876  1.00  0.00     0.074 A 
HETATM   24 CL1  UNL     1      29.585   2.107  54.581  1.00  0.00    -0.081 Cl
HETATM   25  C13 UNL     1      27.050   1.613  53.566  1.00  0.00     0.056 A 
ENDBRANCH  16  18
ENDBRANCH   7  16
BRANCH   1  26
HETATM   26  O1  UNL     1      27.918   8.329  48.118  1.00  0.00    -0.356 OA
HETATM   27  C1  UNL     1      28.878   8.990  48.928  1.00  0.00     0.210 C 
ENDBRANCH   1  26
TORSDOF 3
ENDMDL
MODEL 4
REMARK VINA RESULT:      -8.2      5.644      8.834
REMARK  3 active torsions:
REMARK  status: ('A' for Active; 'I' for Inactive)
REMARK    1  A    between atoms: O1_2  and  C2_3 
REMARK    2  A    between atoms: C7_9  and  N1_10 
REMARK    3  A    between atoms: N1_10  and  C8_11 
ROOT
HETATM    1  C2  UNL     1      28.942   8.288  47.679  1.00  0.00     0.067 A 
HETATM    2  C3  UNL     1      28.121   7.258  47.551  1.00  0.00     0.037 A 
HETATM    3  C4  UNL     1      26.944   6.858  48.405  1.00  0.00     0.142 A 
HETATM    4  C5  UNL     1      27.177   5.441  48.793  1.00  0.00     0.058 C 
HETATM    5  C6  UNL     1      26.009   4.693  49.329  1.00  0.00     0.174 C 
HETATM    6  O2  UNL     1      25.442   5.175  50.474  1.00  0.00    -0.348 OA
HETATM    7  C7  UNL     1      24.359   4.404  50.888  1.00  0.00     0.353 C 
HETATM    8  N2  UNL     1      23.141   5.152  50.952  1.00  0.00    -0.232 NA
HETATM    9  C14 UNL     1      23.007   6.422  50.858  1.00  0.00     0.233 C 
HETATM   10  N3  UNL     1      24.274   7.014  50.674  1.00  0.00    -0.228 NA
HETATM   11  C15 UNL     1      24.484   8.181  50.177  1.00  0.00     0.285 C 
HETATM   12  O3  UNL     1      25.784   7.768  50.436  1.00  0.00    -0.229 OA
HETATM   13  N4  UNL     1      26.760   7.786  49.472  1.00  0.00    -0.254 N 
HETATM   14  C16 UNL     1      27.612   8.906  49.662  1.00  0.00     0.121 A 
HETATM   15  C17 UNL     1      28.637   9.153  48.829  1.00  0.00     0.055 A 
ENDROOT
BRANCH   7  16
HETATM   16  N1  UNL     1      24.672   3.756  52.153  1.00  0.00    -0.346 N 
HETATM   17  H11 UNL     1      24.611   4.327  53.048  1.00  0.00     0.164 HD
BRANCH  16  18
HETATM   18  C8  UNL     1      25.063   2.393  52.308  1.00  0.00     0.033 A 
HETATM   19  C9  UNL     1      26.242   1.888  51.756  1.00  0.00     0.032 A 
HETATM   20  C10 UNL     1      26.576   0.570  51.931  1.00  0.00     0.046 A 
HETATM   21  C11 UNL     1      25.724  -0.234  52.661  1.00  0.00     0.138 A 
HETATM   22  F1  UNL     1      26.151  -1.527  52.775  1.00  0.00    -0.204 F 
HETATM   23  C12 UNL     1      24.562   0.269  53.203  1.00  0.00     0.074 A 
HETATM   24 CL1  UNL     1      23.588  -0.879  54.102  1.00  0.00    -0.081 Cl
HETATM   25  C13 UNL     1      24.217   1.602  53.030  1.00  0.00     0.056 A 
ENDBRANCH  16  18
ENDBRANCH   7  16
BRANCH   1  26
HETATM   26  O1  UNL     1      30.017   8.584  46.835  1.00  0.00    -0.356 OA
HETATM   27  C1  UNL     1      31.296   8.261  47.358  1.00  0.00     0.210 C 
ENDBRANCH   1  26
TORSDOF 3
ENDMDL
MODEL 5
REMARK VINA RESULT:      -8.1      4.058      7.752
REMARK  3 active torsions:
REMARK  status: ('A' for Active; 'I' for Inactive)
REMARK    1  A    between atoms: O1_2  and  C2_3 
REMARK    2  A    between atoms: C7_9  and  N1_10 
REMARK    3  A    between atoms: N1_10  and  C8_11 
ROOT
HETATM    1  C2  UNL     1      27.774   0.680  53.310  1.00  0.00     0.067 A 
HETATM    2  C3  UNL     1      26.789   1.546  53.493  1.00  0.00     0.037 A 
HETATM    3  C4  UNL     1      25.300   1.309  53.537  1.00  0.00     0.142 A 
HETATM    4  C5  UNL     1      24.704   2.249  52.550  1.00  0.00     0.058 C 
HETATM    5  C6  UNL     1      23.238   2.481  52.646  1.00  0.00     0.174 C 
HETATM    6  O2  UNL     1      22.430   1.393  52.476  1.00  0.00    -0.348 OA
HETATM    7  C7  UNL     1      21.081   1.718  52.587  1.00  0.00     0.353 C 
HETATM    8  N2  UNL     1      20.426   1.005  53.640  1.00  0.00    -0.232 NA
HETATM    9  C14 UNL     1      20.891   0.020  54.314  1.00  0.00     0.233 C 
HETATM   10  N3  UNL     1      22.192  -0.284  53.861  1.00  0.00    -0.228 NA
HETATM   11  C15 UNL     1      23.079  -0.932  54.530  1.00  0.00     0.285 C 
HETATM   12  O3  UNL     1      23.772  -0.673  53.354  1.00  0.00    -0.229 OA
HETATM   13  N4  UNL     1      25.006  -0.074  53.353  1.00  0.00    -0.254 N 
HETATM   14  C16 UNL     1      26.020  -1.046  53.147  1.00  0.00     0.121 A 
HETATM   15  C17 UNL     1      27.320  -0.706  53.125  1.00  0.00     0.055 A 
ENDROOT
BRANCH   7  16
HETATM   16  N1  UNL     1      20.422   1.528  51.304  1.00  0.00    -0.346 N 
HETATM   17  H11 UNL     1      19.495   1.010  51.278  1.00  0.00     0.164 HD
BRANCH  16  18
HETATM   18  C8  UNL     1      20.917   1.984  50.045  1.00  0.00     0.033 A 
HETATM   19  C9  UNL     1      21.552   1.130  49.141  1.00  0.00     0.032 A 
HETATM   20  C10 UNL     1      22.012   1.614  47.943  1.00  0.00     0.046 A 
HETATM   21  C11 UNL     1      21.831   2.953  47.660  1.00  0.00     0.138 A 
HETATM   22  F1  UNL     1      22.326   3.328  46.443  1.00  0.00    -0.204 F 
HETATM   23  C12 UNL     1      21.205   3.790  48.556  1.00  0.00     0.074 A 
HETATM   24 CL1  UNL     1      21.053   5.462  48.049  1.00  0.00    -0.081 Cl
HETATM   25  C13 UNL     1      20.736   3.308  49.770  1.00  0.00     0.056 A 
ENDBRANCH  16  18
ENDBRANCH   7  16
BRANCH   1  26
HETATM   26  O1  UNL     1      29.136   0.990  53.283  1.00  0.00    -0.356 OA
HETATM   27  C1  UNL     1      30.004  -0.098  53.561  1.00  0.00     0.210 C 
ENDBRANCH   1  26
TORSDOF 3
ENDMDL
MODEL 6
REMARK VINA RESULT:      -7.9      4.064      5.626
REMARK  3 active torsions:
REMARK  status: ('A' for Active; 'I' for Inactive)
REMARK    1  A    between atoms: O1_2  and  C2_3 
REMARK    2  A    between atoms: C7_9  and  N1_10 
REMARK    3  A    between atoms: N1_10  and  C8_11 
ROOT
HETATM    1  C2  UNL     1      21.641   3.998  45.488  1.00  0.00     0.067 A 
HETATM    2  C3  UNL     1      21.599   3.231  46.566  1.00  0.00     0.037 A 
HETATM    3  C4  UNL     1      22.001   3.549  47.985  1.00  0.00     0.142 A 
HETATM    4  C5  UNL     1      22.953   2.480  48.392  1.00  0.00     0.058 C 
HETATM    5  C6  UNL     1      23.224   2.346  49.849  1.00  0.00     0.174 C 
HETATM    6  O2  UNL     1      23.778   3.426  50.474  1.00  0.00    -0.348 OA
HETATM    7  C7  UNL     1      23.989   3.196  51.831  1.00  0.00     0.353 C 
HETATM    8  N2  UNL     1      23.280   4.118  52.665  1.00  0.00    -0.232 NA
HETATM    9  C14 UNL     1      22.669   5.181  52.297  1.00  0.00     0.233 C 
HETATM   10  N3  UNL     1      22.792   5.332  50.899  1.00  0.00    -0.228 NA
HETATM   11  C15 UNL     1      22.017   6.043  50.158  1.00  0.00     0.285 C 
HETATM   12  O3  UNL     1      22.903   5.543  49.212  1.00  0.00    -0.229 OA
HETATM   13  N4  UNL     1      22.473   4.890  48.084  1.00  0.00    -0.254 N 
HETATM   14  C16 UNL     1      22.545   5.757  46.962  1.00  0.00     0.121 A 
HETATM   15  C17 UNL     1      22.158   5.351  45.740  1.00  0.00     0.055 A 
ENDROOT
BRANCH   7  16
HETATM   16  N1  UNL     1      25.416   3.188  52.112  1.00  0.00    -0.346 N 
HETATM   17  H11 UNL     1      25.943   4.112  52.108  1.00  0.00     0.164 HD
BRANCH  16  18
HETATM   18  C8  UNL     1      26.196   2.028  52.400  1.00  0.00     0.033 A 
HETATM   19  C9  UNL     1      25.874   0.769  51.890  1.00  0.00     0.032 A 
HETATM   20  C10 UNL     1      26.652  -0.318  52.195  1.00  0.00     0.046 A 
HETATM   21  C11 UNL     1      27.751  -0.133  53.010  1.00  0.00     0.138 A 
HETATM   22  F1  UNL     1      28.456  -1.279  53.250  1.00  0.00    -0.204 F 
HETATM   23  C12 UNL     1      28.063   1.111  53.511  1.00  0.00     0.074 A 
HETATM   24 CL1  UNL     1      29.487   1.180  54.531  1.00  0.00    -0.081 Cl
HETATM   25  C13 UNL     1      27.280   2.216  53.206  1.00  0.00     0.056 A 
ENDBRANCH  16  18
ENDBRANCH   7  16
BRANCH   1  26
HETATM   26  O1  UNL     1      21.246   3.618  44.202  1.00  0.00    -0.356 OA
HETATM   27  C1  UNL     1      20.472   4.581  43.503  1.00  0.00     0.210 C 
ENDBRANCH   1  26
TORSDOF 3
ENDMDL
MODEL 7
REMARK VINA RESULT:      -7.8      4.544      6.184
REMARK  3 active torsions:
REMARK  status: ('A' for Active; 'I' for Inactive)
REMARK    1  A    between atoms: O1_2  and  C2_3 
REMARK    2  A    between atoms: C7_9  and  N1_10 
REMARK    3  A    between atoms: N1_10  and  C8_11 
ROOT
HETATM    1  C2  UNL     1      19.804   0.017  52.360  1.00  0.00     0.067 A 
HETATM    2  C3  UNL     1      20.557   0.335  51.319  1.00  0.00     0.037 A 
HETATM    3  C4  UNL     1      21.992   0.800  51.281  1.00  0.00     0.142 A 
HETATM    4  C5  UNL     1      21.993   2.065  50.498  1.00  0.00     0.058 C 
HETATM    5  C6  UNL     1      23.312   2.543  50.002  1.00  0.00     0.174 C 
HETATM    6  O2  UNL     1      24.257   2.832  50.944  1.00  0.00    -0.348 OA
HETATM    7  C7  UNL     1      25.450   3.268  50.376  1.00  0.00     0.353 C 
HETATM    8  N2  UNL     1      26.561   2.431  50.712  1.00  0.00    -0.232 NA
HETATM    9  C14 UNL     1      26.588   1.496  51.587  1.00  0.00     0.233 C 
HETATM   10  N3  UNL     1      25.323   1.394  52.203  1.00  0.00    -0.228 NA
HETATM   11  C15 UNL     1      24.882   0.361  52.828  1.00  0.00     0.285 C 
HETATM   12  O3  UNL     1      23.806   1.228  52.962  1.00  0.00    -0.229 OA
HETATM   13  N4  UNL     1      22.532   0.870  52.598  1.00  0.00    -0.254 N 
HETATM   14  C16 UNL     1      21.770   0.546  53.752  1.00  0.00     0.121 A 
HETATM   15  C17 UNL     1      20.491   0.145  53.654  1.00  0.00     0.055 A 
ENDROOT
BRANCH   7  16
HETATM   16  N1  UNL     1      25.684   4.659  50.731  1.00  0.00    -0.346 N 
HETATM   17  H11 UNL     1      26.506   4.893  51.364  1.00  0.00     0.164 HD
BRANCH  16  18
HETATM   18  C8  UNL     1      24.894   5.767  50.299  1.00  0.00     0.033 A 
HETATM   19  C9  UNL     1      24.229   6.602  51.199  1.00  0.00     0.032 A 
HETATM   20  C10 UNL     1      23.481   7.655  50.737  1.00  0.00     0.046 A 
HETATM   21  C11 UNL     1      23.406   7.861  49.374  1.00  0.00     0.138 A 
HETATM   22  F1  UNL     1      22.636   8.935  49.023  1.00  0.00    -0.204 F 
HETATM   23  C12 UNL     1      24.063   7.033  48.492  1.00  0.00     0.074 A 
HETATM   24 CL1  UNL     1      23.868   7.429  46.795  1.00  0.00    -0.081 Cl
HETATM   25  C13 UNL     1      24.823   5.967  48.952  1.00  0.00     0.056 A 
ENDBRANCH  16  18
ENDBRANCH   7  16
BRANCH   1  26
HETATM   26  O1  UNL     1      18.473  -0.408  52.303  1.00  0.00    -0.356 OA
HETATM   27  C1  UNL     1      18.105  -1.360  53.288  1.00  0.00     0.210 C 
ENDBRANCH   1  26
TORSDOF 3
ENDMDL
MODEL 8
REMARK VINA RESULT:      -7.8      6.150      9.126
REMARK  3 active torsions:
REMARK  status: ('A' for Active; 'I' for Inactive)
REMARK    1  A    between atoms: O1_2  and  C2_3 
REMARK    2  A    between atoms: C7_9  and  N1_10 
REMARK    3  A    between atoms: N1_10  and  C8_11 
ROOT
HETATM    1  C2  UNL     1      27.828   9.758  47.101  1.00  0.00     0.067 A 
HETATM    2  C3  UNL     1      27.972   8.452  46.947  1.00  0.00     0.037 A 
HETATM    3  C4  UNL     1      27.178   7.322  47.554  1.00  0.00     0.142 A 
HETATM    4  C5  UNL     1      28.171   6.422  48.202  1.00  0.00     0.058 C 
HETATM    5  C6  UNL     1      27.702   5.057  48.561  1.00  0.00     0.174 C 
HETATM    6  O2  UNL     1      26.671   4.974  49.452  1.00  0.00    -0.348 OA
HETATM    7  C7  UNL     1      26.311   3.656  49.717  1.00  0.00     0.353 C 
HETATM    8  N2  UNL     1      24.949   3.376  49.377  1.00  0.00    -0.232 NA
HETATM    9  C14 UNL     1      24.042   4.222  49.057  1.00  0.00     0.233 C 
HETATM   10  N3  UNL     1      24.585   5.524  49.085  1.00  0.00    -0.228 NA
HETATM   11  C15 UNL     1      24.097   6.545  48.474  1.00  0.00     0.285 C 
HETATM   12  O3  UNL     1      25.206   7.111  49.091  1.00  0.00    -0.229 OA
HETATM   13  N4  UNL     1      26.142   7.829  48.391  1.00  0.00    -0.254 N 
HETATM   14  C16 UNL     1      25.942   9.220  48.597  1.00  0.00     0.121 A 
HETATM   15  C17 UNL     1      26.725  10.134  47.998  1.00  0.00     0.055 A 
ENDROOT
BRANCH   7  16
HETATM   16  N1  UNL     1      26.606   3.335  51.105  1.00  0.00    -0.346 N 
HETATM   17  H11 UNL     1      27.318   3.928  51.626  1.00  0.00     0.164 HD
BRANCH  16  18
HETATM   18  C8  UNL     1      26.016   2.271  51.851  1.00  0.00     0.033 A 
HETATM   19  C9  UNL     1      24.878   2.457  52.639  1.00  0.00     0.032 A 
HETATM   20  C10 UNL     1      24.347   1.405  53.340  1.00  0.00     0.046 A 
HETATM   21  C11 UNL     1      24.961   0.172  53.244  1.00  0.00     0.138 A 
HETATM   22  F1  UNL     1      24.351  -0.804  53.981  1.00  0.00    -0.204 F 
HETATM   23  C12 UNL     1      26.083  -0.004  52.466  1.00  0.00     0.074 A 
HETATM   24 CL1  UNL     1      26.744  -1.628  52.449  1.00  0.00    -0.081 Cl
HETATM   25  C13 UNL     1      26.626   1.056  51.754  1.00  0.00     0.056 A 
ENDBRANCH  16  18
ENDBRANCH   7  16
BRANCH   1  26
HETATM   26  O1  UNL     1      28.616  10.742  46.496  1.00  0.00    -0.356 OA
HETATM   27  C1  UNL     1      29.980  10.743  46.889  1.00  0.00     0.210 C 
ENDBRANCH   1  26
TORSDOF 3
ENDMDL
MODEL 9
REMARK VINA RESULT:      -7.7      4.950      6.245
REMARK  3 active torsions:
REMARK  status: ('A' for Active; 'I' for Inactive)
REMARK    1  A    between atoms: O1_2  and  C2_3 
REMARK    2  A    between atoms: C7_9  and  N1_10 
REMARK    3  A    between atoms: N1_10  and  C8_11 
ROOT
HETATM    1  C2  UNL     1      19.953   0.270  51.637  1.00  0.00     0.067 A 
HETATM    2  C3  UNL     1      20.828   0.509  50.672  1.00  0.00     0.037 A 
HETATM    3  C4  UNL     1      22.232   1.052  50.765  1.00  0.00     0.142 A 
HETATM    4  C5  UNL     1      22.287   2.214  49.838  1.00  0.00     0.058 C 
HETATM    5  C6  UNL     1      23.639   2.709  49.464  1.00  0.00     0.174 C 
HETATM    6  O2  UNL     1      24.431   3.162  50.479  1.00  0.00    -0.348 OA
HETATM    7  C7  UNL     1      25.671   3.600  50.022  1.00  0.00     0.353 C 
HETATM    8  N2  UNL     1      26.761   2.876  50.603  1.00  0.00    -0.232 NA
HETATM    9  C14 UNL     1      26.708   2.053  51.583  1.00  0.00     0.233 C 
HETATM   10  N3  UNL     1      25.376   1.949  52.036  1.00  0.00    -0.228 NA
HETATM   11  C15 UNL     1      24.899   0.971  52.721  1.00  0.00     0.285 C 
HETATM   12  O3  UNL     1      23.778   1.782  52.603  1.00  0.00    -0.229 OA
HETATM   13  N4  UNL     1      22.583   1.308  52.123  1.00  0.00    -0.254 N 
HETATM   14  C16 UNL     1      21.684   1.076  53.198  1.00  0.00     0.121 A 
HETATM   15  C17 UNL     1      20.450   0.590  52.983  1.00  0.00     0.055 A 
ENDROOT
BRANCH   7  16
HETATM   16  N1  UNL     1      25.793   5.034  50.230  1.00  0.00    -0.346 N 
HETATM   17  H11 UNL     1      25.832   5.405  51.226  1.00  0.00     0.164 HD
BRANCH  16  18
HETATM   18  C8  UNL     1      25.868   6.016  49.196  1.00  0.00     0.033 A 
HETATM   19  C9  UNL     1      24.741   6.700  48.736  1.00  0.00     0.032 A 
HETATM   20  C10 UNL     1      24.861   7.634  47.740  1.00  0.00     0.046 A 
HETATM   21  C11 UNL     1      26.113   7.876  47.212  1.00  0.00     0.138 A 
HETATM   22  F1  UNL     1      26.120   8.824  46.227  1.00  0.00    -0.204 F 
HETATM   23  C12 UNL     1      27.221   7.198  47.669  1.00  0.00     0.074 A 
HETATM   24 CL1  UNL     1      28.738   7.620  46.897  1.00  0.00    -0.081 Cl
HETATM   25  C13 UNL     1      27.107   6.251  48.678  1.00  0.00     0.056 A 
ENDBRANCH  16  18
ENDBRANCH   7  16
BRANCH   1  26
HETATM   26  O1  UNL     1      18.663  -0.237  51.458  1.00  0.00    -0.356 OA
HETATM   27  C1  UNL     1      18.046  -0.734  52.636  1.00  0.00     0.210 C 
ENDBRANCH   1  26
TORSDOF 3
ENDMDL
