MODEL 1
REMARK VINA RESULT:      -8.8      0.000      0.000
REMARK  4 active torsions:
REMARK  status: ('A' for Active; 'I' for Inactive)
REMARK    1  A    between atoms: C5_5  and  N1_6 
REMARK    2  A    between atoms: C7_8  and  N2_9 
REMARK    3  A    between atoms: N2_9  and  C8_10 
REMARK    4  A    between atoms: C11_14  and  C12_15 
ROOT
HETATM    1  C8  UNL     1      25.404   1.646  52.448  1.00  0.00     0.727 A 
HETATM    2  N3  UNL     1      24.195   1.186  52.100  1.00  0.00    -0.075 NA
HETATM    3  C9  UNL     1      23.471   1.669  51.087  1.00  0.00     0.139 A 
HETATM    4  C10 UNL     1      23.983   2.705  50.340  1.00  0.00     0.053 A 
HETATM    5  C11 UNL     1      25.223   3.196  50.676  1.00  0.00     0.089 A 
HETATM    6  N5  UNL     1      25.866   2.653  51.698  1.00  0.00    -0.062 NA
ENDROOT
BRANCH   1   7
HETATM    7  N2  UNL     1      26.192   1.158  53.512  1.00  0.00    -0.188 N 
HETATM    8  H9  UNL     1      25.889   1.411  54.489  1.00  0.00     0.184 HD
BRANCH   7   9
HETATM    9  C7  UNL     1      27.349   0.365  53.456  1.00  0.00     0.057 A 
HETATM   10  C2  UNL     1      28.629   0.927  53.564  1.00  0.00    -0.035 A 
HETATM   11  C1  UNL     1      28.744   2.398  53.742  1.00  0.00     0.050 C 
HETATM   12  C3  UNL     1      29.780   0.175  53.513  1.00  0.00     0.011 A 
HETATM   13  C4  UNL     1      29.736  -1.193  53.349  1.00  0.00     0.029 A 
HETATM   14  C5  UNL     1      28.517  -1.782  53.241  1.00  0.00     0.027 A 
HETATM   15  C6  UNL     1      27.400  -1.004  53.295  1.00  0.00     0.059 A 
BRANCH  14  16
HETATM   16  N1  UNL     1      28.481  -3.186  53.072  1.00  0.00    -0.399 N 
HETATM   17  H6  UNL     1      28.418  -3.955  53.771  1.00  0.00     0.156 HD
HETATM   18  H7  UNL     1      28.527  -3.494  52.078  1.00  0.00     0.156 HD
ENDBRANCH  14  16
ENDBRANCH   7   9
ENDBRANCH   1   7
BRANCH   5  19
HETATM   19  C12 UNL     1      25.867   4.289  49.961  1.00  0.00     0.011 A 
HETATM   20  C13 UNL     1      27.002   4.042  49.239  1.00  0.00     0.017 A 
HETATM   21  C14 UNL     1      27.601   5.082  48.567  1.00  0.00     0.020 A 
HETATM   22  C15 UNL     1      27.143   6.389  48.559  1.00  0.00     0.116 A 
HETATM   23  N4  UNL     1      26.014   6.590  49.288  1.00  0.00    -0.272 NA
HETATM   24  C16 UNL     1      25.418   5.593  49.947  1.00  0.00     0.130 A 
ENDBRANCH   5  19
TORSDOF 4
ENDMDL
MODEL 2
REMARK VINA RESULT:      -8.5      4.012      6.004
REMARK  4 active torsions:
REMARK  status: ('A' for Active; 'I' for Inactive)
REMARK    1  A    between atoms: C5_5  and  N1_6 
REMARK    2  A    between atoms: C7_8  and  N2_9 
REMARK    3  A    between atoms: N2_9  and  C8_10 
REMARK    4  A    between atoms: C11_14  and  C12_15 
ROOT
HETATM    1  C8  UNL     1      24.490  -0.397  53.571  1.00  0.00     0.727 A 
HETATM    2  N3  UNL     1      24.544  -0.933  54.797  1.00  0.00    -0.075 NA
HETATM    3  C9  UNL     1      23.473  -1.309  55.501  1.00  0.00     0.139 A 
HETATM    4  C10 UNL     1      22.224  -1.144  54.946  1.00  0.00     0.053 A 
HETATM    5  C11 UNL     1      22.140  -0.596  53.688  1.00  0.00     0.089 A 
HETATM    6  N5  UNL     1      23.258  -0.254  53.068  1.00  0.00    -0.062 NA
ENDROOT
BRANCH   1   7
HETATM    7  N2  UNL     1      25.603   0.010  52.804  1.00  0.00    -0.188 N 
HETATM    8  H9  UNL     1      25.409   0.365  51.831  1.00  0.00     0.184 HD
BRANCH   7   9
HETATM    9  C7  UNL     1      26.961   0.011  53.158  1.00  0.00     0.057 A 
HETATM   10  C2  UNL     1      27.761  -1.129  52.997  1.00  0.00    -0.035 A 
HETATM   11  C1  UNL     1      27.140  -2.357  52.436  1.00  0.00     0.050 C 
HETATM   12  C3  UNL     1      29.094  -1.157  53.334  1.00  0.00     0.011 A 
HETATM   13  C4  UNL     1      29.725  -0.050  53.858  1.00  0.00     0.029 A 
HETATM   14  C5  UNL     1      28.989   1.079  54.031  1.00  0.00     0.027 A 
HETATM   15  C6  UNL     1      27.672   1.068  53.686  1.00  0.00     0.059 A 
BRANCH  14  16
HETATM   16  N1  UNL     1      29.645   2.211  54.570  1.00  0.00    -0.399 N 
HETATM   17  H6  UNL     1      29.290   2.982  55.173  1.00  0.00     0.156 HD
HETATM   18  H7  UNL     1      30.653   2.278  54.314  1.00  0.00     0.156 HD
ENDBRANCH  14  16
ENDBRANCH   7   9
ENDBRANCH   1   7
BRANCH   5  19
HETATM   19  C12 UNL     1      20.876  -0.373  53.000  1.00  0.00     0.011 A 
HETATM   20  C13 UNL     1      20.874   0.273  51.794  1.00  0.00     0.017 A 
HETATM   21  C14 UNL     1      19.675   0.477  51.153  1.00  0.00     0.020 A 
HETATM   22  C15 UNL     1      18.440   0.076  51.635  1.00  0.00     0.116 A 
HETATM   23  N4  UNL     1      18.488  -0.561  52.834  1.00  0.00    -0.272 NA
HETATM   24  C16 UNL     1      19.642  -0.769  53.472  1.00  0.00     0.130 A 
ENDBRANCH   5  19
TORSDOF 4
ENDMDL
MODEL 3
REMARK VINA RESULT:      -8.4      2.338      5.070
REMARK  4 active torsions:
REMARK  status: ('A' for Active; 'I' for Inactive)
REMARK    1  A    between atoms: C5_5  and  N1_6 
REMARK    2  A    between atoms: C7_8  and  N2_9 
REMARK    3  A    between atoms: N2_9  and  C8_10 
REMARK    4  A    between atoms: C11_14  and  C12_15 
ROOT
HETATM    1  C8  UNL     1      25.306   1.450  52.829  1.00  0.00     0.727 A 
HETATM    2  N3  UNL     1      25.380   2.180  51.708  1.00  0.00    -0.075 NA
HETATM    3  C9  UNL     1      24.362   2.364  50.863  1.00  0.00     0.139 A 
HETATM    4  C10 UNL     1      23.151   1.775  51.146  1.00  0.00     0.053 A 
HETATM    5  C11 UNL     1      23.047   1.021  52.291  1.00  0.00     0.089 A 
HETATM    6  N5  UNL     1      24.112   0.895  53.067  1.00  0.00    -0.062 NA
ENDROOT
BRANCH   1   7
HETATM    7  N2  UNL     1      26.363   1.237  53.740  1.00  0.00    -0.188 N 
HETATM    8  H9  UNL     1      26.321   1.760  54.653  1.00  0.00     0.184 HD
BRANCH   7   9
HETATM    9  C7  UNL     1      27.488   0.409  53.602  1.00  0.00     0.057 A 
HETATM   10  C2  UNL     1      28.789   0.926  53.647  1.00  0.00    -0.035 A 
HETATM   11  C1  UNL     1      28.963   2.388  53.846  1.00  0.00     0.050 C 
HETATM   12  C3  UNL     1      29.909   0.138  53.516  1.00  0.00     0.011 A 
HETATM   13  C4  UNL     1      29.811  -1.224  53.329  1.00  0.00     0.029 A 
HETATM   14  C5  UNL     1      28.568  -1.771  53.280  1.00  0.00     0.027 A 
HETATM   15  C6  UNL     1      27.483  -0.958  53.413  1.00  0.00     0.059 A 
BRANCH  14  16
HETATM   16  N1  UNL     1      28.476  -3.169  53.087  1.00  0.00    -0.399 N 
HETATM   17  H6  UNL     1      28.509  -3.954  53.769  1.00  0.00     0.156 HD
HETATM   18  H7  UNL     1      28.355  -3.452  52.092  1.00  0.00     0.156 HD
ENDBRANCH  14  16
ENDBRANCH   7   9
ENDBRANCH   1   7
BRANCH   5  19
HETATM   19  C12 UNL     1      21.819   0.350  52.694  1.00  0.00     0.011 A 
HETATM   20  C13 UNL     1      21.856  -0.558  53.716  1.00  0.00     0.017 A 
HETATM   21  C14 UNL     1      20.689  -1.185  54.088  1.00  0.00     0.020 A 
HETATM   22  C15 UNL     1      19.452  -0.970  53.503  1.00  0.00     0.116 A 
HETATM   23  N4  UNL     1      19.462  -0.062  52.493  1.00  0.00    -0.272 NA
HETATM   24  C16 UNL     1      20.583   0.557  52.117  1.00  0.00     0.130 A 
ENDBRANCH   5  19
TORSDOF 4
ENDMDL
MODEL 4
REMARK VINA RESULT:      -8.3      3.192      3.808
REMARK  4 active torsions:
REMARK  status: ('A' for Active; 'I' for Inactive)
REMARK    1  A    between atoms: C5_5  and  N1_6 
REMARK    2  A    between atoms: C7_8  and  N2_9 
REMARK    3  A    between atoms: N2_9  and  C8_10 
REMARK    4  A    between atoms: C11_14  and  C12_15 
ROOT
HETATM    1  C8  UNL     1      24.879   0.689  52.937  1.00  0.00     0.727 A 
HETATM    2  N3  UNL     1      24.359  -0.173  53.820  1.00  0.00    -0.075 NA
HETATM    3  C9  UNL     1      23.074  -0.535  53.850  1.00  0.00     0.139 A 
HETATM    4  C10 UNL     1      22.213   0.001  52.920  1.00  0.00     0.053 A 
HETATM    5  C11 UNL     1      22.721   0.889  52.000  1.00  0.00     0.089 A 
HETATM    6  N5  UNL     1      24.009   1.187  52.050  1.00  0.00    -0.062 NA
ENDROOT
BRANCH   1   7
HETATM    7  N2  UNL     1      26.231   1.091  52.881  1.00  0.00    -0.188 N 
HETATM    8  H9  UNL     1      26.422   2.100  52.644  1.00  0.00     0.184 HD
BRANCH   7   9
HETATM    9  C7  UNL     1      27.386   0.324  53.100  1.00  0.00     0.057 A 
HETATM   10  C2  UNL     1      28.605   0.917  53.452  1.00  0.00    -0.035 A 
HETATM   11  C1  UNL     1      28.659   2.396  53.593  1.00  0.00     0.050 C 
HETATM   12  C3  UNL     1      29.752   0.190  53.674  1.00  0.00     0.011 A 
HETATM   13  C4  UNL     1      29.764  -1.183  53.558  1.00  0.00     0.029 A 
HETATM   14  C5  UNL     1      28.603  -1.803  53.219  1.00  0.00     0.027 A 
HETATM   15  C6  UNL     1      27.489  -1.049  53.007  1.00  0.00     0.059 A 
BRANCH  14  16
HETATM   16  N1  UNL     1      28.624  -3.213  53.103  1.00  0.00    -0.399 N 
HETATM   17  H6  UNL     1      29.076  -3.939  53.696  1.00  0.00     0.156 HD
HETATM   18  H7  UNL     1      28.097  -3.577  52.281  1.00  0.00     0.156 HD
ENDBRANCH  14  16
ENDBRANCH   7   9
ENDBRANCH   1   7
BRANCH   5  19
HETATM   19  C12 UNL     1      21.908   1.520  50.971  1.00  0.00     0.011 A 
HETATM   20  C13 UNL     1      21.556   0.803  49.861  1.00  0.00     0.017 A 
HETATM   21  C14 UNL     1      20.787   1.409  48.894  1.00  0.00     0.020 A 
HETATM   22  C15 UNL     1      20.328   2.715  48.951  1.00  0.00     0.116 A 
HETATM   23  N4  UNL     1      20.701   3.391  50.069  1.00  0.00    -0.272 NA
HETATM   24  C16 UNL     1      21.447   2.820  51.018  1.00  0.00     0.130 A 
ENDBRANCH   5  19
TORSDOF 4
ENDMDL
MODEL 5
REMARK VINA RESULT:      -8.3      1.416      2.323
REMARK  4 active torsions:
REMARK  status: ('A' for Active; 'I' for Inactive)
REMARK    1  A    between atoms: C5_5  and  N1_6 
REMARK    2  A    between atoms: C7_8  and  N2_9 
REMARK    3  A    between atoms: N2_9  and  C8_10 
REMARK    4  A    between atoms: C11_14  and  C12_15 
ROOT
HETATM    1  C8  UNL     1      24.641   0.970  52.298  1.00  0.00     0.727 A 
HETATM    2  N3  UNL     1      23.338   0.808  52.037  1.00  0.00    -0.075 NA
HETATM    3  C9  UNL     1      22.658   1.519  51.134  1.00  0.00     0.139 A 
HETATM    4  C10 UNL     1      23.323   2.484  50.413  1.00  0.00     0.053 A 
HETATM    5  C11 UNL     1      24.663   2.671  50.660  1.00  0.00     0.089 A 
HETATM    6  N5  UNL     1      25.251   1.918  51.576  1.00  0.00    -0.062 NA
ENDROOT
BRANCH   1   7
HETATM    7  N2  UNL     1      25.386   0.235  53.246  1.00  0.00    -0.188 N 
HETATM    8  H9  UNL     1      24.843  -0.359  53.926  1.00  0.00     0.184 HD
BRANCH   7   9
HETATM    9  C7  UNL     1      26.778   0.181  53.417  1.00  0.00     0.057 A 
HETATM   10  C2  UNL     1      27.518  -0.951  53.049  1.00  0.00    -0.035 A 
HETATM   11  C1  UNL     1      26.796  -2.110  52.464  1.00  0.00     0.050 C 
HETATM   12  C3  UNL     1      28.883  -1.032  53.204  1.00  0.00     0.011 A 
HETATM   13  C4  UNL     1      29.607   0.011  53.741  1.00  0.00     0.029 A 
HETATM   14  C5  UNL     1      28.931   1.130  54.112  1.00  0.00     0.027 A 
HETATM   15  C6  UNL     1      27.581   1.172  53.943  1.00  0.00     0.059 A 
BRANCH  14  16
HETATM   16  N1  UNL     1      29.682   2.195  54.662  1.00  0.00    -0.399 N 
HETATM   17  H6  UNL     1      29.460   3.207  54.758  1.00  0.00     0.156 HD
HETATM   18  H7  UNL     1      30.614   1.910  55.030  1.00  0.00     0.156 HD
ENDBRANCH  14  16
ENDBRANCH   7   9
ENDBRANCH   1   7
BRANCH   5  19
HETATM   19  C12 UNL     1      25.471   3.661  49.962  1.00  0.00     0.011 A 
HETATM   20  C13 UNL     1      24.928   4.881  49.666  1.00  0.00     0.017 A 
HETATM   21  C14 UNL     1      25.701   5.809  49.007  1.00  0.00     0.020 A 
HETATM   22  C15 UNL     1      27.012   5.608  48.607  1.00  0.00     0.116 A 
HETATM   23  N4  UNL     1      27.511   4.383  48.920  1.00  0.00    -0.272 NA
HETATM   24  C16 UNL     1      26.776   3.470  49.560  1.00  0.00     0.130 A 
ENDBRANCH   5  19
TORSDOF 4
ENDMDL
MODEL 6
REMARK VINA RESULT:      -8.2      3.492      5.742
REMARK  4 active torsions:
REMARK  status: ('A' for Active; 'I' for Inactive)
REMARK    1  A    between atoms: C5_5  and  N1_6 
REMARK    2  A    between atoms: C7_8  and  N2_9 
REMARK    3  A    between atoms: N2_9  and  C8_10 
REMARK    4  A    between atoms: C11_14  and  C12_15 
ROOT
HETATM    1  C8  UNL     1      23.889  -0.299  53.388  1.00  0.00     0.727 A 
HETATM    2  N3  UNL     1      23.846  -0.873  54.597  1.00  0.00    -0.075 NA
HETATM    3  C9  UNL     1      22.721  -1.251  55.209  1.00  0.00     0.139 A 
HETATM    4  C10 UNL     1      21.518  -1.046  54.573  1.00  0.00     0.053 A 
HETATM    5  C11 UNL     1      21.533  -0.459  53.330  1.00  0.00     0.089 A 
HETATM    6  N5  UNL     1      22.699  -0.118  52.803  1.00  0.00    -0.062 NA
ENDROOT
BRANCH   1   7
HETATM    7  N2  UNL     1      25.060   0.112  52.715  1.00  0.00    -0.188 N 
HETATM    8  H9  UNL     1      24.943   0.799  51.925  1.00  0.00     0.184 HD
BRANCH   7   9
HETATM    9  C7  UNL     1      26.389  -0.273  52.951  1.00  0.00     0.057 A 
HETATM   10  C2  UNL     1      27.377   0.666  53.277  1.00  0.00    -0.035 A 
HETATM   11  C1  UNL     1      26.990   2.098  53.371  1.00  0.00     0.050 C 
HETATM   12  C3  UNL     1      28.686   0.318  53.514  1.00  0.00     0.011 A 
HETATM   13  C4  UNL     1      29.105  -0.993  53.442  1.00  0.00     0.029 A 
HETATM   14  C5  UNL     1      28.181  -1.939  53.130  1.00  0.00     0.027 A 
HETATM   15  C6  UNL     1      26.894  -1.555  52.901  1.00  0.00     0.059 A 
BRANCH  14  16
HETATM   16  N1  UNL     1      28.618  -3.283  53.058  1.00  0.00    -0.399 N 
HETATM   17  H6  UNL     1      28.513  -3.994  52.306  1.00  0.00     0.156 HD
HETATM   18  H7  UNL     1      29.132  -3.606  53.904  1.00  0.00     0.156 HD
ENDBRANCH  14  16
ENDBRANCH   7   9
ENDBRANCH   1   7
BRANCH   5  19
HETATM   19  C12 UNL     1      20.326  -0.192  52.561  1.00  0.00     0.011 A 
HETATM   20  C13 UNL     1      20.426   0.448  51.356  1.00  0.00     0.017 A 
HETATM   21  C14 UNL     1      19.279   0.695  50.638  1.00  0.00     0.020 A 
HETATM   22  C15 UNL     1      18.001   0.342  51.040  1.00  0.00     0.116 A 
HETATM   23  N4  UNL     1      17.948  -0.291  52.241  1.00  0.00    -0.272 NA
HETATM   24  C16 UNL     1      19.050  -0.539  52.953  1.00  0.00     0.130 A 
ENDBRANCH   5  19
TORSDOF 4
ENDMDL
MODEL 7
REMARK VINA RESULT:      -8.1      1.699      3.629
REMARK  4 active torsions:
REMARK  status: ('A' for Active; 'I' for Inactive)
REMARK    1  A    between atoms: C5_5  and  N1_6 
REMARK    2  A    between atoms: C7_8  and  N2_9 
REMARK    3  A    between atoms: N2_9  and  C8_10 
REMARK    4  A    between atoms: C11_14  and  C12_15 
ROOT
HETATM    1  C8  UNL     1      26.035   2.037  51.855  1.00  0.00     0.727 A 
HETATM    2  N3  UNL     1      26.796   2.822  51.082  1.00  0.00    -0.075 NA
HETATM    3  C9  UNL     1      26.365   3.432  49.975  1.00  0.00     0.139 A 
HETATM    4  C10 UNL     1      25.056   3.257  49.588  1.00  0.00     0.053 A 
HETATM    5  C11 UNL     1      24.251   2.456  50.365  1.00  0.00     0.089 A 
HETATM    6  N5  UNL     1      24.769   1.892  51.445  1.00  0.00    -0.062 NA
ENDROOT
BRANCH   1   7
HETATM    7  N2  UNL     1      26.462   1.378  53.028  1.00  0.00    -0.188 N 
HETATM    8  H9  UNL     1      25.914   1.565  53.908  1.00  0.00     0.184 HD
BRANCH   7   9
HETATM    9  C7  UNL     1      27.536   0.490  53.196  1.00  0.00     0.057 A 
HETATM   10  C2  UNL     1      28.809   0.942  53.567  1.00  0.00    -0.035 A 
HETATM   11  C1  UNL     1      29.009   2.398  53.784  1.00  0.00     0.050 C 
HETATM   12  C3  UNL     1      29.879   0.094  53.739  1.00  0.00     0.011 A 
HETATM   13  C4  UNL     1      29.755  -1.265  53.552  1.00  0.00     0.029 A 
HETATM   14  C5  UNL     1      28.537  -1.749  53.192  1.00  0.00     0.027 A 
HETATM   15  C6  UNL     1      27.502  -0.879  53.031  1.00  0.00     0.059 A 
BRANCH  14  16
HETATM   16  N1  UNL     1      28.419  -3.146  53.002  1.00  0.00    -0.399 N 
HETATM   17  H6  UNL     1      28.232  -3.913  53.680  1.00  0.00     0.156 HD
HETATM   18  H7  UNL     1      28.541  -3.450  52.013  1.00  0.00     0.156 HD
ENDBRANCH  14  16
ENDBRANCH   7   9
ENDBRANCH   1   7
BRANCH   5  19
HETATM   19  C12 UNL     1      22.853   2.196  50.057  1.00  0.00     0.011 A 
HETATM   20  C13 UNL     1      22.206   1.170  50.689  1.00  0.00     0.017 A 
HETATM   21  C14 UNL     1      20.884   0.933  50.391  1.00  0.00     0.020 A 
HETATM   22  C15 UNL     1      20.134   1.663  49.483  1.00  0.00     0.116 A 
HETATM   23  N4  UNL     1      20.815   2.671  48.878  1.00  0.00    -0.272 NA
HETATM   24  C16 UNL     1      22.098   2.916  49.154  1.00  0.00     0.130 A 
ENDBRANCH   5  19
TORSDOF 4
ENDMDL
MODEL 8
REMARK VINA RESULT:      -7.9      2.825      5.619
REMARK  4 active torsions:
REMARK  status: ('A' for Active; 'I' for Inactive)
REMARK    1  A    between atoms: C5_5  and  N1_6 
REMARK    2  A    between atoms: C7_8  and  N2_9 
REMARK    3  A    between atoms: N2_9  and  C8_10 
REMARK    4  A    between atoms: C11_14  and  C12_15 
ROOT
HETATM    1  C8  UNL     1      24.532   0.691  52.736  1.00  0.00     0.727 A 
HETATM    2  N3  UNL     1      24.873   1.599  51.812  1.00  0.00    -0.075 NA
HETATM    3  C9  UNL     1      24.018   2.147  50.945  1.00  0.00     0.139 A 
HETATM    4  C10 UNL     1      22.696   1.768  50.988  1.00  0.00     0.053 A 
HETATM    5  C11 UNL     1      22.318   0.838  51.928  1.00  0.00     0.089 A 
HETATM    6  N5  UNL     1      23.238   0.350  52.745  1.00  0.00    -0.062 NA
ENDROOT
BRANCH   1   7
HETATM    7  N2  UNL     1      25.412   0.094  53.664  1.00  0.00    -0.188 N 
HETATM    8  H9  UNL     1      24.976  -0.439  54.462  1.00  0.00     0.184 HD
BRANCH   7   9
HETATM    9  C7  UNL     1      26.815   0.108  53.679  1.00  0.00     0.057 A 
HETATM   10  C2  UNL     1      27.565  -0.951  53.151  1.00  0.00    -0.035 A 
HETATM   11  C1  UNL     1      26.840  -2.108  52.564  1.00  0.00     0.050 C 
HETATM   12  C3  UNL     1      28.940  -0.964  53.151  1.00  0.00     0.011 A 
HETATM   13  C4  UNL     1      29.667   0.080  53.681  1.00  0.00     0.029 A 
HETATM   14  C5  UNL     1      28.983   1.130  54.205  1.00  0.00     0.027 A 
HETATM   15  C6  UNL     1      27.621   1.106  54.187  1.00  0.00     0.059 A 
BRANCH  14  16
HETATM   16  N1  UNL     1      29.736   2.198  54.748  1.00  0.00    -0.399 N 
HETATM   17  H6  UNL     1      30.248   2.975  54.283  1.00  0.00     0.156 HD
HETATM   18  H7  UNL     1      29.782   2.197  55.788  1.00  0.00     0.156 HD
ENDBRANCH  14  16
ENDBRANCH   7   9
ENDBRANCH   1   7
BRANCH   5  19
HETATM   19  C12 UNL     1      20.950   0.360  52.069  1.00  0.00     0.011 A 
HETATM   20  C13 UNL     1      20.583  -0.297  53.211  1.00  0.00     0.017 A 
HETATM   21  C14 UNL     1      19.288  -0.744  53.334  1.00  0.00     0.020 A 
HETATM   22  C15 UNL     1      18.300  -0.581  52.376  1.00  0.00     0.116 A 
HETATM   23  N4  UNL     1      18.707   0.076  51.259  1.00  0.00    -0.272 NA
HETATM   24  C16 UNL     1      19.959   0.517  51.121  1.00  0.00     0.130 A 
ENDBRANCH   5  19
TORSDOF 4
ENDMDL
MODEL 9
REMARK VINA RESULT:      -7.9      1.410      6.761
REMARK  4 active torsions:
REMARK  status: ('A' for Active; 'I' for Inactive)
REMARK    1  A    between atoms: C5_5  and  N1_6 
REMARK    2  A    between atoms: C7_8  and  N2_9 
REMARK    3  A    between atoms: N2_9  and  C8_10 
REMARK    4  A    between atoms: C11_14  and  C12_15 
ROOT
HETATM    1  C8  UNL     1      25.557   2.851  51.007  1.00  0.00     0.727 A 
HETATM    2  N3  UNL     1      24.654   3.236  51.918  1.00  0.00    -0.075 NA
HETATM    3  C9  UNL     1      24.618   2.788  53.176  1.00  0.00     0.139 A 
HETATM    4  C10 UNL     1      25.561   1.872  53.582  1.00  0.00     0.053 A 
HETATM    5  C11 UNL     1      26.502   1.461  52.667  1.00  0.00     0.089 A 
HETATM    6  N5  UNL     1      26.457   1.960  51.442  1.00  0.00    -0.062 NA
ENDROOT
BRANCH   1   7
HETATM    7  N2  UNL     1      25.622   3.305  49.672  1.00  0.00    -0.188 N 
HETATM    8  H9  UNL     1      25.117   2.731  48.947  1.00  0.00     0.184 HD
BRANCH   7   9
HETATM    9  C7  UNL     1      26.276   4.436  49.160  1.00  0.00     0.057 A 
HETATM   10  C2  UNL     1      25.586   5.627  48.901  1.00  0.00    -0.035 A 
HETATM   11  C1  UNL     1      24.128   5.677  49.182  1.00  0.00     0.050 C 
HETATM   12  C3  UNL     1      26.201   6.751  48.400  1.00  0.00     0.011 A 
HETATM   13  C4  UNL     1      27.550   6.766  48.120  1.00  0.00     0.029 A 
HETATM   14  C5  UNL     1      28.261   5.632  48.356  1.00  0.00     0.027 A 
HETATM   15  C6  UNL     1      27.616   4.540  48.852  1.00  0.00     0.059 A 
BRANCH  14  16
HETATM   16  N1  UNL     1      29.646   5.656  48.065  1.00  0.00    -0.399 N 
HETATM   17  H6  UNL     1      30.218   5.065  47.428  1.00  0.00     0.156 HD
HETATM   18  H7  UNL     1      30.174   6.391  48.580  1.00  0.00     0.156 HD
ENDBRANCH  14  16
ENDBRANCH   7   9
ENDBRANCH   1   7
BRANCH   5  19
HETATM   19  C12 UNL     1      27.547   0.497  52.979  1.00  0.00     0.011 A 
HETATM   20  C13 UNL     1      28.786   0.947  53.347  1.00  0.00     0.017 A 
HETATM   21  C14 UNL     1      29.766   0.028  53.640  1.00  0.00     0.020 A 
HETATM   22  C15 UNL     1      29.603  -1.347  53.594  1.00  0.00     0.116 A 
HETATM   23  N4  UNL     1      28.359  -1.750  53.225  1.00  0.00    -0.272 NA
HETATM   24  C16 UNL     1      27.394  -0.873  52.936  1.00  0.00     0.130 A 
ENDBRANCH   5  19
TORSDOF 4
ENDMDL
