MODEL 1
REMARK VINA RESULT:      -8.7      0.000      0.000
REMARK  8 active torsions:
REMARK  status: ('A' for Active; 'I' for Inactive)
REMARK    1  A    between atoms: C2_2  and  C3_3 
REMARK    2  A    between atoms: C3_3  and  O1_4 
REMARK    3  A    between atoms: O1_4  and  C4_5 
REMARK    4  A    between atoms: C4_5  and  C5_7 
REMARK    5  A    between atoms: C5_7  and  O3_8 
REMARK    6  A    between atoms: O3_8  and  C6_9 
REMARK    7  A    between atoms: C8_11  and  O4_12 
REMARK    8  A    between atoms: C12_17  and  C13_18 
ROOT
HETATM    1  C6  UNL     1      25.395   0.617  52.637  1.00  0.00     0.074 A 
HETATM    2  C7  UNL     1      25.726  -0.071  53.779  1.00  0.00     0.074 A 
HETATM    3  C8  UNL     1      24.746  -0.716  54.502  1.00  0.00     0.085 A 
HETATM    4  C9  UNL     1      23.440  -0.655  54.060  1.00  0.00     0.081 A 
HETATM    5  C10 UNL     1      22.415  -1.279  54.738  1.00  0.00     0.190 A 
HETATM    6  O5  UNL     1      22.682  -1.917  55.786  1.00  0.00    -0.287 OA
HETATM    7  C11 UNL     1      21.125  -1.190  54.258  1.00  0.00     0.094 A 
HETATM    8  C12 UNL     1      20.810  -0.496  53.111  1.00  0.00     0.090 A 
HETATM    9  O6  UNL     1      21.818   0.080  52.502  1.00  0.00    -0.309 OA
HETATM   10  C19 UNL     1      23.065   0.025  52.920  1.00  0.00     0.095 A 
HETATM   11  C20 UNL     1      24.074   0.672  52.200  1.00  0.00     0.075 A 
ENDROOT
BRANCH   1  12
HETATM   12  O3  UNL     1      26.244   1.314  51.801  1.00  0.00    -0.341 OA
BRANCH  12  13
HETATM   13  C5  UNL     1      27.101   2.350  52.279  1.00  0.00     0.286 C 
BRANCH  13  14
HETATM   14  C4  UNL     1      28.104   1.847  53.219  1.00  0.00     0.283 C 
HETATM   15  O2  UNL     1      28.042   2.674  54.129  1.00  0.00    -0.263 OA
BRANCH  14  16
HETATM   16  O1  UNL     1      29.018   1.402  54.091  1.00  0.00    -0.320 OA
BRANCH  16  17
HETATM   17  C3  UNL     1      29.400   0.143  54.498  1.00  0.00     0.178 C 
BRANCH  17  18
HETATM   18  C2  UNL     1      30.038  -0.753  53.491  1.00  0.00     0.022 C 
HETATM   19  C1  UNL     1      29.050  -1.920  53.292  1.00  0.00     0.007 C 
ENDBRANCH  17  18
ENDBRANCH  16  17
ENDBRANCH  14  16
ENDBRANCH  13  14
ENDBRANCH  12  13
ENDBRANCH   1  12
BRANCH   3  20
HETATM   20  O4  UNL     1      25.081  -1.411  55.655  1.00  0.00    -0.360 OA
HETATM   21  H11 UNL     1      26.076  -1.576  55.816  1.00  0.00     0.217 HD
ENDBRANCH   3  20
BRANCH   8  22
HETATM   22  C13 UNL     1      19.475  -0.357  52.542  1.00  0.00    -0.002 A 
HETATM   23  C14 UNL     1      18.442  -0.992  53.181  1.00  0.00     0.014 A 
HETATM   24  C15 UNL     1      17.169  -0.880  52.668  1.00  0.00     0.001 A 
HETATM   25  C16 UNL     1      16.931  -0.141  51.528  1.00  0.00     0.000 A 
HETATM   26  C17 UNL     1      17.946   0.516  50.854  1.00  0.00     0.001 A 
HETATM   27  C18 UNL     1      19.221   0.379  51.403  1.00  0.00     0.014 A 
ENDBRANCH   8  22
TORSDOF 8
ENDMDL
MODEL 2
REMARK VINA RESULT:      -8.3      2.302      7.198
REMARK  8 active torsions:
REMARK  status: ('A' for Active; 'I' for Inactive)
REMARK    1  A    between atoms: C2_2  and  C3_3 
REMARK    2  A    between atoms: C3_3  and  O1_4 
REMARK    3  A    between atoms: O1_4  and  C4_5 
REMARK    4  A    between atoms: C4_5  and  C5_7 
REMARK    5  A    between atoms: C5_7  and  O3_8 
REMARK    6  A    between atoms: O3_8  and  C6_9 
REMARK    7  A    between atoms: C8_11  and  O4_12 
REMARK    8  A    between atoms: C12_17  and  C13_18 
ROOT
HETATM    1  C6  UNL     1      21.434   0.561  51.848  1.00  0.00     0.074 A 
HETATM    2  C7  UNL     1      20.752  -0.079  52.854  1.00  0.00     0.074 A 
HETATM    3  C8  UNL     1      21.445  -0.650  53.899  1.00  0.00     0.085 A 
HETATM    4  C9  UNL     1      22.822  -0.566  53.913  1.00  0.00     0.081 A 
HETATM    5  C10 UNL     1      23.572  -1.116  54.931  1.00  0.00     0.190 A 
HETATM    6  O5  UNL     1      22.982  -1.709  55.867  1.00  0.00    -0.287 OA
HETATM    7  C11 UNL     1      24.947  -1.006  54.902  1.00  0.00     0.094 A 
HETATM    8  C12 UNL     1      25.615  -0.360  53.885  1.00  0.00     0.090 A 
HETATM    9  O6  UNL     1      24.859   0.146  52.941  1.00  0.00    -0.309 OA
HETATM   10  C19 UNL     1      23.545   0.068  52.923  1.00  0.00     0.095 A 
HETATM   11  C20 UNL     1      22.824   0.640  51.872  1.00  0.00     0.075 A 
ENDROOT
BRANCH   1  12
HETATM   12  O3  UNL     1      20.901   1.181  50.736  1.00  0.00    -0.341 OA
BRANCH  12  13
HETATM   13  C5  UNL     1      19.836   2.127  50.829  1.00  0.00     0.286 C 
BRANCH  13  14
HETATM   14  C4  UNL     1      20.311   3.458  51.211  1.00  0.00     0.283 C 
HETATM   15  O2  UNL     1      19.800   3.605  52.321  1.00  0.00    -0.263 OA
BRANCH  14  16
HETATM   16  O1  UNL     1      20.736   4.674  51.576  1.00  0.00    -0.320 OA
BRANCH  16  17
HETATM   17  C3  UNL     1      21.979   5.264  51.626  1.00  0.00     0.178 C 
BRANCH  17  18
HETATM   18  C2  UNL     1      23.172   4.399  51.402  1.00  0.00     0.022 C 
HETATM   19  C1  UNL     1      23.690   4.035  52.807  1.00  0.00     0.007 C 
ENDBRANCH  17  18
ENDBRANCH  16  17
ENDBRANCH  14  16
ENDBRANCH  13  14
ENDBRANCH  12  13
ENDBRANCH   1  12
BRANCH   3  20
HETATM   20  O4  UNL     1      20.756  -1.297  54.915  1.00  0.00    -0.360 OA
HETATM   21  H11 UNL     1      21.064  -2.244  55.146  1.00  0.00     0.217 HD
ENDBRANCH   3  20
BRANCH   8  22
HETATM   22  C13 UNL     1      27.061  -0.203  53.784  1.00  0.00    -0.002 A 
HETATM   23  C14 UNL     1      27.593   1.013  54.127  1.00  0.00     0.014 A 
HETATM   24  C15 UNL     1      28.956   1.193  54.041  1.00  0.00     0.001 A 
HETATM   25  C16 UNL     1      29.778   0.170  53.619  1.00  0.00     0.000 A 
HETATM   26  C17 UNL     1      29.280  -1.072  53.264  1.00  0.00     0.001 A 
HETATM   27  C18 UNL     1      27.896  -1.217  53.363  1.00  0.00     0.014 A 
ENDBRANCH   8  22
TORSDOF 8
ENDMDL
MODEL 3
REMARK VINA RESULT:      -8.3      3.076      4.576
REMARK  8 active torsions:
REMARK  status: ('A' for Active; 'I' for Inactive)
REMARK    1  A    between atoms: C2_2  and  C3_3 
REMARK    2  A    between atoms: C3_3  and  O1_4 
REMARK    3  A    between atoms: O1_4  and  C4_5 
REMARK    4  A    between atoms: C4_5  and  C5_7 
REMARK    5  A    between atoms: C5_7  and  O3_8 
REMARK    6  A    between atoms: O3_8  and  C6_9 
REMARK    7  A    between atoms: C8_11  and  O4_12 
REMARK    8  A    between atoms: C12_17  and  C13_18 
ROOT
HETATM    1  C6  UNL     1      26.641   2.095  51.708  1.00  0.00     0.074 A 
HETATM    2  C7  UNL     1      27.366   1.418  52.657  1.00  0.00     0.074 A 
HETATM    3  C8  UNL     1      26.737   0.518  53.490  1.00  0.00     0.085 A 
HETATM    4  C9  UNL     1      25.379   0.315  53.352  1.00  0.00     0.081 A 
HETATM    5  C10 UNL     1      24.693  -0.571  54.154  1.00  0.00     0.190 A 
HETATM    6  O5  UNL     1      25.324  -1.207  55.033  1.00  0.00    -0.287 OA
HETATM    7  C11 UNL     1      23.335  -0.741  53.978  1.00  0.00     0.094 A 
HETATM    8  C12 UNL     1      22.623  -0.054  53.020  1.00  0.00     0.090 A 
HETATM    9  O6  UNL     1      23.320   0.777  52.282  1.00  0.00    -0.309 OA
HETATM   10  C19 UNL     1      24.615   0.974  52.411  1.00  0.00     0.095 A 
HETATM   11  C20 UNL     1      25.271   1.883  51.576  1.00  0.00     0.075 A 
ENDROOT
BRANCH   1  12
HETATM   12  O3  UNL     1      27.109   3.024  50.800  1.00  0.00    -0.341 OA
BRANCH  12  13
HETATM   13  C5  UNL     1      26.303   3.511  49.726  1.00  0.00     0.286 C 
BRANCH  13  14
HETATM   14  C4  UNL     1      26.904   4.674  49.070  1.00  0.00     0.283 C 
HETATM   15  O2  UNL     1      27.957   4.208  48.635  1.00  0.00    -0.263 OA
BRANCH  14  16
HETATM   16  O1  UNL     1      27.468   5.726  48.465  1.00  0.00    -0.320 OA
BRANCH  16  17
HETATM   17  C3  UNL     1      28.775   6.083  48.216  1.00  0.00     0.178 C 
BRANCH  17  18
HETATM   18  C2  UNL     1      29.022   7.222  47.286  1.00  0.00     0.022 C 
HETATM   19  C1  UNL     1      27.650   7.892  47.080  1.00  0.00     0.007 C 
ENDBRANCH  17  18
ENDBRANCH  16  17
ENDBRANCH  14  16
ENDBRANCH  13  14
ENDBRANCH  12  13
ENDBRANCH   1  12
BRANCH   3  20
HETATM   20  O4  UNL     1      27.470  -0.165  54.450  1.00  0.00    -0.360 OA
HETATM   21  H11 UNL     1      28.363   0.249  54.725  1.00  0.00     0.217 HD
ENDBRANCH   3  20
BRANCH   8  22
HETATM   22  C13 UNL     1      21.191  -0.178  52.773  1.00  0.00    -0.002 A 
HETATM   23  C14 UNL     1      20.694   0.384  51.626  1.00  0.00     0.014 A 
HETATM   24  C15 UNL     1      19.346   0.284  51.364  1.00  0.00     0.001 A 
HETATM   25  C16 UNL     1      18.504  -0.371  52.238  1.00  0.00     0.000 A 
HETATM   26  C17 UNL     1      18.967  -0.952  53.407  1.00  0.00     0.001 A 
HETATM   27  C18 UNL     1      20.338  -0.829  53.638  1.00  0.00     0.014 A 
ENDBRANCH   8  22
TORSDOF 8
ENDMDL
MODEL 4
REMARK VINA RESULT:      -8.3      2.650      6.680
REMARK  8 active torsions:
REMARK  status: ('A' for Active; 'I' for Inactive)
REMARK    1  A    between atoms: C2_2  and  C3_3 
REMARK    2  A    between atoms: C3_3  and  O1_4 
REMARK    3  A    between atoms: O1_4  and  C4_5 
REMARK    4  A    between atoms: C4_5  and  C5_7 
REMARK    5  A    between atoms: C5_7  and  O3_8 
REMARK    6  A    between atoms: O3_8  and  C6_9 
REMARK    7  A    between atoms: C8_11  and  O4_12 
REMARK    8  A    between atoms: C12_17  and  C13_18 
ROOT
HETATM    1  C6  UNL     1      21.630   2.004  52.139  1.00  0.00     0.074 A 
HETATM    2  C7  UNL     1      20.754   1.294  52.922  1.00  0.00     0.074 A 
HETATM    3  C8  UNL     1      21.229   0.324  53.778  1.00  0.00     0.085 A 
HETATM    4  C9  UNL     1      22.586   0.084  53.830  1.00  0.00     0.081 A 
HETATM    5  C10 UNL     1      23.122  -0.872  54.666  1.00  0.00     0.190 A 
HETATM    6  O5  UNL     1      22.351  -1.541  55.396  1.00  0.00    -0.287 OA
HETATM    7  C11 UNL     1      24.487  -1.076  54.684  1.00  0.00     0.094 A 
HETATM    8  C12 UNL     1      25.352  -0.354  53.892  1.00  0.00     0.090 A 
HETATM    9  O6  UNL     1      24.794   0.543  53.114  1.00  0.00    -0.309 OA
HETATM   10  C19 UNL     1      23.500   0.775  53.061  1.00  0.00     0.095 A 
HETATM   11  C20 UNL     1      22.999   1.755  52.199  1.00  0.00     0.075 A 
ENDROOT
BRANCH   1  12
HETATM   12  O3  UNL     1      21.327   3.002  51.234  1.00  0.00    -0.341 OA
BRANCH  12  13
HETATM   13  C5  UNL     1      21.310   4.381  51.600  1.00  0.00     0.286 C 
BRANCH  13  14
HETATM   14  C4  UNL     1      22.541   5.071  51.211  1.00  0.00     0.283 C 
HETATM   15  O2  UNL     1      23.073   5.280  52.302  1.00  0.00    -0.263 OA
BRANCH  14  16
HETATM   16  O1  UNL     1      23.672   5.704  50.875  1.00  0.00    -0.320 OA
BRANCH  16  17
HETATM   17  C3  UNL     1      24.848   5.289  50.291  1.00  0.00     0.178 C 
BRANCH  17  18
HETATM   18  C2  UNL     1      24.831   4.016  49.515  1.00  0.00     0.022 C 
HETATM   19  C1  UNL     1      25.982   3.167  50.088  1.00  0.00     0.007 C 
ENDBRANCH  17  18
ENDBRANCH  16  17
ENDBRANCH  14  16
ENDBRANCH  13  14
ENDBRANCH  12  13
ENDBRANCH   1  12
BRANCH   3  20
HETATM   20  O4  UNL     1      20.343  -0.395  54.569  1.00  0.00    -0.360 OA
HETATM   21  H11 UNL     1      19.732  -1.057  54.086  1.00  0.00     0.217 HD
ENDBRANCH   3  20
BRANCH   8  22
HETATM   22  C13 UNL     1      26.801  -0.510  53.854  1.00  0.00    -0.002 A 
HETATM   23  C14 UNL     1      27.550   0.324  54.642  1.00  0.00     0.014 A 
HETATM   24  C15 UNL     1      28.922   0.202  54.628  1.00  0.00     0.001 A 
HETATM   25  C16 UNL     1      29.538  -0.744  53.836  1.00  0.00     0.000 A 
HETATM   26  C17 UNL     1      28.817  -1.605  53.027  1.00  0.00     0.001 A 
HETATM   27  C18 UNL     1      27.431  -1.451  53.066  1.00  0.00     0.014 A 
ENDBRANCH   8  22
TORSDOF 8
ENDMDL
MODEL 5
REMARK VINA RESULT:      -8.1      3.306      6.811
REMARK  8 active torsions:
REMARK  status: ('A' for Active; 'I' for Inactive)
REMARK    1  A    between atoms: C2_2  and  C3_3 
REMARK    2  A    between atoms: C3_3  and  O1_4 
REMARK    3  A    between atoms: O1_4  and  C4_5 
REMARK    4  A    between atoms: C4_5  and  C5_7 
REMARK    5  A    between atoms: C5_7  and  O3_8 
REMARK    6  A    between atoms: O3_8  and  C6_9 
REMARK    7  A    between atoms: C8_11  and  O4_12 
REMARK    8  A    between atoms: C12_17  and  C13_18 
ROOT
HETATM    1  C6  UNL     1      22.832   0.657  52.639  1.00  0.00     0.074 A 
HETATM    2  C7  UNL     1      21.626   1.271  52.869  1.00  0.00     0.074 A 
HETATM    3  C8  UNL     1      21.403   2.548  52.399  1.00  0.00     0.085 A 
HETATM    4  C9  UNL     1      22.408   3.189  51.704  1.00  0.00     0.081 A 
HETATM    5  C10 UNL     1      22.247   4.465  51.209  1.00  0.00     0.190 A 
HETATM    6  O5  UNL     1      21.156   5.057  51.400  1.00  0.00    -0.287 OA
HETATM    7  C11 UNL     1      23.279   5.065  50.519  1.00  0.00     0.094 A 
HETATM    8  C12 UNL     1      24.484   4.435  50.297  1.00  0.00     0.090 A 
HETATM    9  O6  UNL     1      24.589   3.223  50.787  1.00  0.00    -0.309 OA
HETATM   10  C19 UNL     1      23.634   2.608  51.452  1.00  0.00     0.095 A 
HETATM   11  C20 UNL     1      23.839   1.313  51.935  1.00  0.00     0.075 A 
ENDROOT
BRANCH   1  12
HETATM   12  O3  UNL     1      23.219  -0.607  53.035  1.00  0.00    -0.341 OA
BRANCH  12  13
HETATM   13  C5  UNL     1      23.634  -0.892  54.371  1.00  0.00     0.286 C 
BRANCH  13  14
HETATM   14  C4  UNL     1      25.048  -0.583  54.587  1.00  0.00     0.283 C 
HETATM   15  O2  UNL     1      25.339  -1.342  55.512  1.00  0.00    -0.263 OA
BRANCH  14  16
HETATM   16  O1  UNL     1      26.342  -0.312  54.801  1.00  0.00    -0.320 OA
BRANCH  16  17
HETATM   17  C3  UNL     1      27.418  -0.122  53.962  1.00  0.00     0.178 C 
BRANCH  17  18
HETATM   18  C2  UNL     1      28.781  -0.111  54.566  1.00  0.00     0.022 C 
HETATM   19  C1  UNL     1      29.643  -1.011  53.660  1.00  0.00     0.007 C 
ENDBRANCH  17  18
ENDBRANCH  16  17
ENDBRANCH  14  16
ENDBRANCH  13  14
ENDBRANCH  12  13
ENDBRANCH   1  12
BRANCH   3  20
HETATM   20  O4  UNL     1      20.184   3.168  52.632  1.00  0.00    -0.360 OA
HETATM   21  H11 UNL     1      19.617   3.386  51.810  1.00  0.00     0.217 HD
ENDBRANCH   3  20
BRANCH   8  22
HETATM   22  C13 UNL     1      25.620   5.001  49.579  1.00  0.00    -0.002 A 
HETATM   23  C14 UNL     1      25.536   6.313  49.191  1.00  0.00     0.014 A 
HETATM   24  C15 UNL     1      26.593   6.877  48.511  1.00  0.00     0.001 A 
HETATM   25  C16 UNL     1      27.721   6.138  48.223  1.00  0.00     0.000 A 
HETATM   26  C17 UNL     1      27.844   4.811  48.598  1.00  0.00     0.001 A 
HETATM   27  C18 UNL     1      26.755   4.275  49.284  1.00  0.00     0.014 A 
ENDBRANCH   8  22
TORSDOF 8
ENDMDL
MODEL 6
REMARK VINA RESULT:      -7.9      2.207      3.632
REMARK  8 active torsions:
REMARK  status: ('A' for Active; 'I' for Inactive)
REMARK    1  A    between atoms: C2_2  and  C3_3 
REMARK    2  A    between atoms: C3_3  and  O1_4 
REMARK    3  A    between atoms: O1_4  and  C4_5 
REMARK    4  A    between atoms: C4_5  and  C5_7 
REMARK    5  A    between atoms: C5_7  and  O3_8 
REMARK    6  A    between atoms: O3_8  and  C6_9 
REMARK    7  A    between atoms: C8_11  and  O4_12 
REMARK    8  A    between atoms: C12_17  and  C13_18 
ROOT
HETATM    1  C6  UNL     1      25.104   0.998  52.616  1.00  0.00     0.074 A 
HETATM    2  C7  UNL     1      25.527   0.272  53.701  1.00  0.00     0.074 A 
HETATM    3  C8  UNL     1      24.628  -0.497  54.407  1.00  0.00     0.085 A 
HETATM    4  C9  UNL     1      23.308  -0.521  54.006  1.00  0.00     0.081 A 
HETATM    5  C10 UNL     1      22.362  -1.271  54.669  1.00  0.00     0.190 A 
HETATM    6  O5  UNL     1      22.713  -1.947  55.667  1.00  0.00    -0.287 OA
HETATM    7  C11 UNL     1      21.054  -1.264  54.230  1.00  0.00     0.094 A 
HETATM    8  C12 UNL     1      20.645  -0.530  53.138  1.00  0.00     0.090 A 
HETATM    9  O6  UNL     1      21.582   0.167  52.541  1.00  0.00    -0.309 OA
HETATM   10  C19 UNL     1      22.842   0.193  52.921  1.00  0.00     0.095 A 
HETATM   11  C20 UNL     1      23.769   0.967  52.218  1.00  0.00     0.075 A 
ENDROOT
BRANCH   1  12
HETATM   12  O3  UNL     1      25.865   1.815  51.803  1.00  0.00    -0.341 OA
BRANCH  12  13
HETATM   13  C5  UNL     1      25.319   2.961  51.151  1.00  0.00     0.286 C 
BRANCH  13  14
HETATM   14  C4  UNL     1      26.270   3.571  50.221  1.00  0.00     0.283 C 
HETATM   15  O2  UNL     1      27.238   2.815  50.309  1.00  0.00    -0.263 OA
BRANCH  14  16
HETATM   16  O1  UNL     1      27.154   4.116  49.375  1.00  0.00    -0.320 OA
BRANCH  16  17
HETATM   17  C3  UNL     1      27.173   5.291  48.656  1.00  0.00     0.178 C 
BRANCH  17  18
HETATM   18  C2  UNL     1      26.312   6.412  49.130  1.00  0.00     0.022 C 
HETATM   19  C1  UNL     1      25.995   7.249  47.875  1.00  0.00     0.007 C 
ENDBRANCH  17  18
ENDBRANCH  16  17
ENDBRANCH  14  16
ENDBRANCH  13  14
ENDBRANCH  12  13
ENDBRANCH   1  12
BRANCH   3  20
HETATM   20  O4  UNL     1      25.056  -1.231  55.505  1.00  0.00    -0.360 OA
HETATM   21  H11 UNL     1      26.040  -1.135  55.763  1.00  0.00     0.217 HD
ENDBRANCH   3  20
BRANCH   8  22
HETATM   22  C13 UNL     1      19.286  -0.470  52.614  1.00  0.00    -0.002 A 
HETATM   23  C14 UNL     1      18.324  -1.205  53.259  1.00  0.00     0.014 A 
HETATM   24  C15 UNL     1      17.031  -1.170  52.788  1.00  0.00     0.001 A 
HETATM   25  C16 UNL     1      16.702  -0.410  51.685  1.00  0.00     0.000 A 
HETATM   26  C17 UNL     1      17.643   0.345  51.007  1.00  0.00     0.001 A 
HETATM   27  C18 UNL     1      18.942   0.285  51.512  1.00  0.00     0.014 A 
ENDBRANCH   8  22
TORSDOF 8
ENDMDL
MODEL 7
REMARK VINA RESULT:      -7.7      3.962      7.963
REMARK  8 active torsions:
REMARK  status: ('A' for Active; 'I' for Inactive)
REMARK    1  A    between atoms: C2_2  and  C3_3 
REMARK    2  A    between atoms: C3_3  and  O1_4 
REMARK    3  A    between atoms: O1_4  and  C4_5 
REMARK    4  A    between atoms: C4_5  and  C5_7 
REMARK    5  A    between atoms: C5_7  and  O3_8 
REMARK    6  A    between atoms: O3_8  and  C6_9 
REMARK    7  A    between atoms: C8_11  and  O4_12 
REMARK    8  A    between atoms: C12_17  and  C13_18 
ROOT
HETATM    1  C6  UNL     1      21.285   2.056  52.252  1.00  0.00     0.074 A 
HETATM    2  C7  UNL     1      20.411   1.274  52.966  1.00  0.00     0.074 A 
HETATM    3  C8  UNL     1      20.891   0.260  53.767  1.00  0.00     0.085 A 
HETATM    4  C9  UNL     1      22.253   0.049  53.834  1.00  0.00     0.081 A 
HETATM    5  C10 UNL     1      22.795  -0.947  54.616  1.00  0.00     0.190 A 
HETATM    6  O5  UNL     1      22.025  -1.681  55.283  1.00  0.00    -0.287 OA
HETATM    7  C11 UNL     1      24.164  -1.120  54.652  1.00  0.00     0.094 A 
HETATM    8  C12 UNL     1      25.027  -0.326  53.929  1.00  0.00     0.090 A 
HETATM    9  O6  UNL     1      24.464   0.608  53.200  1.00  0.00    -0.309 OA
HETATM   10  C19 UNL     1      23.165   0.812  53.133  1.00  0.00     0.095 A 
HETATM   11  C20 UNL     1      22.658   1.835  52.327  1.00  0.00     0.075 A 
ENDROOT
BRANCH   1  12
HETATM   12  O3  UNL     1      20.977   3.104  51.409  1.00  0.00    -0.341 OA
BRANCH  12  13
HETATM   13  C5  UNL     1      21.886   4.177  51.164  1.00  0.00     0.286 C 
BRANCH  13  14
HETATM   14  C4  UNL     1      21.219   5.344  50.584  1.00  0.00     0.283 C 
HETATM   15  O2  UNL     1      21.613   6.254  51.314  1.00  0.00    -0.263 OA
BRANCH  14  16
HETATM   16  O1  UNL     1      20.617   6.423  50.068  1.00  0.00    -0.320 OA
BRANCH  16  17
HETATM   17  C3  UNL     1      20.876   7.774  50.140  1.00  0.00     0.178 C 
BRANCH  17  18
HETATM   18  C2  UNL     1      20.148   8.675  49.202  1.00  0.00     0.022 C 
HETATM   19  C1  UNL     1      19.377   9.667  50.095  1.00  0.00     0.007 C 
ENDBRANCH  17  18
ENDBRANCH  16  17
ENDBRANCH  14  16
ENDBRANCH  13  14
ENDBRANCH  12  13
ENDBRANCH   1  12
BRANCH   3  20
HETATM   20  O4  UNL     1      20.007  -0.530  54.488  1.00  0.00    -0.360 OA
HETATM   21  H11 UNL     1      20.402  -1.349  54.954  1.00  0.00     0.217 HD
ENDBRANCH   3  20
BRANCH   8  22
HETATM   22  C13 UNL     1      26.480  -0.445  53.914  1.00  0.00    -0.002 A 
HETATM   23  C14 UNL     1      27.036  -1.314  53.011  1.00  0.00     0.014 A 
HETATM   24  C15 UNL     1      28.406  -1.449  52.972  1.00  0.00     0.001 A 
HETATM   25  C16 UNL     1      29.211  -0.724  53.825  1.00  0.00     0.000 A 
HETATM   26  C17 UNL     1      28.689   0.163  54.750  1.00  0.00     0.001 A 
HETATM   27  C18 UNL     1      27.298   0.273  54.761  1.00  0.00     0.014 A 
ENDBRANCH   8  22
TORSDOF 8
ENDMDL
MODEL 8
REMARK VINA RESULT:      -7.7      2.727      8.381
REMARK  8 active torsions:
REMARK  status: ('A' for Active; 'I' for Inactive)
REMARK    1  A    between atoms: C2_2  and  C3_3 
REMARK    2  A    between atoms: C3_3  and  O1_4 
REMARK    3  A    between atoms: O1_4  and  C4_5 
REMARK    4  A    between atoms: C4_5  and  C5_7 
REMARK    5  A    between atoms: C5_7  and  O3_8 
REMARK    6  A    between atoms: O3_8  and  C6_9 
REMARK    7  A    between atoms: C8_11  and  O4_12 
REMARK    8  A    between atoms: C12_17  and  C13_18 
ROOT
HETATM    1  C6  UNL     1      21.392   1.815  52.171  1.00  0.00     0.074 A 
HETATM    2  C7  UNL     1      20.553   1.065  52.956  1.00  0.00     0.074 A 
HETATM    3  C8  UNL     1      21.075   0.127  53.821  1.00  0.00     0.085 A 
HETATM    4  C9  UNL     1      22.444  -0.040  53.879  1.00  0.00     0.081 A 
HETATM    5  C10 UNL     1      23.027  -0.959  54.723  1.00  0.00     0.190 A 
HETATM    6  O5  UNL     1      22.290  -1.663  55.456  1.00  0.00    -0.287 OA
HETATM    7  C11 UNL     1      24.401  -1.090  54.746  1.00  0.00     0.094 A 
HETATM    8  C12 UNL     1      25.229  -0.329  53.951  1.00  0.00     0.090 A 
HETATM    9  O6  UNL     1      24.626   0.532  53.165  1.00  0.00    -0.309 OA
HETATM   10  C19 UNL     1      23.322   0.694  53.107  1.00  0.00     0.095 A 
HETATM   11  C20 UNL     1      22.772   1.639  52.236  1.00  0.00     0.075 A 
ENDROOT
BRANCH   1  12
HETATM   12  O3  UNL     1      21.039   2.789  51.258  1.00  0.00    -0.341 OA
BRANCH  12  13
HETATM   13  C5  UNL     1      20.454   4.028  51.655  1.00  0.00     0.286 C 
BRANCH  13  14
HETATM   14  C4  UNL     1      19.021   4.081  51.362  1.00  0.00     0.283 C 
HETATM   15  O2  UNL     1      18.984   4.841  50.394  1.00  0.00    -0.263 OA
BRANCH  14  16
HETATM   16  O1  UNL     1      17.713   4.142  51.079  1.00  0.00    -0.320 OA
BRANCH  16  17
HETATM   17  C3  UNL     1      16.625   3.397  51.478  1.00  0.00     0.178 C 
BRANCH  17  18
HETATM   18  C2  UNL     1      15.646   4.034  52.404  1.00  0.00     0.022 C 
HETATM   19  C1  UNL     1      14.700   2.902  52.848  1.00  0.00     0.007 C 
ENDBRANCH  17  18
ENDBRANCH  16  17
ENDBRANCH  14  16
ENDBRANCH  13  14
ENDBRANCH  12  13
ENDBRANCH   1  12
BRANCH   3  20
HETATM   20  O4  UNL     1      20.227  -0.631  54.615  1.00  0.00    -0.360 OA
HETATM   21  H11 UNL     1      20.611  -0.975  55.497  1.00  0.00     0.217 HD
ENDBRANCH   3  20
BRANCH   8  22
HETATM   22  C13 UNL     1      26.684  -0.408  53.918  1.00  0.00    -0.002 A 
HETATM   23  C14 UNL     1      27.251  -1.308  53.053  1.00  0.00     0.014 A 
HETATM   24  C15 UNL     1      28.624  -1.407  52.999  1.00  0.00     0.001 A 
HETATM   25  C16 UNL     1      29.421  -0.615  53.799  1.00  0.00     0.000 A 
HETATM   26  C17 UNL     1      28.887   0.305  54.684  1.00  0.00     0.001 A 
HETATM   27  C18 UNL     1      27.494   0.377  54.712  1.00  0.00     0.014 A 
ENDBRANCH   8  22
TORSDOF 8
ENDMDL
MODEL 9
REMARK VINA RESULT:      -7.6      2.673      7.643
REMARK  8 active torsions:
REMARK  status: ('A' for Active; 'I' for Inactive)
REMARK    1  A    between atoms: C2_2  and  C3_3 
REMARK    2  A    between atoms: C3_3  and  O1_4 
REMARK    3  A    between atoms: O1_4  and  C4_5 
REMARK    4  A    between atoms: C4_5  and  C5_7 
REMARK    5  A    between atoms: C5_7  and  O3_8 
REMARK    6  A    between atoms: O3_8  and  C6_9 
REMARK    7  A    between atoms: C8_11  and  O4_12 
REMARK    8  A    between atoms: C12_17  and  C13_18 
ROOT
HETATM    1  C6  UNL     1      22.548   0.498  53.551  1.00  0.00     0.074 A 
HETATM    2  C7  UNL     1      23.474  -0.448  53.917  1.00  0.00     0.074 A 
HETATM    3  C8  UNL     1      24.770  -0.357  53.457  1.00  0.00     0.085 A 
HETATM    4  C9  UNL     1      25.113   0.692  52.629  1.00  0.00     0.081 A 
HETATM    5  C10 UNL     1      26.391   0.839  52.137  1.00  0.00     0.190 A 
HETATM    6  O5  UNL     1      27.263  -0.008  52.450  1.00  0.00    -0.287 OA
HETATM    7  C11 UNL     1      26.687   1.905  51.312  1.00  0.00     0.094 A 
HETATM    8  C12 UNL     1      25.746   2.846  50.955  1.00  0.00     0.090 A 
HETATM    9  O6  UNL     1      24.545   2.663  51.449  1.00  0.00    -0.309 OA
HETATM   10  C19 UNL     1      24.214   1.663  52.238  1.00  0.00     0.095 A 
HETATM   11  C20 UNL     1      22.905   1.553  52.716  1.00  0.00     0.075 A 
ENDROOT
BRANCH   1  12
HETATM   12  O3  UNL     1      21.219   0.557  53.918  1.00  0.00    -0.341 OA
BRANCH  12  13
HETATM   13  C5  UNL     1      20.220  -0.246  53.290  1.00  0.00     0.286 C 
BRANCH  13  14
HETATM   14  C4  UNL     1      19.534   0.470  52.213  1.00  0.00     0.283 C 
HETATM   15  O2  UNL     1      18.783  -0.397  51.765  1.00  0.00    -0.263 OA
BRANCH  14  16
HETATM   16  O1  UNL     1      18.897   1.107  51.223  1.00  0.00    -0.320 OA
BRANCH  16  17
HETATM   17  C3  UNL     1      19.146   1.248  49.875  1.00  0.00     0.178 C 
BRANCH  17  18
HETATM   18  C2  UNL     1      20.356   2.018  49.466  1.00  0.00     0.022 C 
HETATM   19  C1  UNL     1      21.411   0.959  49.090  1.00  0.00     0.007 C 
ENDBRANCH  17  18
ENDBRANCH  16  17
ENDBRANCH  14  16
ENDBRANCH  13  14
ENDBRANCH  12  13
ENDBRANCH   1  12
BRANCH   3  20
HETATM   20  O4  UNL     1      25.704  -1.314  53.827  1.00  0.00    -0.360 OA
HETATM   21  H11 UNL     1      25.344  -2.243  54.050  1.00  0.00     0.217 HD
ENDBRANCH   3  20
BRANCH   8  22
HETATM   22  C13 UNL     1      25.981   3.997  50.091  1.00  0.00    -0.002 A 
HETATM   23  C14 UNL     1      24.998   4.950  50.023  1.00  0.00     0.014 A 
HETATM   24  C15 UNL     1      25.189   6.049  49.215  1.00  0.00     0.001 A 
HETATM   25  C16 UNL     1      26.350   6.195  48.485  1.00  0.00     0.000 A 
HETATM   26  C17 UNL     1      27.366   5.256  48.527  1.00  0.00     0.001 A 
HETATM   27  C18 UNL     1      27.136   4.156  49.355  1.00  0.00     0.014 A 
ENDBRANCH   8  22
TORSDOF 8
ENDMDL
