MODEL 1
REMARK VINA RESULT:      -9.4      0.000      0.000
REMARK  6 active torsions:
REMARK  status: ('A' for Active; 'I' for Inactive)
REMARK    1  A    between atoms: C5_5  and  C6_6 
REMARK       I    between atoms: C6_6  and  N1_8 
REMARK    2  A    between atoms: N1_8  and  C7_9 
REMARK    3  A    between atoms: C7_9  and  C8_10 
REMARK    4  A    between atoms: C8_10  and  O2_11 
REMARK    5  A    between atoms: C10_13  and  N2_14 
REMARK    6  A    between atoms: C13_19  and  C14_20 
ROOT
HETATM    1  C1  UNL     1      21.940   1.537  49.877  1.00  0.00     0.050 C 
HETATM    2  C2  UNL     1      22.992   2.569  49.788  1.00  0.00    -0.035 A 
HETATM    3  C3  UNL     1      22.952   3.474  48.750  1.00  0.00     0.010 A 
HETATM    4  C4  UNL     1      23.908   4.451  48.586  1.00  0.00     0.017 A 
HETATM    5  C5  UNL     1      24.926   4.496  49.512  1.00  0.00     0.034 A 
HETATM    6  C9  UNL     1      24.951   3.586  50.544  1.00  0.00     0.047 A 
HETATM    7  C10 UNL     1      23.992   2.581  50.735  1.00  0.00     0.042 A 
ENDROOT
BRANCH   7   8
HETATM    8  N2  UNL     1      24.160   1.756  51.877  1.00  0.00    -0.339 N 
HETATM    9  C11 UNL     1      23.138   1.618  52.855  1.00  0.00     0.206 C 
HETATM   10  N3  UNL     1      22.758   0.662  53.669  1.00  0.00    -0.259 NA
HETATM   11  C12 UNL     1      23.446  -0.642  53.708  1.00  0.00     0.318 C 
HETATM   12  O3  UNL     1      24.809  -0.364  53.864  1.00  0.00    -0.359 OA
HETATM   13  C13 UNL     1      25.471  -0.206  52.690  1.00  0.00     0.178 C 
HETATM   14  C20 UNL     1      25.442   1.091  52.003  1.00  0.00     0.167 C 
BRANCH  13  15
HETATM   15  C14 UNL     1      26.918  -0.505  53.002  1.00  0.00     0.011 A 
HETATM   16  C15 UNL     1      27.664   0.517  53.590  1.00  0.00     0.016 A 
HETATM   17  C16 UNL     1      28.996   0.313  53.902  1.00  0.00     0.043 A 
HETATM   18  C17 UNL     1      29.549  -0.896  53.623  1.00  0.00     0.119 A 
HETATM   19  F1  UNL     1      30.871  -1.039  53.955  1.00  0.00    -0.206 F 
HETATM   20  C18 UNL     1      28.847  -1.931  53.043  1.00  0.00     0.085 A 
HETATM   21  C19 UNL     1      27.518  -1.720  52.733  1.00  0.00     0.128 A 
HETATM   22  F2  UNL     1      26.762  -2.687  52.163  1.00  0.00    -0.205 F 
ENDBRANCH  13  15
ENDBRANCH   7   8
BRANCH   5  23
HETATM   23  C6  UNL     1      25.959   5.515  49.374  1.00  0.00     0.251 C 
HETATM   24  O1  UNL     1      27.084   5.226  48.893  1.00  0.00    -0.268 OA
HETATM   25  N1  UNL     1      25.766   6.862  49.765  1.00  0.00    -0.355 N 
HETATM   26  H6  UNL     1      24.890   7.197  50.165  1.00  0.00     0.162 HD
BRANCH  25  27
HETATM   27  C7  UNL     1      26.934   7.727  49.541  1.00  0.00     0.148 C 
BRANCH  27  28
HETATM   28  C8  UNL     1      26.615   9.063  50.175  1.00  0.00     0.183 C 
BRANCH  28  29
HETATM   29  O2  UNL     1      27.520   9.419  51.157  1.00  0.00    -0.399 OA
HETATM   30  H11 UNL     1      27.202   9.283  52.067  1.00  0.00     0.209 HD
ENDBRANCH  28  29
ENDBRANCH  27  28
ENDBRANCH  25  27
ENDBRANCH   5  23
TORSDOF 6
ENDMDL
MODEL 2
REMARK VINA RESULT:      -9.2      1.710      2.063
REMARK  6 active torsions:
REMARK  status: ('A' for Active; 'I' for Inactive)
REMARK    1  A    between atoms: C5_5  and  C6_6 
REMARK       I    between atoms: C6_6  and  N1_8 
REMARK    2  A    between atoms: N1_8  and  C7_9 
REMARK    3  A    between atoms: C7_9  and  C8_10 
REMARK    4  A    between atoms: C8_10  and  O2_11 
REMARK    5  A    between atoms: C10_13  and  N2_14 
REMARK    6  A    between atoms: C13_19  and  C14_20 
ROOT
HETATM    1  C1  UNL     1      21.336   0.669  50.138  1.00  0.00     0.050 C 
HETATM    2  C2  UNL     1      22.314   1.748  49.894  1.00  0.00    -0.035 A 
HETATM    3  C3  UNL     1      22.187   2.518  48.759  1.00  0.00     0.010 A 
HETATM    4  C4  UNL     1      23.072   3.527  48.449  1.00  0.00     0.017 A 
HETATM    5  C5  UNL     1      24.108   3.746  49.328  1.00  0.00     0.034 A 
HETATM    6  C9  UNL     1      24.221   2.969  50.459  1.00  0.00     0.047 A 
HETATM    7  C10 UNL     1      23.335   1.935  50.798  1.00  0.00     0.042 A 
ENDROOT
BRANCH   7   8
HETATM    8  N2  UNL     1      23.587   1.264  52.023  1.00  0.00    -0.339 N 
HETATM    9  C11 UNL     1      22.590   1.147  53.029  1.00  0.00     0.206 C 
HETATM   10  N3  UNL     1      22.306   0.260  53.952  1.00  0.00    -0.259 NA
HETATM   11  C12 UNL     1      23.111  -0.964  54.125  1.00  0.00     0.318 C 
HETATM   12  O3  UNL     1      24.444  -0.549  54.224  1.00  0.00    -0.359 OA
HETATM   13  C13 UNL     1      25.079  -0.466  53.027  1.00  0.00     0.178 C 
HETATM   14  C20 UNL     1      24.927   0.736  52.199  1.00  0.00     0.167 C 
BRANCH  13  15
HETATM   15  C14 UNL     1      26.550  -0.596  53.344  1.00  0.00     0.011 A 
HETATM   16  C15 UNL     1      27.236  -1.653  52.745  1.00  0.00     0.016 A 
HETATM   17  C16 UNL     1      28.586  -1.833  52.991  1.00  0.00     0.043 A 
HETATM   18  C17 UNL     1      29.214  -0.961  53.822  1.00  0.00     0.119 A 
HETATM   19  F1  UNL     1      30.550  -1.190  54.027  1.00  0.00    -0.206 F 
HETATM   20  C18 UNL     1      28.573   0.095  54.433  1.00  0.00     0.085 A 
HETATM   21  C19 UNL     1      27.226   0.268  54.184  1.00  0.00     0.128 A 
HETATM   22  F2  UNL     1      26.527   1.281  54.746  1.00  0.00    -0.205 F 
ENDBRANCH  13  15
ENDBRANCH   7   8
BRANCH   5  23
HETATM   23  C6  UNL     1      25.067   4.804  49.037  1.00  0.00     0.251 C 
HETATM   24  O1  UNL     1      24.674   5.955  48.718  1.00  0.00    -0.268 OA
HETATM   25  N1  UNL     1      26.469   4.608  49.094  1.00  0.00    -0.355 N 
HETATM   26  H6  UNL     1      26.887   3.712  49.343  1.00  0.00     0.162 HD
BRANCH  25  27
HETATM   27  C7  UNL     1      27.258   5.804  48.764  1.00  0.00     0.148 C 
BRANCH  27  28
HETATM   28  C8  UNL     1      28.625   5.318  48.335  1.00  0.00     0.183 C 
BRANCH  28  29
HETATM   29  O2  UNL     1      29.643   5.819  49.125  1.00  0.00    -0.399 OA
HETATM   30  H11 UNL     1      29.397   5.961  50.057  1.00  0.00     0.209 HD
ENDBRANCH  28  29
ENDBRANCH  27  28
ENDBRANCH  25  27
ENDBRANCH   5  23
TORSDOF 6
ENDMDL
MODEL 3
REMARK VINA RESULT:      -9.1      3.522      6.860
REMARK  6 active torsions:
REMARK  status: ('A' for Active; 'I' for Inactive)
REMARK    1  A    between atoms: C5_5  and  C6_6 
REMARK       I    between atoms: C6_6  and  N1_8 
REMARK    2  A    between atoms: N1_8  and  C7_9 
REMARK    3  A    between atoms: C7_9  and  C8_10 
REMARK    4  A    between atoms: C8_10  and  O2_11 
REMARK    5  A    between atoms: C10_13  and  N2_14 
REMARK    6  A    between atoms: C13_19  and  C14_20 
ROOT
HETATM    1  C1  UNL     1      20.673   0.909  52.794  1.00  0.00     0.050 C 
HETATM    2  C2  UNL     1      22.102   0.661  53.075  1.00  0.00    -0.035 A 
HETATM    3  C3  UNL     1      22.455  -0.461  53.792  1.00  0.00     0.010 A 
HETATM    4  C4  UNL     1      23.762  -0.749  54.115  1.00  0.00     0.017 A 
HETATM    5  C5  UNL     1      24.725   0.138  53.688  1.00  0.00     0.034 A 
HETATM    6  C9  UNL     1      24.356   1.253  52.971  1.00  0.00     0.047 A 
HETATM    7  C10 UNL     1      23.033   1.572  52.630  1.00  0.00     0.042 A 
ENDROOT
BRANCH   7   8
HETATM    8  N2  UNL     1      22.846   2.746  51.854  1.00  0.00    -0.339 N 
HETATM    9  C11 UNL     1      21.551   3.274  51.599  1.00  0.00     0.206 C 
HETATM   10  N3  UNL     1      21.063   4.475  51.402  1.00  0.00    -0.259 NA
HETATM   11  C12 UNL     1      21.925   5.672  51.413  1.00  0.00     0.318 C 
HETATM   12  O3  UNL     1      22.978   5.408  50.530  1.00  0.00    -0.359 OA
HETATM   13  C13 UNL     1      24.044   4.807  51.116  1.00  0.00     0.178 C 
HETATM   14  C20 UNL     1      24.047   3.352  51.312  1.00  0.00     0.167 C 
BRANCH  13  15
HETATM   15  C14 UNL     1      25.225   5.132  50.233  1.00  0.00     0.011 A 
HETATM   16  C15 UNL     1      25.970   4.057  49.750  1.00  0.00     0.016 A 
HETATM   17  C16 UNL     1      27.067   4.282  48.936  1.00  0.00     0.043 A 
HETATM   18  C17 UNL     1      27.390   5.564  48.625  1.00  0.00     0.119 A 
HETATM   19  F1  UNL     1      28.484   5.724  47.816  1.00  0.00    -0.206 F 
HETATM   20  C18 UNL     1      26.680   6.653  49.082  1.00  0.00     0.085 A 
HETATM   21  C19 UNL     1      25.588   6.422  49.894  1.00  0.00     0.128 A 
HETATM   22  F2  UNL     1      24.840   7.439  50.382  1.00  0.00    -0.205 F 
ENDBRANCH  13  15
ENDBRANCH   7   8
BRANCH   5  23
HETATM   23  C6  UNL     1      26.121  -0.130  54.008  1.00  0.00     0.251 C 
HETATM   24  O1  UNL     1      26.644  -1.237  53.720  1.00  0.00    -0.268 OA
HETATM   25  N1  UNL     1      26.957   0.815  54.651  1.00  0.00    -0.355 N 
HETATM   26  H6  UNL     1      26.628   1.741  54.925  1.00  0.00     0.162 HD
BRANCH  25  27
HETATM   27  C7  UNL     1      28.331   0.345  54.883  1.00  0.00     0.148 C 
BRANCH  27  28
HETATM   28  C8  UNL     1      29.243   1.260  54.095  1.00  0.00     0.183 C 
BRANCH  28  29
HETATM   29  O2  UNL     1      29.636   2.372  54.815  1.00  0.00    -0.399 OA
HETATM   30  H11 UNL     1      29.205   3.202  54.542  1.00  0.00     0.209 HD
ENDBRANCH  28  29
ENDBRANCH  27  28
ENDBRANCH  25  27
ENDBRANCH   5  23
TORSDOF 6
ENDMDL
MODEL 4
REMARK VINA RESULT:      -9.0      1.949      2.409
REMARK  6 active torsions:
REMARK  status: ('A' for Active; 'I' for Inactive)
REMARK    1  A    between atoms: C5_5  and  C6_6 
REMARK       I    between atoms: C6_6  and  N1_8 
REMARK    2  A    between atoms: N1_8  and  C7_9 
REMARK    3  A    between atoms: C7_9  and  C8_10 
REMARK    4  A    between atoms: C8_10  and  O2_11 
REMARK    5  A    between atoms: C10_13  and  N2_14 
REMARK    6  A    between atoms: C13_19  and  C14_20 
ROOT
HETATM    1  C1  UNL     1      22.907   4.675  50.121  1.00  0.00     0.050 C 
HETATM    2  C2  UNL     1      24.333   4.821  49.767  1.00  0.00    -0.035 A 
HETATM    3  C3  UNL     1      24.691   5.745  48.811  1.00  0.00     0.010 A 
HETATM    4  C4  UNL     1      25.996   5.923  48.410  1.00  0.00     0.017 A 
HETATM    5  C5  UNL     1      26.952   5.133  49.008  1.00  0.00     0.034 A 
HETATM    6  C9  UNL     1      26.578   4.214  49.963  1.00  0.00     0.047 A 
HETATM    7  C10 UNL     1      25.257   4.011  50.389  1.00  0.00     0.042 A 
ENDROOT
BRANCH   7   8
HETATM    8  N2  UNL     1      25.064   3.045  51.411  1.00  0.00    -0.339 N 
HETATM    9  C11 UNL     1      23.864   2.991  52.171  1.00  0.00     0.206 C 
HETATM   10  N3  UNL     1      23.184   2.038  52.761  1.00  0.00    -0.259 NA
HETATM   11  C12 UNL     1      23.630   0.632  52.726  1.00  0.00     0.318 C 
HETATM   12  O3  UNL     1      24.964   0.631  53.150  1.00  0.00    -0.359 OA
HETATM   13  C13 UNL     1      25.857   0.795  52.141  1.00  0.00     0.178 C 
HETATM   14  C20 UNL     1      26.173   2.143  51.655  1.00  0.00     0.167 C 
BRANCH  13  15
HETATM   15  C14 UNL     1      27.148   0.198  52.648  1.00  0.00     0.011 A 
HETATM   16  C15 UNL     1      28.117   1.086  53.116  1.00  0.00     0.016 A 
HETATM   17  C16 UNL     1      29.324   0.609  53.594  1.00  0.00     0.043 A 
HETATM   18  C17 UNL     1      29.536  -0.734  53.594  1.00  0.00     0.119 A 
HETATM   19  F1  UNL     1      30.749  -1.147  54.080  1.00  0.00    -0.206 F 
HETATM   20  C18 UNL     1      28.606  -1.644  53.141  1.00  0.00     0.085 A 
HETATM   21  C19 UNL     1      27.403  -1.161  52.664  1.00  0.00     0.128 A 
HETATM   22  F2  UNL     1      26.439  -1.991  52.202  1.00  0.00    -0.205 F 
ENDBRANCH  13  15
ENDBRANCH   7   8
BRANCH   5  23
HETATM   23  C6  UNL     1      28.345   5.289  48.611  1.00  0.00     0.251 C 
HETATM   24  O1  UNL     1      28.948   4.365  48.009  1.00  0.00    -0.268 OA
HETATM   25  N1  UNL     1      29.091   6.464  48.874  1.00  0.00    -0.355 N 
HETATM   26  H6  UNL     1      28.693   7.270  49.357  1.00  0.00     0.162 HD
BRANCH  25  27
HETATM   27  C7  UNL     1      30.479   6.417  48.391  1.00  0.00     0.148 C 
BRANCH  27  28
HETATM   28  C8  UNL     1      31.368   6.544  49.609  1.00  0.00     0.183 C 
BRANCH  28  29
HETATM   29  O2  UNL     1      31.350   5.414  50.405  1.00  0.00    -0.399 OA
HETATM   30  H11 UNL     1      31.497   4.580  49.924  1.00  0.00     0.209 HD
ENDBRANCH  28  29
ENDBRANCH  27  28
ENDBRANCH  25  27
ENDBRANCH   5  23
TORSDOF 6
ENDMDL
MODEL 5
REMARK VINA RESULT:      -8.9      3.640      7.161
REMARK  6 active torsions:
REMARK  status: ('A' for Active; 'I' for Inactive)
REMARK    1  A    between atoms: C5_5  and  C6_6 
REMARK       I    between atoms: C6_6  and  N1_8 
REMARK    2  A    between atoms: N1_8  and  C7_9 
REMARK    3  A    between atoms: C7_9  and  C8_10 
REMARK    4  A    between atoms: C8_10  and  O2_11 
REMARK    5  A    between atoms: C10_13  and  N2_14 
REMARK    6  A    between atoms: C13_19  and  C14_20 
ROOT
HETATM    1  C1  UNL     1      20.063   0.139  52.222  1.00  0.00     0.050 C 
HETATM    2  C2  UNL     1      21.440   0.001  52.738  1.00  0.00    -0.035 A 
HETATM    3  C3  UNL     1      21.642  -0.663  53.928  1.00  0.00     0.010 A 
HETATM    4  C4  UNL     1      22.891  -0.814  54.486  1.00  0.00     0.017 A 
HETATM    5  C5  UNL     1      23.955  -0.268  53.803  1.00  0.00     0.034 A 
HETATM    6  C9  UNL     1      23.737   0.392  52.615  1.00  0.00     0.047 A 
HETATM    7  C10 UNL     1      22.476   0.560  52.025  1.00  0.00     0.042 A 
ENDROOT
BRANCH   7   8
HETATM    8  N2  UNL     1      22.448   1.237  50.777  1.00  0.00    -0.339 N 
HETATM    9  C11 UNL     1      21.507   0.901  49.767  1.00  0.00     0.206 C 
HETATM   10  N3  UNL     1      20.896   1.563  48.813  1.00  0.00    -0.259 NA
HETATM   11  C12 UNL     1      21.128   3.004  48.599  1.00  0.00     0.318 C 
HETATM   12  O3  UNL     1      22.515   3.172  48.516  1.00  0.00    -0.359 OA
HETATM   13  C13 UNL     1      23.110   3.396  49.715  1.00  0.00     0.178 C 
HETATM   14  C20 UNL     1      23.453   2.264  50.584  1.00  0.00     0.167 C 
BRANCH  13  15
HETATM   15  C14 UNL     1      24.401   4.111  49.396  1.00  0.00     0.011 A 
HETATM   16  C15 UNL     1      25.583   3.389  49.563  1.00  0.00     0.016 A 
HETATM   17  C16 UNL     1      26.804   3.981  49.290  1.00  0.00     0.043 A 
HETATM   18  C17 UNL     1      26.816   5.270  48.858  1.00  0.00     0.119 A 
HETATM   19  F1  UNL     1      28.053   5.802  48.603  1.00  0.00    -0.206 F 
HETATM   20  C18 UNL     1      25.671   6.016  48.680  1.00  0.00     0.085 A 
HETATM   21  C19 UNL     1      24.457   5.419  48.955  1.00  0.00     0.128 A 
HETATM   22  F2  UNL     1      23.290   6.086  48.804  1.00  0.00    -0.205 F 
ENDBRANCH  13  15
ENDBRANCH   7   8
BRANCH   5  23
HETATM   23  C6  UNL     1      25.294  -0.405  54.360  1.00  0.00     0.251 C 
HETATM   24  O1  UNL     1      25.538  -1.270  55.239  1.00  0.00    -0.268 OA
HETATM   25  N1  UNL     1      26.381   0.410  53.958  1.00  0.00    -0.355 N 
HETATM   26  H6  UNL     1      26.286   1.141  53.253  1.00  0.00     0.162 HD
BRANCH  25  27
HETATM   27  C7  UNL     1      27.646   0.109  54.644  1.00  0.00     0.148 C 
BRANCH  27  28
HETATM   28  C8  UNL     1      28.534  -0.585  53.635  1.00  0.00     0.183 C 
BRANCH  28  29
HETATM   29  O2  UNL     1      28.262  -1.935  53.521  1.00  0.00    -0.399 OA
HETATM   30  H11 UNL     1      27.830  -2.191  52.686  1.00  0.00     0.209 HD
ENDBRANCH  28  29
ENDBRANCH  27  28
ENDBRANCH  25  27
ENDBRANCH   5  23
TORSDOF 6
ENDMDL
MODEL 6
REMARK VINA RESULT:      -8.6      1.627      2.012
REMARK  6 active torsions:
REMARK  status: ('A' for Active; 'I' for Inactive)
REMARK    1  A    between atoms: C5_5  and  C6_6 
REMARK       I    between atoms: C6_6  and  N1_8 
REMARK    2  A    between atoms: N1_8  and  C7_9 
REMARK    3  A    between atoms: C7_9  and  C8_10 
REMARK    4  A    between atoms: C8_10  and  O2_11 
REMARK    5  A    between atoms: C10_13  and  N2_14 
REMARK    6  A    between atoms: C13_19  and  C14_20 
ROOT
HETATM    1  C1  UNL     1      22.649   3.130  48.603  1.00  0.00     0.050 C 
HETATM    2  C2  UNL     1      23.434   4.328  48.962  1.00  0.00    -0.035 A 
HETATM    3  C3  UNL     1      23.530   5.359  48.053  1.00  0.00     0.010 A 
HETATM    4  C4  UNL     1      24.262   6.498  48.304  1.00  0.00     0.017 A 
HETATM    5  C5  UNL     1      24.907   6.576  49.518  1.00  0.00     0.034 A 
HETATM    6  C9  UNL     1      24.801   5.538  50.415  1.00  0.00     0.047 A 
HETATM    7  C10 UNL     1      24.064   4.367  50.185  1.00  0.00     0.042 A 
ENDROOT
BRANCH   7   8
HETATM    8  N2  UNL     1      24.038   3.419  51.242  1.00  0.00    -0.339 N 
HETATM    9  C11 UNL     1      22.869   3.199  52.019  1.00  0.00     0.206 C 
HETATM   10  N3  UNL     1      22.356   2.169  52.649  1.00  0.00    -0.259 NA
HETATM   11  C12 UNL     1      23.023   0.854  52.655  1.00  0.00     0.318 C 
HETATM   12  O3  UNL     1      24.342   1.083  53.061  1.00  0.00    -0.359 OA
HETATM   13  C13 UNL     1      25.190   1.353  52.036  1.00  0.00     0.178 C 
HETATM   14  C20 UNL     1      25.280   2.717  51.501  1.00  0.00     0.167 C 
BRANCH  13  15
HETATM   15  C14 UNL     1      26.564   0.990  52.545  1.00  0.00     0.011 A 
HETATM   16  C15 UNL     1      27.399   2.042  52.922  1.00  0.00     0.016 A 
HETATM   17  C16 UNL     1      28.673   1.783  53.397  1.00  0.00     0.043 A 
HETATM   18  C17 UNL     1      29.080   0.490  53.484  1.00  0.00     0.119 A 
HETATM   19  F1  UNL     1      30.350   0.295  53.962  1.00  0.00    -0.206 F 
HETATM   20  C18 UNL     1      28.287  -0.578  53.122  1.00  0.00     0.085 A 
HETATM   21  C19 UNL     1      27.017  -0.312  52.648  1.00  0.00     0.128 A 
HETATM   22  F2  UNL     1      26.179  -1.306  52.273  1.00  0.00    -0.205 F 
ENDBRANCH  13  15
ENDBRANCH   7   8
BRANCH   5  23
HETATM   23  C6  UNL     1      25.693   7.764  49.822  1.00  0.00     0.251 C 
HETATM   24  O1  UNL     1      25.141   8.798  50.279  1.00  0.00    -0.268 OA
HETATM   25  N1  UNL     1      27.094   7.830  49.627  1.00  0.00    -0.355 N 
HETATM   26  H6  UNL     1      27.634   7.046  49.262  1.00  0.00     0.162 HD
BRANCH  25  27
HETATM   27  C7  UNL     1      27.694   9.121  49.997  1.00  0.00     0.148 C 
BRANCH  27  28
HETATM   28  C8  UNL     1      29.077   9.150  49.384  1.00  0.00     0.183 C 
BRANCH  28  29
HETATM   29  O2  UNL     1      29.992   9.833  50.163  1.00  0.00    -0.399 OA
HETATM   30  H11 UNL     1      30.828  10.046  49.709  1.00  0.00     0.209 HD
ENDBRANCH  28  29
ENDBRANCH  27  28
ENDBRANCH  25  27
ENDBRANCH   5  23
TORSDOF 6
ENDMDL
MODEL 7
REMARK VINA RESULT:      -8.6      3.627      7.012
REMARK  6 active torsions:
REMARK  status: ('A' for Active; 'I' for Inactive)
REMARK    1  A    between atoms: C5_5  and  C6_6 
REMARK       I    between atoms: C6_6  and  N1_8 
REMARK    2  A    between atoms: N1_8  and  C7_9 
REMARK    3  A    between atoms: C7_9  and  C8_10 
REMARK    4  A    between atoms: C8_10  and  O2_11 
REMARK    5  A    between atoms: C10_13  and  N2_14 
REMARK    6  A    between atoms: C13_19  and  C14_20 
ROOT
HETATM    1  C1  UNL     1      23.579  -0.863  54.772  1.00  0.00     0.050 C 
HETATM    2  C2  UNL     1      22.346  -0.628  53.993  1.00  0.00    -0.035 A 
HETATM    3  C3  UNL     1      21.158  -1.154  54.450  1.00  0.00     0.010 A 
HETATM    4  C4  UNL     1      19.972  -0.999  53.768  1.00  0.00     0.017 A 
HETATM    5  C5  UNL     1      20.012  -0.284  52.592  1.00  0.00     0.034 A 
HETATM    6  C9  UNL     1      21.206   0.236  52.149  1.00  0.00     0.047 A 
HETATM    7  C10 UNL     1      22.429   0.092  52.822  1.00  0.00     0.042 A 
ENDROOT
BRANCH   7   8
HETATM    8  N2  UNL     1      23.553   0.730  52.234  1.00  0.00    -0.339 N 
HETATM    9  C11 UNL     1      23.420   1.593  51.113  1.00  0.00     0.206 C 
HETATM   10  N3  UNL     1      24.064   2.647  50.674  1.00  0.00    -0.259 NA
HETATM   11  C12 UNL     1      25.227   3.199  51.394  1.00  0.00     0.318 C 
HETATM   12  O3  UNL     1      26.104   2.129  51.607  1.00  0.00    -0.359 OA
HETATM   13  C13 UNL     1      25.878   1.461  52.766  1.00  0.00     0.178 C 
HETATM   14  C20 UNL     1      24.842   0.423  52.823  1.00  0.00     0.167 C 
BRANCH  13  15
HETATM   15  C14 UNL     1      27.188   0.791  53.105  1.00  0.00     0.011 A 
HETATM   16  C15 UNL     1      27.267  -0.586  52.902  1.00  0.00     0.016 A 
HETATM   17  C16 UNL     1      28.437  -1.266  53.192  1.00  0.00     0.043 A 
HETATM   18  C17 UNL     1      29.493  -0.560  53.674  1.00  0.00     0.119 A 
HETATM   19  F1  UNL     1      30.624  -1.287  53.942  1.00  0.00    -0.206 F 
HETATM   20  C18 UNL     1      29.456   0.801  53.889  1.00  0.00     0.085 A 
HETATM   21  C19 UNL     1      28.285   1.473  53.598  1.00  0.00     0.128 A 
HETATM   22  F2  UNL     1      28.171   2.808  53.782  1.00  0.00    -0.205 F 
ENDBRANCH  13  15
ENDBRANCH   7   8
BRANCH   5  23
HETATM   23  C6  UNL     1      18.778  -0.097  51.840  1.00  0.00     0.251 C 
HETATM   24  O1  UNL     1      18.798   0.421  50.694  1.00  0.00    -0.268 OA
HETATM   25  N1  UNL     1      17.508  -0.476  52.340  1.00  0.00    -0.355 N 
HETATM   26  H6  UNL     1      17.386  -0.904  53.257  1.00  0.00     0.162 HD
BRANCH  25  27
HETATM   27  C7  UNL     1      16.393  -0.199  51.422  1.00  0.00     0.148 C 
BRANCH  27  28
HETATM   28  C8  UNL     1      15.120  -0.529  52.172  1.00  0.00     0.183 C 
BRANCH  28  29
HETATM   29  O2  UNL     1      15.150  -0.108  53.488  1.00  0.00    -0.399 OA
HETATM   30  H11 UNL     1      14.686   0.733  53.652  1.00  0.00     0.209 HD
ENDBRANCH  28  29
ENDBRANCH  27  28
ENDBRANCH  25  27
ENDBRANCH   5  23
TORSDOF 6
ENDMDL
MODEL 8
REMARK VINA RESULT:      -8.5      2.320      4.141
REMARK  6 active torsions:
REMARK  status: ('A' for Active; 'I' for Inactive)
REMARK    1  A    between atoms: C5_5  and  C6_6 
REMARK       I    between atoms: C6_6  and  N1_8 
REMARK    2  A    between atoms: N1_8  and  C7_9 
REMARK    3  A    between atoms: C7_9  and  C8_10 
REMARK    4  A    between atoms: C8_10  and  O2_11 
REMARK    5  A    between atoms: C10_13  and  N2_14 
REMARK    6  A    between atoms: C13_19  and  C14_20 
ROOT
HETATM    1  C1  UNL     1      22.546   2.714  49.776  1.00  0.00     0.050 C 
HETATM    2  C2  UNL     1      23.676   3.646  49.584  1.00  0.00    -0.035 A 
HETATM    3  C3  UNL     1      23.503   4.744  48.771  1.00  0.00     0.010 A 
HETATM    4  C4  UNL     1      24.515   5.645  48.523  1.00  0.00     0.017 A 
HETATM    5  C5  UNL     1      25.729   5.409  49.128  1.00  0.00     0.034 A 
HETATM    6  C9  UNL     1      25.885   4.308  49.938  1.00  0.00     0.047 A 
HETATM    7  C10 UNL     1      24.874   3.374  50.207  1.00  0.00     0.042 A 
ENDROOT
BRANCH   7   8
HETATM    8  N2  UNL     1      25.206   2.320  51.098  1.00  0.00    -0.339 N 
HETATM    9  C11 UNL     1      26.549   1.892  51.280  1.00  0.00     0.206 C 
HETATM   10  N3  UNL     1      27.231   1.379  52.275  1.00  0.00    -0.259 NA
HETATM   11  C12 UNL     1      26.609   1.119  53.587  1.00  0.00     0.318 C 
HETATM   12  O3  UNL     1      25.453   0.372  53.335  1.00  0.00    -0.359 OA
HETATM   13  C13 UNL     1      24.350   1.131  53.117  1.00  0.00     0.178 C 
HETATM   14  C20 UNL     1      24.096   1.688  51.783  1.00  0.00     0.167 C 
BRANCH  13  15
HETATM   15  C14 UNL     1      23.177   0.239  53.450  1.00  0.00     0.011 A 
HETATM   16  C15 UNL     1      22.008   0.427  52.712  1.00  0.00     0.016 A 
HETATM   17  C16 UNL     1      20.894  -0.354  52.964  1.00  0.00     0.043 A 
HETATM   18  C17 UNL     1      20.972  -1.297  53.939  1.00  0.00     0.119 A 
HETATM   19  F1  UNL     1      19.839  -2.040  54.142  1.00  0.00    -0.206 F 
HETATM   20  C18 UNL     1      22.107  -1.515  54.690  1.00  0.00     0.085 A 
HETATM   21  C19 UNL     1      23.215  -0.731  54.433  1.00  0.00     0.128 A 
HETATM   22  F2  UNL     1      24.367  -0.884  55.127  1.00  0.00    -0.205 F 
ENDBRANCH  13  15
ENDBRANCH   7   8
BRANCH   5  23
HETATM   23  C6  UNL     1      26.826   6.338  48.891  1.00  0.00     0.251 C 
HETATM   24  O1  UNL     1      27.687   6.102  48.006  1.00  0.00    -0.268 OA
HETATM   25  N1  UNL     1      26.989   7.537  49.627  1.00  0.00    -0.355 N 
HETATM   26  H6  UNL     1      26.345   7.819  50.366  1.00  0.00     0.162 HD
BRANCH  25  27
HETATM   27  C7  UNL     1      28.161   8.332  49.231  1.00  0.00     0.148 C 
BRANCH  27  28
HETATM   28  C8  UNL     1      27.988   9.702  49.850  1.00  0.00     0.183 C 
BRANCH  28  29
HETATM   29  O2  UNL     1      27.590   9.644  51.172  1.00  0.00    -0.399 OA
HETATM   30  H11 UNL     1      27.524  10.512  51.611  1.00  0.00     0.209 HD
ENDBRANCH  28  29
ENDBRANCH  27  28
ENDBRANCH  25  27
ENDBRANCH   5  23
TORSDOF 6
ENDMDL
MODEL 9
REMARK VINA RESULT:      -8.4      4.241      7.407
REMARK  6 active torsions:
REMARK  status: ('A' for Active; 'I' for Inactive)
REMARK    1  A    between atoms: C5_5  and  C6_6 
REMARK       I    between atoms: C6_6  and  N1_8 
REMARK    2  A    between atoms: N1_8  and  C7_9 
REMARK    3  A    between atoms: C7_9  and  C8_10 
REMARK    4  A    between atoms: C8_10  and  O2_11 
REMARK    5  A    between atoms: C10_13  and  N2_14 
REMARK    6  A    between atoms: C13_19  and  C14_20 
ROOT
HETATM    1  C1  UNL     1      23.980   4.038  49.253  1.00  0.00     0.050 C 
HETATM    2  C2  UNL     1      24.716   3.246  50.259  1.00  0.00    -0.035 A 
HETATM    3  C3  UNL     1      26.049   2.975  50.049  1.00  0.00     0.010 A 
HETATM    4  C4  UNL     1      26.797   2.224  50.928  1.00  0.00     0.017 A 
HETATM    5  C5  UNL     1      26.156   1.744  52.048  1.00  0.00     0.034 A 
HETATM    6  C9  UNL     1      24.823   2.025  52.245  1.00  0.00     0.047 A 
HETATM    7  C10 UNL     1      24.038   2.786  51.366  1.00  0.00     0.042 A 
ENDROOT
BRANCH   7   8
HETATM    8  N2  UNL     1      22.689   3.004  51.751  1.00  0.00    -0.339 N 
HETATM    9  C11 UNL     1      22.180   4.311  51.978  1.00  0.00     0.206 C 
HETATM   10  N3  UNL     1      21.008   4.884  51.846  1.00  0.00    -0.259 NA
HETATM   11  C12 UNL     1      19.832   4.139  51.359  1.00  0.00     0.318 C 
HETATM   12  O3  UNL     1      19.739   2.988  52.149  1.00  0.00    -0.359 OA
HETATM   13  C13 UNL     1      20.438   1.932  51.659  1.00  0.00     0.178 C 
HETATM   14  C20 UNL     1      21.876   1.817  51.931  1.00  0.00     0.167 C 
BRANCH  13  15
HETATM   15  C14 UNL     1      19.781   0.707  52.250  1.00  0.00     0.011 A 
HETATM   16  C15 UNL     1      20.470   0.046  53.267  1.00  0.00     0.016 A 
HETATM   17  C16 UNL     1      19.928  -1.084  53.853  1.00  0.00     0.043 A 
HETATM   18  C17 UNL     1      18.720  -1.524  53.415  1.00  0.00     0.119 A 
HETATM   19  F1  UNL     1      18.234  -2.646  54.033  1.00  0.00    -0.206 F 
HETATM   20  C18 UNL     1      18.007  -0.900  52.414  1.00  0.00     0.085 A 
HETATM   21  C19 UNL     1      18.554   0.227  51.833  1.00  0.00     0.128 A 
HETATM   22  F2  UNL     1      17.915   0.895  50.845  1.00  0.00    -0.205 F 
ENDBRANCH  13  15
ENDBRANCH   7   8
BRANCH   5  23
HETATM   23  C6  UNL     1      26.911   0.944  53.004  1.00  0.00     0.251 C 
HETATM   24  O1  UNL     1      27.166   1.389  54.152  1.00  0.00    -0.268 OA
HETATM   25  N1  UNL     1      27.396  -0.353  52.707  1.00  0.00    -0.355 N 
HETATM   26  H6  UNL     1      27.242  -0.802  51.805  1.00  0.00     0.162 HD
BRANCH  25  27
HETATM   27  C7  UNL     1      28.134  -0.987  53.810  1.00  0.00     0.148 C 
BRANCH  27  28
HETATM   28  C8  UNL     1      29.094  -1.973  53.181  1.00  0.00     0.183 C 
BRANCH  28  29
HETATM   29  O2  UNL     1      28.775  -3.287  53.467  1.00  0.00    -0.399 OA
HETATM   30  H11 UNL     1      29.385  -3.942  53.082  1.00  0.00     0.209 HD
ENDBRANCH  28  29
ENDBRANCH  27  28
ENDBRANCH  25  27
ENDBRANCH   5  23
TORSDOF 6
ENDMDL
