MODEL 1
REMARK VINA RESULT:      -7.9      0.000      0.000
REMARK  6 active torsions:
REMARK  status: ('A' for Active; 'I' for Inactive)
REMARK    1  A    between atoms: C5_5  and  O1_6 
REMARK    2  A    between atoms: O1_6  and  N1_7 
REMARK    3  A    between atoms: C7_9  and  C8_10 
REMARK    4  A    between atoms: C8_10  and  N4_14 
REMARK    5  A    between atoms: N2_11  and  C9_12 
REMARK    6  A    between atoms: N4_14  and  C11_16 
ROOT
HETATM    1  C8  UNL     1      26.014   1.953  52.282  1.00  0.00     0.142 C 
HETATM    2  N2  UNL     1      25.636   2.555  51.221  1.00  0.00    -0.224 NA
ENDROOT
BRANCH   1   3
HETATM    3  C7  UNL     1      27.222   1.339  52.788  1.00  0.00     0.019 A 
HETATM    4  C2  UNL     1      27.412  -0.091  52.728  1.00  0.00    -0.032 A 
HETATM    5  C1  UNL     1      26.545  -0.933  52.232  1.00  0.00     0.024 C 
HETATM    6  C3  UNL     1      28.647  -0.650  53.252  1.00  0.00     0.010 A 
HETATM    7  C4  UNL     1      29.502   0.229  53.748  1.00  0.00     0.011 A 
HETATM    8  C5  UNL     1      29.379   1.700  53.845  1.00  0.00     0.192 A 
HETATM    9  C6  UNL     1      28.107   2.166  53.292  1.00  0.00     0.027 A 
BRANCH   8  10
HETATM   10  O1  UNL     1      29.415   2.060  55.210  1.00  0.00    -0.295 OA
BRANCH  10  11
HETATM   11  N1  UNL     1      30.533   2.777  55.466  1.00  0.00    -0.214 NA
HETATM   12  H6  UNL     1      31.375   2.274  55.120  1.00  0.00     0.150 HD
HETATM   13  H7  UNL     1      30.619   2.790  56.517  1.00  0.00     0.150 HD
ENDBRANCH  10  11
ENDBRANCH   8  10
ENDBRANCH   1   3
BRANCH   1  14
HETATM   14  N4  UNL     1      24.693   2.157  52.756  1.00  0.00    -0.335 N 
HETATM   15  C10 UNL     1      24.172   3.486  53.125  1.00  0.00     0.158 C 
BRANCH  14  16
HETATM   16  C11 UNL     1      23.756   1.067  52.910  1.00  0.00     0.035 A 
HETATM   17  C12 UNL     1      22.738   0.939  51.991  1.00  0.00     0.029 A 
HETATM   18  C13 UNL     1      21.877  -0.142  52.214  1.00  0.00     0.002 A 
HETATM   19  C14 UNL     1      22.032  -1.018  53.270  1.00  0.00     0.000 A 
HETATM   20  C15 UNL     1      23.073  -0.842  54.162  1.00  0.00     0.002 A 
HETATM   21  C16 UNL     1      23.946   0.215  53.978  1.00  0.00     0.029 A 
ENDBRANCH  14  16
ENDBRANCH   1  14
BRANCH   2  22
HETATM   22  C9  UNL     1      26.400   2.831  50.071  1.00  0.00     0.225 C 
HETATM   23  N3  UNL     1      27.022   3.945  50.265  1.00  0.00    -0.293 NA
HETATM   24  H10 UNL     1      26.938   4.501  51.134  1.00  0.00     0.187 HD
ENDBRANCH   2  22
TORSDOF 6
ENDMDL
MODEL 2
REMARK VINA RESULT:      -7.7      2.326      5.155
REMARK  6 active torsions:
REMARK  status: ('A' for Active; 'I' for Inactive)
REMARK    1  A    between atoms: C5_5  and  O1_6 
REMARK    2  A    between atoms: O1_6  and  N1_7 
REMARK    3  A    between atoms: C7_9  and  C8_10 
REMARK    4  A    between atoms: C8_10  and  N4_14 
REMARK    5  A    between atoms: N2_11  and  C9_12 
REMARK    6  A    between atoms: N4_14  and  C11_16 
ROOT
HETATM    1  C8  UNL     1      24.287   3.141  51.266  1.00  0.00     0.142 C 
HETATM    2  N2  UNL     1      23.614   4.211  51.456  1.00  0.00    -0.224 NA
ENDROOT
BRANCH   1   3
HETATM    3  C7  UNL     1      24.777   2.034  52.056  1.00  0.00     0.019 A 
HETATM    4  C2  UNL     1      23.905   0.947  52.435  1.00  0.00    -0.032 A 
HETATM    5  C1  UNL     1      22.641   0.865  52.114  1.00  0.00     0.024 C 
HETATM    6  C3  UNL     1      24.454  -0.139  53.229  1.00  0.00     0.010 A 
HETATM    7  C4  UNL     1      25.735  -0.026  53.537  1.00  0.00     0.011 A 
HETATM    8  C5  UNL     1      26.688   1.051  53.189  1.00  0.00     0.192 A 
HETATM    9  C6  UNL     1      26.044   2.095  52.391  1.00  0.00     0.027 A 
BRANCH   8  10
HETATM   10  O1  UNL     1      27.146   1.644  54.386  1.00  0.00    -0.295 OA
BRANCH  10  11
HETATM   11  N1  UNL     1      27.960   2.686  54.100  1.00  0.00    -0.214 NA
HETATM   12  H6  UNL     1      28.634   2.845  54.875  1.00  0.00     0.150 HD
HETATM   13  H7  UNL     1      27.331   3.532  54.089  1.00  0.00     0.150 HD
ENDBRANCH  10  11
ENDBRANCH   8  10
ENDBRANCH   1   3
BRANCH   1  14
HETATM   14  N4  UNL     1      24.344   3.532  49.904  1.00  0.00    -0.335 N 
HETATM   15  C10 UNL     1      23.326   3.134  48.914  1.00  0.00     0.158 C 
BRANCH  14  16
HETATM   16  C11 UNL     1      25.413   4.357  49.386  1.00  0.00     0.035 A 
HETATM   17  C12 UNL     1      26.678   3.818  49.301  1.00  0.00     0.029 A 
HETATM   18  C13 UNL     1      27.652   4.684  48.790  1.00  0.00     0.002 A 
HETATM   19  C14 UNL     1      27.373   5.979  48.398  1.00  0.00     0.000 A 
HETATM   20  C15 UNL     1      26.084   6.466  48.506  1.00  0.00     0.002 A 
HETATM   21  C16 UNL     1      25.093   5.643  49.007  1.00  0.00     0.029 A 
ENDBRANCH  14  16
ENDBRANCH   1  14
BRANCH   2  22
HETATM   22  C9  UNL     1      23.080   4.684  52.669  1.00  0.00     0.225 C 
HETATM   23  N3  UNL     1      23.947   5.477  53.203  1.00  0.00    -0.293 NA
HETATM   24  H10 UNL     1      24.864   5.694  52.773  1.00  0.00     0.187 HD
ENDBRANCH   2  22
TORSDOF 6
ENDMDL
MODEL 3
REMARK VINA RESULT:      -7.5      2.488      5.663
REMARK  6 active torsions:
REMARK  status: ('A' for Active; 'I' for Inactive)
REMARK    1  A    between atoms: C5_5  and  O1_6 
REMARK    2  A    between atoms: O1_6  and  N1_7 
REMARK    3  A    between atoms: C7_9  and  C8_10 
REMARK    4  A    between atoms: C8_10  and  N4_14 
REMARK    5  A    between atoms: N2_11  and  C9_12 
REMARK    6  A    between atoms: N4_14  and  C11_16 
ROOT
HETATM    1  C8  UNL     1      24.410   2.447  51.682  1.00  0.00     0.142 C 
HETATM    2  N2  UNL     1      24.590   3.705  51.815  1.00  0.00    -0.224 NA
ENDROOT
BRANCH   1   3
HETATM    3  C7  UNL     1      23.315   1.508  51.783  1.00  0.00     0.019 A 
HETATM    4  C2  UNL     1      22.359   1.361  50.710  1.00  0.00    -0.032 A 
HETATM    5  C1  UNL     1      22.391   2.036  49.592  1.00  0.00     0.024 C 
HETATM    6  C3  UNL     1      21.280   0.402  50.868  1.00  0.00     0.010 A 
HETATM    7  C4  UNL     1      21.275  -0.264  52.012  1.00  0.00     0.011 A 
HETATM    8  C5  UNL     1      22.213  -0.169  53.152  1.00  0.00     0.192 A 
HETATM    9  C6  UNL     1      23.262   0.819  52.898  1.00  0.00     0.027 A 
BRANCH   8  10
HETATM   10  O1  UNL     1      21.489   0.251  54.289  1.00  0.00    -0.295 OA
BRANCH  10  11
HETATM   11  N1  UNL     1      21.143  -0.823  55.035  1.00  0.00    -0.214 NA
HETATM   12  H6  UNL     1      21.176  -0.589  56.047  1.00  0.00     0.150 HD
HETATM   13  H7  UNL     1      21.910  -1.528  54.878  1.00  0.00     0.150 HD
ENDBRANCH  10  11
ENDBRANCH   8  10
ENDBRANCH   1   3
BRANCH   1  14
HETATM   14  N4  UNL     1      25.795   2.376  51.384  1.00  0.00    -0.335 N 
HETATM   15  C10 UNL     1      26.416   3.130  50.280  1.00  0.00     0.158 C 
BRANCH  14  16
HETATM   16  C11 UNL     1      26.703   1.554  52.152  1.00  0.00     0.035 A 
HETATM   17  C12 UNL     1      26.627   0.185  52.016  1.00  0.00     0.029 A 
HETATM   18  C13 UNL     1      27.541  -0.535  52.794  1.00  0.00     0.002 A 
HETATM   19  C14 UNL     1      28.453   0.074  53.634  1.00  0.00     0.000 A 
HETATM   20  C15 UNL     1      28.485   1.452  53.731  1.00  0.00     0.002 A 
HETATM   21  C16 UNL     1      27.598   2.200  52.979  1.00  0.00     0.029 A 
ENDBRANCH  14  16
ENDBRANCH   1  14
BRANCH   2  22
HETATM   22  C9  UNL     1      23.630   4.678  52.149  1.00  0.00     0.225 C 
HETATM   23  N3  UNL     1      23.930   5.150  53.312  1.00  0.00    -0.293 NA
HETATM   24  H10 UNL     1      24.747   4.833  53.863  1.00  0.00     0.187 HD
ENDBRANCH   2  22
TORSDOF 6
ENDMDL
MODEL 4
REMARK VINA RESULT:      -7.3      1.834      3.691
REMARK  6 active torsions:
REMARK  status: ('A' for Active; 'I' for Inactive)
REMARK    1  A    between atoms: C5_5  and  O1_6 
REMARK    2  A    between atoms: O1_6  and  N1_7 
REMARK    3  A    between atoms: C7_9  and  C8_10 
REMARK    4  A    between atoms: C8_10  and  N4_14 
REMARK    5  A    between atoms: N2_11  and  C9_12 
REMARK    6  A    between atoms: N4_14  and  C11_16 
ROOT
HETATM    1  C8  UNL     1      25.088   0.006  53.603  1.00  0.00     0.142 C 
HETATM    2  N2  UNL     1      24.214  -0.506  54.381  1.00  0.00    -0.224 NA
ENDROOT
BRANCH   1   3
HETATM    3  C7  UNL     1      26.530   0.051  53.500  1.00  0.00     0.019 A 
HETATM    4  C2  UNL     1      27.278  -1.083  53.011  1.00  0.00    -0.032 A 
HETATM    5  C1  UNL     1      26.744  -2.213  52.631  1.00  0.00     0.024 C 
HETATM    6  C3  UNL     1      28.724  -0.978  52.929  1.00  0.00     0.010 A 
HETATM    7  C4  UNL     1      29.233   0.178  53.323  1.00  0.00     0.011 A 
HETATM    8  C5  UNL     1      28.537   1.379  53.834  1.00  0.00     0.192 A 
HETATM    9  C6  UNL     1      27.088   1.177  53.877  1.00  0.00     0.027 A 
BRANCH   8  10
HETATM   10  O1  UNL     1      28.979   1.621  55.153  1.00  0.00    -0.295 OA
BRANCH  10  11
HETATM   11  N1  UNL     1      30.075   2.413  55.131  1.00  0.00    -0.214 NA
HETATM   12  H6  UNL     1      29.987   3.137  54.390  1.00  0.00     0.150 HD
HETATM   13  H7  UNL     1      30.865   1.784  54.826  1.00  0.00     0.150 HD
ENDBRANCH  10  11
ENDBRANCH   8  10
ENDBRANCH   1   3
BRANCH   1  14
HETATM   14  N4  UNL     1      23.992   0.524  52.866  1.00  0.00    -0.335 N 
HETATM   15  C10 UNL     1      22.742  -0.229  52.657  1.00  0.00     0.158 C 
BRANCH  14  16
HETATM   16  C11 UNL     1      24.025   1.838  52.264  1.00  0.00     0.035 A 
HETATM   17  C12 UNL     1      24.311   1.940  50.921  1.00  0.00     0.029 A 
HETATM   18  C13 UNL     1      24.323   3.247  50.420  1.00  0.00     0.002 A 
HETATM   19  C14 UNL     1      24.066   4.353  51.206  1.00  0.00     0.000 A 
HETATM   20  C15 UNL     1      23.784   4.191  52.549  1.00  0.00     0.002 A 
HETATM   21  C16 UNL     1      23.763   2.916  53.084  1.00  0.00     0.029 A 
ENDBRANCH  14  16
ENDBRANCH   1  14
BRANCH   2  22
HETATM   22  C9  UNL     1      24.439  -1.286  55.530  1.00  0.00     0.225 C 
HETATM   23  N3  UNL     1      23.299  -1.732  55.939  1.00  0.00    -0.293 NA
HETATM   24  H10 UNL     1      22.402  -1.523  55.466  1.00  0.00     0.187 HD
ENDBRANCH   2  22
TORSDOF 6
ENDMDL
MODEL 5
REMARK VINA RESULT:      -7.0      2.270      2.953
REMARK  6 active torsions:
REMARK  status: ('A' for Active; 'I' for Inactive)
REMARK    1  A    between atoms: C5_5  and  O1_6 
REMARK    2  A    between atoms: O1_6  and  N1_7 
REMARK    3  A    between atoms: C7_9  and  C8_10 
REMARK    4  A    between atoms: C8_10  and  N4_14 
REMARK    5  A    between atoms: N2_11  and  C9_12 
REMARK    6  A    between atoms: N4_14  and  C11_16 
ROOT
HETATM    1  C8  UNL     1      24.031   2.085  52.456  1.00  0.00     0.142 C 
HETATM    2  N2  UNL     1      23.287   3.123  52.411  1.00  0.00    -0.224 NA
ENDROOT
BRANCH   1   3
HETATM    3  C7  UNL     1      25.368   1.748  52.892  1.00  0.00     0.019 A 
HETATM    4  C2  UNL     1      26.513   2.010  52.053  1.00  0.00    -0.032 A 
HETATM    5  C1  UNL     1      26.453   2.554  50.866  1.00  0.00     0.024 C 
HETATM    6  C3  UNL     1      27.832   1.650  52.545  1.00  0.00     0.010 A 
HETATM    7  C4  UNL     1      27.858   1.101  53.748  1.00  0.00     0.011 A 
HETATM    8  C5  UNL     1      26.735   0.802  54.663  1.00  0.00     0.192 A 
HETATM    9  C6  UNL     1      25.453   1.200  54.082  1.00  0.00     0.027 A 
BRANCH   8  10
HETATM   10  O1  UNL     1      26.697  -0.594  54.878  1.00  0.00    -0.295 OA
BRANCH  10  11
HETATM   11  N1  UNL     1      25.538  -0.933  55.488  1.00  0.00    -0.214 NA
HETATM   12  H6  UNL     1      25.550  -0.636  56.484  1.00  0.00     0.150 HD
HETATM   13  H7  UNL     1      25.531  -1.987  55.502  1.00  0.00     0.150 HD
ENDBRANCH  10  11
ENDBRANCH   8  10
ENDBRANCH   1   3
BRANCH   1  14
HETATM   14  N4  UNL     1      22.938   1.392  51.875  1.00  0.00    -0.335 N 
HETATM   15  C10 UNL     1      22.556   1.544  50.460  1.00  0.00     0.158 C 
BRANCH  14  16
HETATM   16  C11 UNL     1      22.116   0.480  52.638  1.00  0.00     0.035 A 
HETATM   17  C12 UNL     1      20.786   0.789  52.822  1.00  0.00     0.029 A 
HETATM   18  C13 UNL     1      20.063  -0.147  53.571  1.00  0.00     0.002 A 
HETATM   19  C14 UNL     1      20.633  -1.295  54.087  1.00  0.00     0.000 A 
HETATM   20  C15 UNL     1      21.973  -1.554  53.870  1.00  0.00     0.002 A 
HETATM   21  C16 UNL     1      22.723  -0.654  53.135  1.00  0.00     0.029 A 
ENDBRANCH  14  16
ENDBRANCH   1  14
BRANCH   2  22
HETATM   22  C9  UNL     1      23.607   4.427  52.833  1.00  0.00     0.225 C 
HETATM   23  N3  UNL     1      24.093   5.065  51.822  1.00  0.00    -0.293 NA
HETATM   24  H10 UNL     1      24.208   4.644  50.883  1.00  0.00     0.187 HD
ENDBRANCH   2  22
TORSDOF 6
ENDMDL
MODEL 6
REMARK VINA RESULT:      -6.9      2.471      6.052
REMARK  6 active torsions:
REMARK  status: ('A' for Active; 'I' for Inactive)
REMARK    1  A    between atoms: C5_5  and  O1_6 
REMARK    2  A    between atoms: O1_6  and  N1_7 
REMARK    3  A    between atoms: C7_9  and  C8_10 
REMARK    4  A    between atoms: C8_10  and  N4_14 
REMARK    5  A    between atoms: N2_11  and  C9_12 
REMARK    6  A    between atoms: N4_14  and  C11_16 
ROOT
HETATM    1  C8  UNL     1      25.027  -0.289  53.623  1.00  0.00     0.142 C 
HETATM    2  N2  UNL     1      25.288  -0.997  54.654  1.00  0.00    -0.224 NA
ENDROOT
BRANCH   1   3
HETATM    3  C7  UNL     1      23.946   0.544  53.146  1.00  0.00     0.019 A 
HETATM    4  C2  UNL     1      22.639  -0.010  52.883  1.00  0.00    -0.032 A 
HETATM    5  C1  UNL     1      22.322  -1.268  53.044  1.00  0.00     0.024 C 
HETATM    6  C3  UNL     1      21.592   0.876  52.406  1.00  0.00     0.010 A 
HETATM    7  C4  UNL     1      21.945   2.142  52.253  1.00  0.00     0.011 A 
HETATM    8  C5  UNL     1      23.256   2.781  52.499  1.00  0.00     0.192 A 
HETATM    9  C6  UNL     1      24.242   1.811  52.977  1.00  0.00     0.027 A 
BRANCH   8  10
HETATM   10  O1  UNL     1      23.728   3.311  51.278  1.00  0.00    -0.295 OA
BRANCH  10  11
HETATM   11  N1  UNL     1      24.761   4.153  51.511  1.00  0.00    -0.214 NA
HETATM   12  H6  UNL     1      25.442   4.119  50.727  1.00  0.00     0.150 HD
HETATM   13  H7  UNL     1      25.263   3.750  52.346  1.00  0.00     0.150 HD
ENDBRANCH  10  11
ENDBRANCH   8  10
ENDBRANCH   1   3
BRANCH   1  14
HETATM   14  N4  UNL     1      26.299  -0.692  53.142  1.00  0.00    -0.335 N 
HETATM   15  C10 UNL     1      26.500  -1.908  52.333  1.00  0.00     0.158 C 
BRANCH  14  16
HETATM   16  C11 UNL     1      27.498   0.070  53.411  1.00  0.00     0.035 A 
HETATM   17  C12 UNL     1      28.679  -0.610  53.616  1.00  0.00     0.029 A 
HETATM   18  C13 UNL     1      29.789   0.203  53.870  1.00  0.00     0.002 A 
HETATM   19  C14 UNL     1      29.714   1.582  53.913  1.00  0.00     0.000 A 
HETATM   20  C15 UNL     1      28.502   2.211  53.700  1.00  0.00     0.002 A 
HETATM   21  C16 UNL     1      27.380   1.444  53.446  1.00  0.00     0.029 A 
ENDBRANCH  14  16
ENDBRANCH   1  14
BRANCH   2  22
HETATM   22  C9  UNL     1      24.475  -1.199  55.785  1.00  0.00     0.225 C 
HETATM   23  N3  UNL     1      25.245  -1.318  56.813  1.00  0.00    -0.293 NA
HETATM   24  H10 UNL     1      26.278  -1.267  56.762  1.00  0.00     0.187 HD
ENDBRANCH   2  22
TORSDOF 6
ENDMDL
MODEL 7
REMARK VINA RESULT:      -6.8      2.465      5.081
REMARK  6 active torsions:
REMARK  status: ('A' for Active; 'I' for Inactive)
REMARK    1  A    between atoms: C5_5  and  O1_6 
REMARK    2  A    between atoms: O1_6  and  N1_7 
REMARK    3  A    between atoms: C7_9  and  C8_10 
REMARK    4  A    between atoms: C8_10  and  N4_14 
REMARK    5  A    between atoms: N2_11  and  C9_12 
REMARK    6  A    between atoms: N4_14  and  C11_16 
ROOT
HETATM    1  C8  UNL     1      24.105   2.497  51.218  1.00  0.00     0.142 C 
HETATM    2  N2  UNL     1      23.302   2.720  50.251  1.00  0.00    -0.224 NA
ENDROOT
BRANCH   1   3
HETATM    3  C7  UNL     1      24.563   1.360  51.984  1.00  0.00     0.019 A 
HETATM    4  C2  UNL     1      23.692   0.695  52.925  1.00  0.00    -0.032 A 
HETATM    5  C1  UNL     1      22.456   1.046  53.164  1.00  0.00     0.024 C 
HETATM    6  C3  UNL     1      24.208  -0.443  53.666  1.00  0.00     0.010 A 
HETATM    7  C4  UNL     1      25.462  -0.771  53.401  1.00  0.00     0.011 A 
HETATM    8  C5  UNL     1      26.412  -0.143  52.458  1.00  0.00     0.192 A 
HETATM    9  C6  UNL     1      25.802   0.990  51.761  1.00  0.00     0.027 A 
BRANCH   8  10
HETATM   10  O1  UNL     1      27.513   0.346  53.196  1.00  0.00    -0.295 OA
BRANCH  10  11
HETATM   11  N1  UNL     1      27.837  -0.532  54.173  1.00  0.00    -0.214 NA
HETATM   12  H6  UNL     1      27.001  -1.076  54.465  1.00  0.00     0.150 HD
HETATM   13  H7  UNL     1      28.097   0.063  55.004  1.00  0.00     0.150 HD
ENDBRANCH  10  11
ENDBRANCH   8  10
ENDBRANCH   1   3
BRANCH   1  14
HETATM   14  N4  UNL     1      24.355   3.893  51.208  1.00  0.00    -0.335 N 
HETATM   15  C10 UNL     1      23.666   4.836  52.108  1.00  0.00     0.158 C 
BRANCH  14  16
HETATM   16  C11 UNL     1      25.314   4.494  50.309  1.00  0.00     0.035 A 
HETATM   17  C12 UNL     1      26.348   3.717  49.833  1.00  0.00     0.029 A 
HETATM   18  C13 UNL     1      27.229   4.377  48.969  1.00  0.00     0.002 A 
HETATM   19  C14 UNL     1      27.080   5.703  48.614  1.00  0.00     0.000 A 
HETATM   20  C15 UNL     1      26.023   6.435  49.122  1.00  0.00     0.002 A 
HETATM   21  C16 UNL     1      25.129   5.821  49.980  1.00  0.00     0.029 A 
ENDBRANCH  14  16
ENDBRANCH   1  14
BRANCH   2  22
HETATM   22  C9  UNL     1      22.516   1.783  49.554  1.00  0.00     0.225 C 
HETATM   23  N3  UNL     1      21.275   2.073  49.759  1.00  0.00    -0.293 NA
HETATM   24  H10 UNL     1      20.964   2.868  50.345  1.00  0.00     0.187 HD
ENDBRANCH   2  22
TORSDOF 6
ENDMDL
MODEL 8
REMARK VINA RESULT:      -6.7      2.506      4.775
REMARK  6 active torsions:
REMARK  status: ('A' for Active; 'I' for Inactive)
REMARK    1  A    between atoms: C5_5  and  O1_6 
REMARK    2  A    between atoms: O1_6  and  N1_7 
REMARK    3  A    between atoms: C7_9  and  C8_10 
REMARK    4  A    between atoms: C8_10  and  N4_14 
REMARK    5  A    between atoms: N2_11  and  C9_12 
REMARK    6  A    between atoms: N4_14  and  C11_16 
ROOT
HETATM    1  C8  UNL     1      25.578   1.498  52.636  1.00  0.00     0.142 C 
HETATM    2  N2  UNL     1      26.589   1.448  53.416  1.00  0.00    -0.224 NA
ENDROOT
BRANCH   1   3
HETATM    3  C7  UNL     1      24.885   2.494  51.850  1.00  0.00     0.019 A 
HETATM    4  C2  UNL     1      25.412   2.942  50.582  1.00  0.00    -0.032 A 
HETATM    5  C1  UNL     1      26.522   2.507  50.047  1.00  0.00     0.024 C 
HETATM    6  C3  UNL     1      24.671   3.944  49.836  1.00  0.00     0.010 A 
HETATM    7  C4  UNL     1      23.553   4.364  50.406  1.00  0.00     0.011 A 
HETATM    8  C5  UNL     1      22.952   3.957  51.695  1.00  0.00     0.192 A 
HETATM    9  C6  UNL     1      23.768   2.946  52.368  1.00  0.00     0.027 A 
BRANCH   8  10
HETATM   10  O1  UNL     1      22.889   5.091  52.534  1.00  0.00    -0.295 OA
BRANCH  10  11
HETATM   11  N1  UNL     1      22.268   6.105  51.889  1.00  0.00    -0.214 NA
HETATM   12  H6  UNL     1      22.115   6.906  52.533  1.00  0.00     0.150 HD
HETATM   13  H7  UNL     1      21.308   5.737  51.655  1.00  0.00     0.150 HD
ENDBRANCH  10  11
ENDBRANCH   8  10
ENDBRANCH   1   3
BRANCH   1  14
HETATM   14  N4  UNL     1      25.433   0.110  52.889  1.00  0.00    -0.335 N 
HETATM   15  C10 UNL     1      26.425  -0.891  52.455  1.00  0.00     0.158 C 
BRANCH  14  16
HETATM   16  C11 UNL     1      24.293  -0.425  53.599  1.00  0.00     0.035 A 
HETATM   17  C12 UNL     1      24.477  -0.899  54.879  1.00  0.00     0.029 A 
HETATM   18  C13 UNL     1      23.322  -1.398  55.493  1.00  0.00     0.002 A 
HETATM   19  C14 UNL     1      22.090  -1.416  54.869  1.00  0.00     0.000 A 
HETATM   20  C15 UNL     1      21.964  -0.927  53.583  1.00  0.00     0.002 A 
HETATM   21  C16 UNL     1      23.081  -0.425  52.941  1.00  0.00     0.029 A 
ENDBRANCH  14  16
ENDBRANCH   1  14
BRANCH   2  22
HETATM   22  C9  UNL     1      27.440   2.505  53.787  1.00  0.00     0.225 C 
HETATM   23  N3  UNL     1      28.441   2.516  52.973  1.00  0.00    -0.293 NA
HETATM   24  H10 UNL     1      28.553   1.840  52.197  1.00  0.00     0.187 HD
ENDBRANCH   2  22
TORSDOF 6
ENDMDL
MODEL 9
REMARK VINA RESULT:      -6.6      3.427      5.275
REMARK  6 active torsions:
REMARK  status: ('A' for Active; 'I' for Inactive)
REMARK    1  A    between atoms: C5_5  and  O1_6 
REMARK    2  A    between atoms: O1_6  and  N1_7 
REMARK    3  A    between atoms: C7_9  and  C8_10 
REMARK    4  A    between atoms: C8_10  and  N4_14 
REMARK    5  A    between atoms: N2_11  and  C9_12 
REMARK    6  A    between atoms: N4_14  and  C11_16 
ROOT
HETATM    1  C8  UNL     1      23.747   3.412  50.167  1.00  0.00     0.142 C 
HETATM    2  N2  UNL     1      22.878   2.594  49.712  1.00  0.00    -0.224 NA
ENDROOT
BRANCH   1   3
HETATM    3  C7  UNL     1      24.744   4.314  49.636  1.00  0.00     0.019 A 
HETATM    4  C2  UNL     1      26.111   3.887  49.448  1.00  0.00    -0.032 A 
HETATM    5  C1  UNL     1      26.558   2.692  49.730  1.00  0.00     0.024 C 
HETATM    6  C3  UNL     1      27.068   4.838  48.911  1.00  0.00     0.010 A 
HETATM    7  C4  UNL     1      26.584   6.038  48.638  1.00  0.00     0.011 A 
HETATM    8  C5  UNL     1      25.206   6.549  48.802  1.00  0.00     0.192 A 
HETATM    9  C6  UNL     1      24.318   5.521  49.347  1.00  0.00     0.027 A 
BRANCH   8  10
HETATM   10  O1  UNL     1      25.236   7.623  49.719  1.00  0.00    -0.295 OA
BRANCH  10  11
HETATM   11  N1  UNL     1      26.122   7.358  50.707  1.00  0.00    -0.214 NA
HETATM   12  H6  UNL     1      25.786   7.747  51.610  1.00  0.00     0.150 HD
HETATM   13  H7  UNL     1      26.985   7.910  50.460  1.00  0.00     0.150 HD
ENDBRANCH  10  11
ENDBRANCH   8  10
ENDBRANCH   1   3
BRANCH   1  14
HETATM   14  N4  UNL     1      23.290   3.034  51.455  1.00  0.00    -0.335 N 
HETATM   15  C10 UNL     1      21.999   3.482  52.010  1.00  0.00     0.158 C 
BRANCH  14  16
HETATM   16  C11 UNL     1      24.063   2.173  52.321  1.00  0.00     0.035 A 
HETATM   17  C12 UNL     1      25.101   2.724  53.042  1.00  0.00     0.029 A 
HETATM   18  C13 UNL     1      25.797   1.821  53.854  1.00  0.00     0.002 A 
HETATM   19  C14 UNL     1      25.474   0.481  53.933  1.00  0.00     0.000 A 
HETATM   20  C15 UNL     1      24.422  -0.018  53.188  1.00  0.00     0.002 A 
HETATM   21  C16 UNL     1      23.709   0.841  52.372  1.00  0.00     0.029 A 
ENDBRANCH  14  16
ENDBRANCH   1  14
BRANCH   2  22
HETATM   22  C9  UNL     1      22.605   2.293  48.364  1.00  0.00     0.225 C 
HETATM   23  N3  UNL     1      21.721   1.354  48.337  1.00  0.00    -0.293 NA
HETATM   24  H10 UNL     1      21.314   0.928  49.188  1.00  0.00     0.187 HD
ENDBRANCH   2  22
TORSDOF 6
ENDMDL
