MODEL 1
REMARK VINA RESULT:      -6.7      0.000      0.000
REMARK  11 active torsions:
REMARK  status: ('A' for Active; 'I' for Inactive)
REMARK    1  A    between atoms: C2_2  and  N1_3 
REMARK    2  A    between atoms: N1_3  and  C4_5 
REMARK    3  A    between atoms: C4_5  and  C5_6 
REMARK    4  A    between atoms: C5_6  and  C6_8 
REMARK    5  A    between atoms: C6_8  and  C7_9 
REMARK    6  A    between atoms: C7_9  and  O2_10 
REMARK    7  A    between atoms: C7_9  and  C8_11 
REMARK    8  A    between atoms: C8_11  and  O3_15 
REMARK    9  A    between atoms: C9_12  and  C10_13 
REMARK   10  A    between atoms: O3_15  and  C12_16 
REMARK   11  A    between atoms: C12_16  and  C13_17 
ROOT
HETATM    1  C8  UNL     1      25.708   2.404  51.464  1.00  0.00     0.072 C 
HETATM    2  C9  UNL     1      26.043   3.171  50.429  1.00  0.00     0.008 C 
ENDROOT
BRANCH   1   3
HETATM    3  C7  UNL     1      26.506   1.552  52.341  1.00  0.00     0.181 C 
BRANCH   3   4
HETATM    4  C6  UNL     1      26.077   1.623  53.804  1.00  0.00     0.118 C 
BRANCH   4   5
HETATM    5  C5  UNL     1      26.682   0.432  54.447  1.00  0.00     0.147 C 
HETATM    6  O1  UNL     1      26.353  -0.705  54.673  1.00  0.00    -0.296 OA
BRANCH   5   7
HETATM    7  C4  UNL     1      27.943   0.103  55.095  1.00  0.00     0.199 C 
BRANCH   7   8
HETATM    8  N1  UNL     1      29.100   0.639  54.409  1.00  0.00    -0.391 N 
HETATM    9  C3  UNL     1      29.574   2.013  54.521  1.00  0.00     0.149 C 
BRANCH   8  10
HETATM   10  C2  UNL     1      29.787  -0.289  53.576  1.00  0.00     0.058 C 
HETATM   11  C1  UNL     1      29.618  -1.586  53.368  1.00  0.00     0.049 C 
ENDBRANCH   8  10
ENDBRANCH   7   8
ENDBRANCH   5   7
ENDBRANCH   4   5
ENDBRANCH   3   4
BRANCH   3  12
HETATM   12  O2  UNL     1      26.385   0.183  52.014  1.00  0.00    -0.389 OA
HETATM   13  H12 UNL     1      25.445  -0.088  51.970  1.00  0.00     0.210 HD
ENDBRANCH   3  12
ENDBRANCH   1   3
BRANCH   1  14
HETATM   14  O3  UNL     1      24.372   2.361  51.827  1.00  0.00    -0.349 OA
BRANCH  14  15
HETATM   15  C12 UNL     1      23.401   1.502  51.318  1.00  0.00     0.214 C 
BRANCH  15  16
HETATM   16  C13 UNL     1      22.618   0.880  52.438  1.00  0.00    -0.034 A 
HETATM   17  C14 UNL     1      23.187  -0.201  53.095  1.00  0.00     0.009 A 
HETATM   18  C15 UNL     1      22.611  -0.882  54.136  1.00  0.00     0.001 A 
HETATM   19  C16 UNL     1      21.353  -0.457  54.573  1.00  0.00     0.000 A 
HETATM   20  C17 UNL     1      20.771   0.618  53.930  1.00  0.00     0.001 A 
HETATM   21  C18 UNL     1      21.375   1.284  52.886  1.00  0.00     0.009 A 
ENDBRANCH  15  16
ENDBRANCH  14  15
ENDBRANCH   1  14
BRANCH   2  22
HETATM   22  C10 UNL     1      25.356   4.071  49.464  1.00  0.00     0.025 C 
HETATM   23  C11 UNL     1      26.342   5.153  49.038  1.00  0.00     0.009 C 
ENDBRANCH   2  22
TORSDOF 11
ENDMDL
MODEL 2
REMARK VINA RESULT:      -6.6      1.398      1.990
REMARK  11 active torsions:
REMARK  status: ('A' for Active; 'I' for Inactive)
REMARK    1  A    between atoms: C2_2  and  N1_3 
REMARK    2  A    between atoms: N1_3  and  C4_5 
REMARK    3  A    between atoms: C4_5  and  C5_6 
REMARK    4  A    between atoms: C5_6  and  C6_8 
REMARK    5  A    between atoms: C6_8  and  C7_9 
REMARK    6  A    between atoms: C7_9  and  O2_10 
REMARK    7  A    between atoms: C7_9  and  C8_11 
REMARK    8  A    between atoms: C8_11  and  O3_15 
REMARK    9  A    between atoms: C9_12  and  C10_13 
REMARK   10  A    between atoms: O3_15  and  C12_16 
REMARK   11  A    between atoms: C12_16  and  C13_17 
ROOT
HETATM    1  C8  UNL     1      25.519   2.601  51.774  1.00  0.00     0.072 C 
HETATM    2  C9  UNL     1      25.942   3.122  50.624  1.00  0.00     0.008 C 
ENDROOT
BRANCH   1   3
HETATM    3  C7  UNL     1      26.244   2.055  52.918  1.00  0.00     0.181 C 
BRANCH   3   4
HETATM    4  C6  UNL     1      27.760   2.120  52.757  1.00  0.00     0.118 C 
BRANCH   4   5
HETATM    5  C5  UNL     1      28.310   1.514  53.994  1.00  0.00     0.147 C 
HETATM    6  O1  UNL     1      28.986   1.878  54.924  1.00  0.00    -0.296 OA
BRANCH   5   7
HETATM    7  C4  UNL     1      28.282   0.209  54.638  1.00  0.00     0.199 C 
BRANCH   7   8
HETATM    8  N1  UNL     1      28.763  -0.862  53.790  1.00  0.00    -0.391 N 
HETATM    9  C3  UNL     1      30.165  -1.121  53.488  1.00  0.00     0.149 C 
BRANCH   8  10
HETATM   10  C2  UNL     1      27.747  -1.692  53.237  1.00  0.00     0.058 C 
HETATM   11  C1  UNL     1      26.791  -1.451  52.352  1.00  0.00     0.049 C 
ENDBRANCH   8  10
ENDBRANCH   7   8
ENDBRANCH   5   7
ENDBRANCH   4   5
ENDBRANCH   3   4
BRANCH   3  12
HETATM   12  O2  UNL     1      25.993   2.778  54.106  1.00  0.00    -0.389 OA
HETATM   13  H12 UNL     1      25.123   3.226  54.070  1.00  0.00     0.210 HD
ENDBRANCH   3  12
ENDBRANCH   1   3
BRANCH   1  14
HETATM   14  O3  UNL     1      24.152   2.535  51.986  1.00  0.00    -0.349 OA
BRANCH  14  15
HETATM   15  C12 UNL     1      23.286   1.550  51.516  1.00  0.00     0.214 C 
BRANCH  15  16
HETATM   16  C13 UNL     1      22.756   0.735  52.661  1.00  0.00    -0.034 A 
HETATM   17  C14 UNL     1      21.469   1.008  53.100  1.00  0.00     0.009 A 
HETATM   18  C15 UNL     1      20.834   0.361  54.128  1.00  0.00     0.001 A 
HETATM   19  C16 UNL     1      21.534  -0.656  54.785  1.00  0.00     0.000 A 
HETATM   20  C17 UNL     1      22.816  -0.942  54.360  1.00  0.00     0.001 A 
HETATM   21  C18 UNL     1      23.429  -0.273  53.323  1.00  0.00     0.009 A 
ENDBRANCH  15  16
ENDBRANCH  14  15
ENDBRANCH   1  14
BRANCH   2  22
HETATM   22  C10 UNL     1      25.337   3.703  49.396  1.00  0.00     0.025 C 
HETATM   23  C11 UNL     1      25.916   5.098  49.194  1.00  0.00     0.009 C 
ENDBRANCH   2  22
TORSDOF 11
ENDMDL
MODEL 3
REMARK VINA RESULT:      -6.6      1.751      2.326
REMARK  11 active torsions:
REMARK  status: ('A' for Active; 'I' for Inactive)
REMARK    1  A    between atoms: C2_2  and  N1_3 
REMARK    2  A    between atoms: N1_3  and  C4_5 
REMARK    3  A    between atoms: C4_5  and  C5_6 
REMARK    4  A    between atoms: C5_6  and  C6_8 
REMARK    5  A    between atoms: C6_8  and  C7_9 
REMARK    6  A    between atoms: C7_9  and  O2_10 
REMARK    7  A    between atoms: C7_9  and  C8_11 
REMARK    8  A    between atoms: C8_11  and  O3_15 
REMARK    9  A    between atoms: C9_12  and  C10_13 
REMARK   10  A    between atoms: O3_15  and  C12_16 
REMARK   11  A    between atoms: C12_16  and  C13_17 
ROOT
HETATM    1  C8  UNL     1      24.700   2.913  50.696  1.00  0.00     0.072 C 
HETATM    2  C9  UNL     1      24.199   3.612  49.680  1.00  0.00     0.008 C 
ENDROOT
BRANCH   1   3
HETATM    3  C7  UNL     1      26.004   2.953  51.353  1.00  0.00     0.181 C 
BRANCH   3   4
HETATM    4  C6  UNL     1      26.636   1.574  51.522  1.00  0.00     0.118 C 
BRANCH   4   5
HETATM    5  C5  UNL     1      27.613   1.725  52.627  1.00  0.00     0.147 C 
HETATM    6  O1  UNL     1      28.468   2.515  52.941  1.00  0.00    -0.296 OA
BRANCH   5   7
HETATM    7  C4  UNL     1      27.979   0.985  53.826  1.00  0.00     0.199 C 
BRANCH   7   8
HETATM    8  N1  UNL     1      28.365  -0.385  53.562  1.00  0.00    -0.391 N 
HETATM    9  C3  UNL     1      29.739  -0.860  53.459  1.00  0.00     0.149 C 
BRANCH   8  10
HETATM   10  C2  UNL     1      27.280  -1.293  53.399  1.00  0.00     0.058 C 
HETATM   11  C1  UNL     1      26.885  -2.025  52.368  1.00  0.00     0.049 C 
ENDBRANCH   8  10
ENDBRANCH   7   8
ENDBRANCH   5   7
ENDBRANCH   4   5
ENDBRANCH   3   4
BRANCH   3  12
HETATM   12  O2  UNL     1      26.959   3.680  50.606  1.00  0.00    -0.389 OA
HETATM   13  H12 UNL     1      26.590   3.965  49.746  1.00  0.00     0.210 HD
ENDBRANCH   3  12
ENDBRANCH   1   3
BRANCH   1  14
HETATM   14  O3  UNL     1      23.889   1.956  51.282  1.00  0.00    -0.349 OA
BRANCH  14  15
HETATM   15  C12 UNL     1      22.781   2.190  52.092  1.00  0.00     0.214 C 
BRANCH  15  16
HETATM   16  C13 UNL     1      22.581   1.045  53.043  1.00  0.00    -0.034 A 
HETATM   17  C14 UNL     1      23.694   0.290  53.381  1.00  0.00     0.009 A 
HETATM   18  C15 UNL     1      23.689  -0.784  54.232  1.00  0.00     0.001 A 
HETATM   19  C16 UNL     1      22.468  -1.149  54.807  1.00  0.00     0.000 A 
HETATM   20  C17 UNL     1      21.349  -0.409  54.482  1.00  0.00     0.001 A 
HETATM   21  C18 UNL     1      21.385   0.667  53.622  1.00  0.00     0.009 A 
ENDBRANCH  15  16
ENDBRANCH  14  15
ENDBRANCH   1  14
BRANCH   2  22
HETATM   22  C10 UNL     1      22.921   3.679  48.921  1.00  0.00     0.025 C 
HETATM   23  C11 UNL     1      22.814   2.427  48.059  1.00  0.00     0.009 C 
ENDBRANCH   2  22
TORSDOF 11
ENDMDL
MODEL 4
REMARK VINA RESULT:      -6.4      2.201      6.240
REMARK  11 active torsions:
REMARK  status: ('A' for Active; 'I' for Inactive)
REMARK    1  A    between atoms: C2_2  and  N1_3 
REMARK    2  A    between atoms: N1_3  and  C4_5 
REMARK    3  A    between atoms: C4_5  and  C5_6 
REMARK    4  A    between atoms: C5_6  and  C6_8 
REMARK    5  A    between atoms: C6_8  and  C7_9 
REMARK    6  A    between atoms: C7_9  and  O2_10 
REMARK    7  A    between atoms: C7_9  and  C8_11 
REMARK    8  A    between atoms: C8_11  and  O3_15 
REMARK    9  A    between atoms: C9_12  and  C10_13 
REMARK   10  A    between atoms: O3_15  and  C12_16 
REMARK   11  A    between atoms: C12_16  and  C13_17 
ROOT
HETATM    1  C8  UNL     1      24.254   1.226  52.994  1.00  0.00     0.072 C 
HETATM    2  C9  UNL     1      22.972   0.869  53.023  1.00  0.00     0.008 C 
ENDROOT
BRANCH   1   3
HETATM    3  C7  UNL     1      24.900   2.503  52.699  1.00  0.00     0.181 C 
BRANCH   3   4
HETATM    4  C6  UNL     1      24.692   2.965  51.260  1.00  0.00     0.118 C 
BRANCH   4   5
HETATM    5  C5  UNL     1      26.056   3.141  50.705  1.00  0.00     0.147 C 
HETATM    6  O1  UNL     1      27.183   2.898  51.055  1.00  0.00    -0.296 OA
BRANCH   5   7
HETATM    7  C4  UNL     1      26.643   3.689  49.492  1.00  0.00     0.199 C 
BRANCH   7   8
HETATM    8  N1  UNL     1      26.391   5.104  49.317  1.00  0.00    -0.391 N 
HETATM    9  C3  UNL     1      25.246   5.820  49.865  1.00  0.00     0.149 C 
BRANCH   8  10
HETATM   10  C2  UNL     1      27.365   5.797  48.544  1.00  0.00     0.058 C 
HETATM   11  C1  UNL     1      28.654   5.573  48.336  1.00  0.00     0.049 C 
ENDBRANCH   8  10
ENDBRANCH   7   8
ENDBRANCH   5   7
ENDBRANCH   4   5
ENDBRANCH   3   4
BRANCH   3  12
HETATM   12  O2  UNL     1      24.379   3.560  53.479  1.00  0.00    -0.389 OA
HETATM   13  H12 UNL     1      23.671   3.242  54.076  1.00  0.00     0.210 HD
ENDBRANCH   3  12
ENDBRANCH   1   3
BRANCH   1  14
HETATM   14  O3  UNL     1      25.199   0.257  53.286  1.00  0.00    -0.349 OA
BRANCH  14  15
HETATM   15  C12 UNL     1      25.863  -0.556  52.371  1.00  0.00     0.214 C 
BRANCH  15  16
HETATM   16  C13 UNL     1      27.279  -0.789  52.815  1.00  0.00    -0.034 A 
HETATM   17  C14 UNL     1      28.003   0.311  53.251  1.00  0.00     0.009 A 
HETATM   18  C15 UNL     1      29.301   0.276  53.690  1.00  0.00     0.001 A 
HETATM   19  C16 UNL     1      29.948  -0.963  53.701  1.00  0.00     0.000 A 
HETATM   20  C17 UNL     1      29.243  -2.069  53.270  1.00  0.00     0.001 A 
HETATM   21  C18 UNL     1      27.938  -2.003  52.834  1.00  0.00     0.009 A 
ENDBRANCH  15  16
ENDBRANCH  14  15
ENDBRANCH   1  14
BRANCH   2  22
HETATM   22  C10 UNL     1      22.183  -0.362  53.298  1.00  0.00     0.025 C 
HETATM   23  C11 UNL     1      21.824  -0.376  54.779  1.00  0.00     0.009 C 
ENDBRANCH   2  22
TORSDOF 11
ENDMDL
MODEL 5
REMARK VINA RESULT:      -6.3      2.357      6.447
REMARK  11 active torsions:
REMARK  status: ('A' for Active; 'I' for Inactive)
REMARK    1  A    between atoms: C2_2  and  N1_3 
REMARK    2  A    between atoms: N1_3  and  C4_5 
REMARK    3  A    between atoms: C4_5  and  C5_6 
REMARK    4  A    between atoms: C5_6  and  C6_8 
REMARK    5  A    between atoms: C6_8  and  C7_9 
REMARK    6  A    between atoms: C7_9  and  O2_10 
REMARK    7  A    between atoms: C7_9  and  C8_11 
REMARK    8  A    between atoms: C8_11  and  O3_15 
REMARK    9  A    between atoms: C9_12  and  C10_13 
REMARK   10  A    between atoms: O3_15  and  C12_16 
REMARK   11  A    between atoms: C12_16  and  C13_17 
ROOT
HETATM    1  C8  UNL     1      23.976   0.956  53.084  1.00  0.00     0.072 C 
HETATM    2  C9  UNL     1      22.845   0.290  53.307  1.00  0.00     0.008 C 
ENDROOT
BRANCH   1   3
HETATM    3  C7  UNL     1      24.227   2.290  52.542  1.00  0.00     0.181 C 
BRANCH   3   4
HETATM    4  C6  UNL     1      22.950   3.083  52.279  1.00  0.00     0.118 C 
BRANCH   4   5
HETATM    5  C5  UNL     1      23.407   4.434  51.872  1.00  0.00     0.147 C 
HETATM    6  O1  UNL     1      23.738   5.452  52.427  1.00  0.00    -0.296 OA
BRANCH   5   7
HETATM    7  C4  UNL     1      23.658   5.136  50.623  1.00  0.00     0.199 C 
BRANCH   7   8
HETATM    8  N1  UNL     1      24.182   4.282  49.577  1.00  0.00    -0.391 N 
HETATM    9  C3  UNL     1      23.372   3.455  48.693  1.00  0.00     0.149 C 
BRANCH   8  10
HETATM   10  C2  UNL     1      25.600   4.291  49.450  1.00  0.00     0.058 C 
HETATM   11  C1  UNL     1      26.538   3.493  49.939  1.00  0.00     0.049 C 
ENDBRANCH   8  10
ENDBRANCH   7   8
ENDBRANCH   5   7
ENDBRANCH   4   5
ENDBRANCH   3   4
BRANCH   3  12
HETATM   12  O2  UNL     1      24.958   3.102  53.437  1.00  0.00    -0.389 OA
HETATM   13  H12 UNL     1      24.924   4.043  53.168  1.00  0.00     0.210 HD
ENDBRANCH   3  12
ENDBRANCH   1   3
BRANCH   1  14
HETATM   14  O3  UNL     1      25.167   0.327  53.400  1.00  0.00    -0.349 OA
BRANCH  14  15
HETATM   15  C12 UNL     1      25.924  -0.489  52.562  1.00  0.00     0.214 C 
BRANCH  15  16
HETATM   16  C13 UNL     1      27.369  -0.453  52.967  1.00  0.00    -0.034 A 
HETATM   17  C14 UNL     1      28.055  -1.658  53.002  1.00  0.00     0.009 A 
HETATM   18  C15 UNL     1      29.374  -1.805  53.347  1.00  0.00     0.001 A 
HETATM   19  C16 UNL     1      30.086  -0.651  53.690  1.00  0.00     0.000 A 
HETATM   20  C17 UNL     1      29.419   0.557  53.661  1.00  0.00     0.001 A 
HETATM   21  C18 UNL     1      28.092   0.673  53.309  1.00  0.00     0.009 A 
ENDBRANCH  15  16
ENDBRANCH  14  15
ENDBRANCH   1  14
BRANCH   2  22
HETATM   22  C10 UNL     1      22.444  -1.040  53.839  1.00  0.00     0.025 C 
HETATM   23  C11 UNL     1      21.177  -0.859  54.666  1.00  0.00     0.009 C 
ENDBRANCH   2  22
TORSDOF 11
ENDMDL
MODEL 6
REMARK VINA RESULT:      -6.2      2.234      5.147
REMARK  11 active torsions:
REMARK  status: ('A' for Active; 'I' for Inactive)
REMARK    1  A    between atoms: C2_2  and  N1_3 
REMARK    2  A    between atoms: N1_3  and  C4_5 
REMARK    3  A    between atoms: C4_5  and  C5_6 
REMARK    4  A    between atoms: C5_6  and  C6_8 
REMARK    5  A    between atoms: C6_8  and  C7_9 
REMARK    6  A    between atoms: C7_9  and  O2_10 
REMARK    7  A    between atoms: C7_9  and  C8_11 
REMARK    8  A    between atoms: C8_11  and  O3_15 
REMARK    9  A    between atoms: C9_12  and  C10_13 
REMARK   10  A    between atoms: O3_15  and  C12_16 
REMARK   11  A    between atoms: C12_16  and  C13_17 
ROOT
HETATM    1  C8  UNL     1      26.251   0.814  52.644  1.00  0.00     0.072 C 
HETATM    2  C9  UNL     1      27.439   0.232  52.792  1.00  0.00     0.008 C 
ENDROOT
BRANCH   1   3
HETATM    3  C7  UNL     1      25.875   2.194  52.347  1.00  0.00     0.181 C 
BRANCH   3   4
HETATM    4  C6  UNL     1      24.736   2.303  51.337  1.00  0.00     0.118 C 
BRANCH   4   5
HETATM    5  C5  UNL     1      24.131   3.637  51.573  1.00  0.00     0.147 C 
HETATM    6  O1  UNL     1      23.272   4.097  52.282  1.00  0.00    -0.296 OA
BRANCH   5   7
HETATM    7  C4  UNL     1      24.303   4.985  51.054  1.00  0.00     0.199 C 
BRANCH   7   8
HETATM    8  N1  UNL     1      24.597   5.023  49.636  1.00  0.00    -0.391 N 
HETATM    9  C3  UNL     1      23.607   4.890  48.576  1.00  0.00     0.149 C 
BRANCH   8  10
HETATM   10  C2  UNL     1      25.972   5.207  49.313  1.00  0.00     0.058 C 
HETATM   11  C1  UNL     1      26.959   4.345  49.121  1.00  0.00     0.049 C 
ENDBRANCH   8  10
ENDBRANCH   7   8
ENDBRANCH   5   7
ENDBRANCH   4   5
ENDBRANCH   3   4
BRANCH   3  12
HETATM   12  O2  UNL     1      25.390   2.874  53.487  1.00  0.00    -0.389 OA
HETATM   13  H12 UNL     1      25.449   2.311  54.285  1.00  0.00     0.210 HD
ENDBRANCH   3  12
ENDBRANCH   1   3
BRANCH   1  14
HETATM   14  O3  UNL     1      25.124   0.022  52.786  1.00  0.00    -0.349 OA
BRANCH  14  15
HETATM   15  C12 UNL     1      24.616  -0.494  53.976  1.00  0.00     0.214 C 
BRANCH  15  16
HETATM   16  C13 UNL     1      23.115  -0.505  53.939  1.00  0.00    -0.034 A 
HETATM   17  C14 UNL     1      22.482   0.546  53.293  1.00  0.00     0.009 A 
HETATM   18  C15 UNL     1      21.124   0.690  53.166  1.00  0.00     0.001 A 
HETATM   19  C16 UNL     1      20.312  -0.300  53.729  1.00  0.00     0.000 A 
HETATM   20  C17 UNL     1      20.926  -1.354  54.376  1.00  0.00     0.001 A 
HETATM   21  C18 UNL     1      22.294  -1.471  54.488  1.00  0.00     0.009 A 
ENDBRANCH  15  16
ENDBRANCH  14  15
ENDBRANCH   1  14
BRANCH   2  22
HETATM   22  C10 UNL     1      27.964  -1.128  53.090  1.00  0.00     0.025 C 
HETATM   23  C11 UNL     1      29.435  -0.999  53.465  1.00  0.00     0.009 C 
ENDBRANCH   2  22
TORSDOF 11
ENDMDL
MODEL 7
REMARK VINA RESULT:      -6.2      2.326      6.221
REMARK  11 active torsions:
REMARK  status: ('A' for Active; 'I' for Inactive)
REMARK    1  A    between atoms: C2_2  and  N1_3 
REMARK    2  A    between atoms: N1_3  and  C4_5 
REMARK    3  A    between atoms: C4_5  and  C5_6 
REMARK    4  A    between atoms: C5_6  and  C6_8 
REMARK    5  A    between atoms: C6_8  and  C7_9 
REMARK    6  A    between atoms: C7_9  and  O2_10 
REMARK    7  A    between atoms: C7_9  and  C8_11 
REMARK    8  A    between atoms: C8_11  and  O3_15 
REMARK    9  A    between atoms: C9_12  and  C10_13 
REMARK   10  A    between atoms: O3_15  and  C12_16 
REMARK   11  A    between atoms: C12_16  and  C13_17 
ROOT
HETATM    1  C8  UNL     1      26.263   0.006  54.001  1.00  0.00     0.072 C 
HETATM    2  C9  UNL     1      27.519  -0.294  54.323  1.00  0.00     0.008 C 
ENDROOT
BRANCH   1   3
HETATM    3  C7  UNL     1      24.993  -0.296  54.657  1.00  0.00     0.181 C 
BRANCH   3   4
HETATM    4  C6  UNL     1      23.887  -0.683  53.679  1.00  0.00     0.118 C 
BRANCH   4   5
HETATM    5  C5  UNL     1      22.696  -0.949  54.521  1.00  0.00     0.147 C 
HETATM    6  O1  UNL     1      22.299  -1.847  55.221  1.00  0.00    -0.296 OA
BRANCH   5   7
HETATM    7  C4  UNL     1      21.473  -0.247  54.879  1.00  0.00     0.199 C 
BRANCH   7   8
HETATM    8  N1  UNL     1      20.688   0.164  53.734  1.00  0.00    -0.391 N 
HETATM    9  C3  UNL     1      20.917   1.376  52.958  1.00  0.00     0.149 C 
BRANCH   8  10
HETATM   10  C2  UNL     1      19.627  -0.719  53.386  1.00  0.00     0.058 C 
HETATM   11  C1  UNL     1      18.549  -0.555  52.634  1.00  0.00     0.049 C 
ENDBRANCH   8  10
ENDBRANCH   7   8
ENDBRANCH   5   7
ENDBRANCH   4   5
ENDBRANCH   3   4
BRANCH   3  12
HETATM   12  O2  UNL     1      25.089  -1.407  55.524  1.00  0.00    -0.389 OA
HETATM   13  H12 UNL     1      25.044  -2.249  55.026  1.00  0.00     0.210 HD
ENDBRANCH   3  12
ENDBRANCH   1   3
BRANCH   1  14
HETATM   14  O3  UNL     1      26.052   0.735  52.844  1.00  0.00    -0.349 OA
BRANCH  14  15
HETATM   15  C12 UNL     1      26.170   2.116  52.698  1.00  0.00     0.214 C 
BRANCH  15  16
HETATM   16  C13 UNL     1      25.466   2.570  51.453  1.00  0.00    -0.034 A 
HETATM   17  C14 UNL     1      24.152   2.163  51.274  1.00  0.00     0.009 A 
HETATM   18  C15 UNL     1      23.365   2.487  50.200  1.00  0.00     0.001 A 
HETATM   19  C16 UNL     1      23.928   3.292  49.204  1.00  0.00     0.000 A 
HETATM   20  C17 UNL     1      25.234   3.707  49.365  1.00  0.00     0.001 A 
HETATM   21  C18 UNL     1      26.001   3.365  50.458  1.00  0.00     0.009 A 
ENDBRANCH  15  16
ENDBRANCH  14  15
ENDBRANCH   1  14
BRANCH   2  22
HETATM   22  C10 UNL     1      28.879  -0.062  53.766  1.00  0.00     0.025 C 
HETATM   23  C11 UNL     1      29.485  -1.414  53.410  1.00  0.00     0.009 C 
ENDBRANCH   2  22
TORSDOF 11
ENDMDL
MODEL 8
REMARK VINA RESULT:      -6.1      2.429      5.591
REMARK  11 active torsions:
REMARK  status: ('A' for Active; 'I' for Inactive)
REMARK    1  A    between atoms: C2_2  and  N1_3 
REMARK    2  A    between atoms: N1_3  and  C4_5 
REMARK    3  A    between atoms: C4_5  and  C5_6 
REMARK    4  A    between atoms: C5_6  and  C6_8 
REMARK    5  A    between atoms: C6_8  and  C7_9 
REMARK    6  A    between atoms: C7_9  and  O2_10 
REMARK    7  A    between atoms: C7_9  and  C8_11 
REMARK    8  A    between atoms: C8_11  and  O3_15 
REMARK    9  A    between atoms: C9_12  and  C10_13 
REMARK   10  A    between atoms: O3_15  and  C12_16 
REMARK   11  A    between atoms: C12_16  and  C13_17 
ROOT
HETATM    1  C8  UNL     1      26.763   1.062  52.445  1.00  0.00     0.072 C 
HETATM    2  C9  UNL     1      27.827   0.958  53.237  1.00  0.00     0.008 C 
ENDROOT
BRANCH   1   3
HETATM    3  C7  UNL     1      26.386   2.063  51.450  1.00  0.00     0.181 C 
BRANCH   3   4
HETATM    4  C6  UNL     1      25.086   2.788  51.788  1.00  0.00     0.118 C 
BRANCH   4   5
HETATM    5  C5  UNL     1      24.648   3.416  50.518  1.00  0.00     0.147 C 
HETATM    6  O1  UNL     1      25.158   3.726  49.470  1.00  0.00    -0.296 OA
BRANCH   5   7
HETATM    7  C4  UNL     1      23.407   3.942  49.968  1.00  0.00     0.199 C 
BRANCH   7   8
HETATM    8  N1  UNL     1      22.293   3.024  50.082  1.00  0.00    -0.391 N 
HETATM    9  C3  UNL     1      22.210   1.728  49.421  1.00  0.00     0.149 C 
BRANCH   8  10
HETATM   10  C2  UNL     1      21.227   3.474  50.911  1.00  0.00     0.058 C 
HETATM   11  C1  UNL     1      21.200   3.902  52.165  1.00  0.00     0.049 C 
ENDBRANCH   8  10
ENDBRANCH   7   8
ENDBRANCH   5   7
ENDBRANCH   4   5
ENDBRANCH   3   4
BRANCH   3  12
HETATM   12  O2  UNL     1      27.340   3.099  51.345  1.00  0.00    -0.389 OA
HETATM   13  H12 UNL     1      28.229   2.789  51.612  1.00  0.00     0.210 HD
ENDBRANCH   3  12
ENDBRANCH   1   3
BRANCH   1  14
HETATM   14  O3  UNL     1      25.797   0.074  52.532  1.00  0.00    -0.349 OA
BRANCH  14  15
HETATM   15  C12 UNL     1      25.396  -0.597  53.685  1.00  0.00     0.214 C 
BRANCH  15  16
HETATM   16  C13 UNL     1      23.903  -0.533  53.832  1.00  0.00    -0.034 A 
HETATM   17  C14 UNL     1      23.190   0.140  52.850  1.00  0.00     0.009 A 
HETATM   18  C15 UNL     1      21.828   0.292  52.829  1.00  0.00     0.001 A 
HETATM   19  C16 UNL     1      21.097  -0.277  53.877  1.00  0.00     0.000 A 
HETATM   20  C17 UNL     1      21.790  -0.951  54.863  1.00  0.00     0.001 A 
HETATM   21  C18 UNL     1      23.161  -1.087  54.857  1.00  0.00     0.009 A 
ENDBRANCH  15  16
ENDBRANCH  14  15
ENDBRANCH   1  14
BRANCH   2  22
HETATM   22  C10 UNL     1      28.334   0.020  54.274  1.00  0.00     0.025 C 
HETATM   23  C11 UNL     1      29.301  -0.951  53.607  1.00  0.00     0.009 C 
ENDBRANCH   2  22
TORSDOF 11
ENDMDL
MODEL 9
REMARK VINA RESULT:      -6.1      2.172      5.327
REMARK  11 active torsions:
REMARK  status: ('A' for Active; 'I' for Inactive)
REMARK    1  A    between atoms: C2_2  and  N1_3 
REMARK    2  A    between atoms: N1_3  and  C4_5 
REMARK    3  A    between atoms: C4_5  and  C5_6 
REMARK    4  A    between atoms: C5_6  and  C6_8 
REMARK    5  A    between atoms: C6_8  and  C7_9 
REMARK    6  A    between atoms: C7_9  and  O2_10 
REMARK    7  A    between atoms: C7_9  and  C8_11 
REMARK    8  A    between atoms: C8_11  and  O3_15 
REMARK    9  A    between atoms: C9_12  and  C10_13 
REMARK   10  A    between atoms: O3_15  and  C12_16 
REMARK   11  A    between atoms: C12_16  and  C13_17 
ROOT
HETATM    1  C8  UNL     1      24.160   3.208  51.300  1.00  0.00     0.072 C 
HETATM    2  C9  UNL     1      23.291   4.110  51.750  1.00  0.00     0.008 C 
ENDROOT
BRANCH   1   3
HETATM    3  C7  UNL     1      24.636   1.949  51.867  1.00  0.00     0.181 C 
BRANCH   3   4
HETATM    4  C6  UNL     1      25.152   2.090  53.297  1.00  0.00     0.118 C 
BRANCH   4   5
HETATM    5  C5  UNL     1      25.955   0.868  53.544  1.00  0.00     0.147 C 
HETATM    6  O1  UNL     1      26.034  -0.239  53.075  1.00  0.00    -0.296 OA
BRANCH   5   7
HETATM    7  C4  UNL     1      27.005   0.459  54.465  1.00  0.00     0.199 C 
BRANCH   7   8
HETATM    8  N1  UNL     1      28.326   0.898  54.065  1.00  0.00    -0.391 N 
HETATM    9  C3  UNL     1      28.665   2.255  53.656  1.00  0.00     0.149 C 
BRANCH   8  10
HETATM   10  C2  UNL     1      29.327  -0.114  54.090  1.00  0.00     0.058 C 
HETATM   11  C1  UNL     1      29.480  -1.227  53.389  1.00  0.00     0.049 C 
ENDBRANCH   8  10
ENDBRANCH   7   8
ENDBRANCH   5   7
ENDBRANCH   4   5
ENDBRANCH   3   4
BRANCH   3  12
HETATM   12  O2  UNL     1      23.608   0.984  51.967  1.00  0.00    -0.389 OA
HETATM   13  H12 UNL     1      23.098   1.096  52.795  1.00  0.00     0.210 HD
ENDBRANCH   3  12
ENDBRANCH   1   3
BRANCH   1  14
HETATM   14  O3  UNL     1      24.760   3.448  50.075  1.00  0.00    -0.349 OA
BRANCH  14  15
HETATM   15  C12 UNL     1      26.120   3.369  49.787  1.00  0.00     0.214 C 
BRANCH  15  16
HETATM   16  C13 UNL     1      26.590   4.640  49.139  1.00  0.00    -0.034 A 
HETATM   17  C14 UNL     1      25.663   5.660  48.984  1.00  0.00     0.009 A 
HETATM   18  C15 UNL     1      25.923   6.881  48.417  1.00  0.00     0.001 A 
HETATM   19  C16 UNL     1      27.222   7.119  47.960  1.00  0.00     0.000 A 
HETATM   20  C17 UNL     1      28.158   6.115  48.106  1.00  0.00     0.001 A 
HETATM   21  C18 UNL     1      27.867   4.897  48.681  1.00  0.00     0.009 A 
ENDBRANCH  15  16
ENDBRANCH  14  15
ENDBRANCH   1  14
BRANCH   2  22
HETATM   22  C10 UNL     1      22.722   5.407  51.294  1.00  0.00     0.025 C 
HETATM   23  C11 UNL     1      21.251   5.192  50.961  1.00  0.00     0.009 C 
ENDBRANCH   2  22
TORSDOF 11
ENDMDL
