MODEL 1
REMARK VINA RESULT:      -8.2      0.000      0.000
REMARK  0 active torsions:
REMARK  status: ('A' for Active; 'I' for Inactive)
ROOT
HETATM    1  C1  UNL     1      26.100  -0.193  54.253  1.00  0.00     0.037 C 
HETATM    2  C2  UNL     1      25.176  -0.111  53.010  1.00  0.00     0.138 C 
HETATM    3  C3  UNL     1      23.799   0.118  53.380  1.00  0.00     0.082 C 
HETATM    4  C4  UNL     1      22.485   0.472  53.457  1.00  0.00     0.085 C 
HETATM    5  F1  UNL     1      21.805   0.145  54.527  1.00  0.00    -0.214 F 
HETATM    6  C5  UNL     1      21.606   1.299  52.481  1.00  0.00     0.077 A 
HETATM    7  C6  UNL     1      21.101   0.297  51.345  1.00  0.00    -0.011 A 
HETATM    8  C7  UNL     1      21.311   0.734  49.785  1.00  0.00    -0.017 A 
HETATM    9  C8  UNL     1      21.978   1.560  48.728  1.00  0.00     0.034 A 
HETATM   10  C9  UNL     1      22.901   2.417  49.365  1.00  0.00     0.082 A 
HETATM   11  C10 UNL     1      22.582   1.926  50.622  1.00  0.00    -0.017 A 
HETATM   12  C11 UNL     1      21.783   1.035  51.104  1.00  0.00     0.095 A 
HETATM   13  C12 UNL     1      22.674   2.136  52.077  1.00  0.00     0.110 A 
HETATM   14  N1  UNL     1      22.690   3.625  52.317  1.00  0.00    -0.388 N 
HETATM   15  C13 UNL     1      23.664   4.360  51.424  1.00  0.00     0.142 C 
HETATM   16  C14 UNL     1      24.609   3.889  50.502  1.00  0.00     0.186 C 
HETATM   17  N2  UNL     1      26.041   3.739  50.357  1.00  0.00    -0.215 NA
HETATM   18  C15 UNL     1      26.660   2.757  51.029  1.00  0.00     0.259 C 
HETATM   19  N3  UNL     1      26.083   1.853  51.862  1.00  0.00    -0.148 NA
HETATM   20  N4  UNL     1      25.854   0.635  51.948  1.00  0.00    -0.186 NA
HETATM   21  O1  UNL     1      23.868   3.407  49.353  1.00  0.00    -0.290 OA
HETATM   22  H11 UNL     1      22.258   4.340  52.896  1.00  0.00     0.159 HD
ENDROOT
TORSDOF 0
ENDMDL
MODEL 2
REMARK VINA RESULT:      -8.0      2.590      4.149
REMARK  0 active torsions:
REMARK  status: ('A' for Active; 'I' for Inactive)
ROOT
HETATM    1  C1  UNL     1      27.168   4.282  48.958  1.00  0.00     0.037 C 
HETATM    2  C2  UNL     1      26.217   3.233  49.590  1.00  0.00     0.138 C 
HETATM    3  C3  UNL     1      26.640   2.858  50.919  1.00  0.00     0.082 C 
HETATM    4  C4  UNL     1      26.742   2.456  52.218  1.00  0.00     0.085 C 
HETATM    5  F1  UNL     1      27.926   2.413  52.775  1.00  0.00    -0.214 F 
HETATM    6  C5  UNL     1      25.641   2.078  53.244  1.00  0.00     0.077 A 
HETATM    7  C6  UNL     1      25.253   0.553  52.973  1.00  0.00    -0.011 A 
HETATM    8  C7  UNL     1      23.672   0.181  52.794  1.00  0.00    -0.017 A 
HETATM    9  C8  UNL     1      22.253   0.568  52.514  1.00  0.00     0.034 A 
HETATM   10  C9  UNL     1      22.220   1.960  52.285  1.00  0.00     0.082 A 
HETATM   11  C10 UNL     1      23.587   2.086  52.481  1.00  0.00    -0.017 A 
HETATM   12  C11 UNL     1      24.570   1.297  52.753  1.00  0.00     0.095 A 
HETATM   13  C12 UNL     1      24.707   3.010  52.729  1.00  0.00     0.110 A 
HETATM   14  N1  UNL     1      24.167   4.166  53.534  1.00  0.00    -0.388 N 
HETATM   15  C13 UNL     1      22.883   4.733  52.972  1.00  0.00     0.142 C 
HETATM   16  C14 UNL     1      22.179   4.437  51.796  1.00  0.00     0.186 C 
HETATM   17  N2  UNL     1      21.899   5.008  50.495  1.00  0.00    -0.215 NA
HETATM   18  C15 UNL     1      22.860   4.991  49.560  1.00  0.00     0.259 C 
HETATM   19  N3  UNL     1      24.113   4.485  49.693  1.00  0.00    -0.148 NA
HETATM   20  N4  UNL     1      24.830   3.568  49.257  1.00  0.00    -0.186 NA
HETATM   21  O1  UNL     1      21.560   3.141  51.993  1.00  0.00    -0.290 OA
HETATM   22  H11 UNL     1      24.374   4.724  54.358  1.00  0.00     0.159 HD
ENDROOT
TORSDOF 0
ENDMDL
MODEL 3
REMARK VINA RESULT:      -7.6      2.527      4.458
REMARK  0 active torsions:
REMARK  status: ('A' for Active; 'I' for Inactive)
ROOT
HETATM    1  C1  UNL     1      21.220  -1.754  54.354  1.00  0.00     0.037 C 
HETATM    2  C2  UNL     1      21.564  -0.250  54.202  1.00  0.00     0.138 C 
HETATM    3  C3  UNL     1      22.870  -0.055  53.619  1.00  0.00     0.082 C 
HETATM    4  C4  UNL     1      23.981   0.387  52.963  1.00  0.00     0.085 C 
HETATM    5  F1  UNL     1      25.068  -0.341  52.999  1.00  0.00    -0.214 F 
HETATM    6  C5  UNL     1      24.192   1.640  52.071  1.00  0.00     0.077 A 
HETATM    7  C6  UNL     1      24.481   2.867  53.051  1.00  0.00    -0.011 A 
HETATM    8  C7  UNL     1      23.604   4.232  52.855  1.00  0.00    -0.017 A 
HETATM    9  C8  UNL     1      22.405   4.961  52.332  1.00  0.00     0.034 A 
HETATM   10  C9  UNL     1      21.596   4.031  51.646  1.00  0.00     0.082 A 
HETATM   11  C10 UNL     1      22.472   2.987  51.903  1.00  0.00    -0.017 A 
HETATM   12  C11 UNL     1      23.593   2.838  52.524  1.00  0.00     0.095 A 
HETATM   13  C12 UNL     1      22.873   1.613  51.557  1.00  0.00     0.110 A 
HETATM   14  N1  UNL     1      22.563   1.409  50.094  1.00  0.00    -0.388 N 
HETATM   15  C13 UNL     1      21.174   1.868  49.712  1.00  0.00     0.142 C 
HETATM   16  C14 UNL     1      20.111   2.346  50.491  1.00  0.00     0.186 C 
HETATM   17  N2  UNL     1      18.818   1.924  50.985  1.00  0.00    -0.215 NA
HETATM   18  C15 UNL     1      18.767   1.049  52.001  1.00  0.00     0.259 C 
HETATM   19  N3  UNL     1      19.823   0.490  52.645  1.00  0.00    -0.148 NA
HETATM   20  N4  UNL     1      20.374   0.480  53.759  1.00  0.00    -0.186 NA
HETATM   21  O1  UNL     1      20.472   3.684  50.916  1.00  0.00    -0.290 OA
HETATM   22  H11 UNL     1      22.978   1.054  49.237  1.00  0.00     0.159 HD
ENDROOT
TORSDOF 0
ENDMDL
MODEL 4
REMARK VINA RESULT:      -7.3      2.267      3.747
REMARK  0 active torsions:
REMARK  status: ('A' for Active; 'I' for Inactive)
ROOT
HETATM    1  C1  UNL     1      21.134  -0.522  53.671  1.00  0.00     0.037 C 
HETATM    2  C2  UNL     1      22.032   0.117  52.579  1.00  0.00     0.138 C 
HETATM    3  C3  UNL     1      21.859   1.549  52.515  1.00  0.00     0.082 C 
HETATM    4  C4  UNL     1      21.986   2.898  52.358  1.00  0.00     0.085 C 
HETATM    5  F1  UNL     1      20.961   3.665  52.632  1.00  0.00    -0.214 F 
HETATM    6  C5  UNL     1      23.216   3.753  51.953  1.00  0.00     0.077 A 
HETATM    7  C6  UNL     1      23.299   3.724  50.359  1.00  0.00    -0.011 A 
HETATM    8  C7  UNL     1      24.728   3.330  49.670  1.00  0.00    -0.017 A 
HETATM    9  C8  UNL     1      26.093   2.716  49.731  1.00  0.00     0.034 A 
HETATM   10  C9  UNL     1      26.285   2.212  51.035  1.00  0.00     0.082 A 
HETATM   11  C10 UNL     1      25.029   2.631  51.447  1.00  0.00    -0.017 A 
HETATM   12  C11 UNL     1      24.022   3.236  50.913  1.00  0.00     0.095 A 
HETATM   13  C12 UNL     1      24.143   2.896  52.594  1.00  0.00     0.110 A 
HETATM   14  N1  UNL     1      25.014   3.338  53.744  1.00  0.00    -0.388 N 
HETATM   15  C13 UNL     1      26.214   2.442  53.957  1.00  0.00     0.142 C 
HETATM   16  C14 UNL     1      26.590   1.238  53.345  1.00  0.00     0.186 C 
HETATM   17  N2  UNL     1      26.660  -0.179  53.630  1.00  0.00    -0.215 NA
HETATM   18  C15 UNL     1      25.525  -0.894  53.642  1.00  0.00     0.259 C 
HETATM   19  N3  UNL     1      24.270  -0.430  53.410  1.00  0.00    -0.148 NA
HETATM   20  N4  UNL     1      23.345  -0.530  52.587  1.00  0.00    -0.186 NA
HETATM   21  O1  UNL     1      27.034   1.570  52.006  1.00  0.00    -0.290 OA
HETATM   22  H11 UNL     1      25.080   4.057  54.459  1.00  0.00     0.159 HD
ENDROOT
TORSDOF 0
ENDMDL
MODEL 5
REMARK VINA RESULT:      -7.3      4.489      7.059
REMARK  0 active torsions:
REMARK  status: ('A' for Active; 'I' for Inactive)
ROOT
HETATM    1  C1  UNL     1      22.123   7.884  46.594  1.00  0.00     0.037 C 
HETATM    2  C2  UNL     1      23.200   6.838  46.981  1.00  0.00     0.138 C 
HETATM    3  C3  UNL     1      24.402   7.465  47.479  1.00  0.00     0.082 C 
HETATM    4  C4  UNL     1      25.565   7.798  48.109  1.00  0.00     0.085 C 
HETATM    5  F1  UNL     1      26.109   8.960  47.854  1.00  0.00    -0.214 F 
HETATM    6  C5  UNL     1      26.380   7.035  49.187  1.00  0.00     0.077 A 
HETATM    7  C6  UNL     1      27.291   5.973  48.419  1.00  0.00    -0.011 A 
HETATM    8  C7  UNL     1      27.253   4.419  48.925  1.00  0.00    -0.017 A 
HETATM    9  C8  UNL     1      26.603   3.292  49.667  1.00  0.00     0.034 A 
HETATM   10  C9  UNL     1      25.411   3.782  50.242  1.00  0.00     0.082 A 
HETATM   11  C10 UNL     1      25.616   5.055  49.732  1.00  0.00    -0.017 A 
HETATM   12  C11 UNL     1      26.507   5.639  49.004  1.00  0.00     0.095 A 
HETATM   13  C12 UNL     1      25.230   6.475  49.796  1.00  0.00     0.110 A 
HETATM   14  N1  UNL     1      24.827   6.769  51.220  1.00  0.00    -0.388 N 
HETATM   15  C13 UNL     1      23.876   5.742  51.791  1.00  0.00     0.142 C 
HETATM   16  C14 UNL     1      23.238   4.642  51.199  1.00  0.00     0.186 C 
HETATM   17  N2  UNL     1      21.927   4.229  50.747  1.00  0.00    -0.215 NA
HETATM   18  C15 UNL     1      21.448   4.734  49.601  1.00  0.00     0.259 C 
HETATM   19  N3  UNL     1      22.069   5.622  48.782  1.00  0.00    -0.148 NA
HETATM   20  N4  UNL     1      22.558   5.700  47.643  1.00  0.00    -0.186 NA
HETATM   21  O1  UNL     1      24.256   3.631  50.989  1.00  0.00    -0.290 OA
HETATM   22  H11 UNL     1      24.976   7.446  51.963  1.00  0.00     0.159 HD
ENDROOT
TORSDOF 0
ENDMDL
MODEL 6
REMARK VINA RESULT:      -7.2      2.957      5.248
REMARK  0 active torsions:
REMARK  status: ('A' for Active; 'I' for Inactive)
ROOT
HETATM    1  C1  UNL     1      21.948   2.922  46.834  1.00  0.00     0.037 C 
HETATM    2  C2  UNL     1      22.447   2.118  48.063  1.00  0.00     0.138 C 
HETATM    3  C3  UNL     1      23.351   2.893  48.880  1.00  0.00     0.082 C 
HETATM    4  C4  UNL     1      24.095   3.451  49.877  1.00  0.00     0.085 C 
HETATM    5  F1  UNL     1      24.927   4.416  49.578  1.00  0.00    -0.214 F 
HETATM    6  C5  UNL     1      24.093   3.183  51.405  1.00  0.00     0.077 A 
HETATM    7  C6  UNL     1      25.014   1.904  51.656  1.00  0.00    -0.011 A 
HETATM    8  C7  UNL     1      24.404   0.681  52.553  1.00  0.00    -0.017 A 
HETATM    9  C8  UNL     1      23.251  -0.057  53.160  1.00  0.00     0.034 A 
HETATM   10  C9  UNL     1      22.066   0.620  52.803  1.00  0.00     0.082 A 
HETATM   11  C10 UNL     1      22.760   1.584  52.088  1.00  0.00    -0.017 A 
HETATM   12  C11 UNL     1      23.994   1.831  51.803  1.00  0.00     0.095 A 
HETATM   13  C12 UNL     1      22.704   2.911  51.452  1.00  0.00     0.110 A 
HETATM   14  N1  UNL     1      21.727   3.748  52.240  1.00  0.00    -0.388 N 
HETATM   15  C13 UNL     1      20.425   3.033  52.521  1.00  0.00     0.142 C 
HETATM   16  C14 UNL     1      19.943   1.788  52.093  1.00  0.00     0.186 C 
HETATM   17  N2  UNL     1      18.968   1.227  51.181  1.00  0.00    -0.215 NA
HETATM   18  C15 UNL     1      19.234   1.233  49.867  1.00  0.00     0.259 C 
HETATM   19  N3  UNL     1      20.349   1.721  49.265  1.00  0.00    -0.148 NA
HETATM   20  N4  UNL     1      21.338   1.338  48.617  1.00  0.00    -0.186 NA
HETATM   21  O1  UNL     1      20.691   0.779  52.816  1.00  0.00    -0.290 OA
HETATM   22  H11 UNL     1      21.632   4.666  52.667  1.00  0.00     0.159 HD
ENDROOT
TORSDOF 0
ENDMDL
MODEL 7
REMARK VINA RESULT:      -7.1      3.617      6.124
REMARK  0 active torsions:
REMARK  status: ('A' for Active; 'I' for Inactive)
ROOT
HETATM    1  C1  UNL     1      20.980   5.834  47.406  1.00  0.00     0.037 C 
HETATM    2  C2  UNL     1      22.255   5.058  47.828  1.00  0.00     0.138 C 
HETATM    3  C3  UNL     1      23.353   5.949  48.120  1.00  0.00     0.082 C 
HETATM    4  C4  UNL     1      24.476   6.568  48.585  1.00  0.00     0.085 C 
HETATM    5  F1  UNL     1      24.780   7.754  48.125  1.00  0.00    -0.214 F 
HETATM    6  C5  UNL     1      25.489   6.128  49.675  1.00  0.00     0.077 A 
HETATM    7  C6  UNL     1      26.524   5.133  48.977  1.00  0.00    -0.011 A 
HETATM    8  C7  UNL     1      26.807   3.691  49.691  1.00  0.00    -0.017 A 
HETATM    9  C8  UNL     1      26.427   2.594  50.638  1.00  0.00     0.034 A 
HETATM   10  C9  UNL     1      25.208   2.954  51.251  1.00  0.00     0.082 A 
HETATM   11  C10 UNL     1      25.141   4.152  50.556  1.00  0.00    -0.017 A 
HETATM   12  C11 UNL     1      25.857   4.763  49.674  1.00  0.00     0.095 A 
HETATM   13  C12 UNL     1      24.507   5.478  50.462  1.00  0.00     0.110 A 
HETATM   14  N1  UNL     1      24.156   5.910  51.864  1.00  0.00    -0.388 N 
HETATM   15  C13 UNL     1      23.450   4.834  52.657  1.00  0.00     0.142 C 
HETATM   16  C14 UNL     1      22.986   3.564  52.284  1.00  0.00     0.186 C 
HETATM   17  N2  UNL     1      21.744   2.869  52.019  1.00  0.00    -0.215 NA
HETATM   18  C15 UNL     1      21.103   3.106  50.865  1.00  0.00     0.259 C 
HETATM   19  N3  UNL     1      21.493   3.953  49.878  1.00  0.00    -0.148 NA
HETATM   20  N4  UNL     1      21.880   3.940  48.697  1.00  0.00    -0.186 NA
HETATM   21  O1  UNL     1      24.154   2.723  52.118  1.00  0.00    -0.290 OA
HETATM   22  H11 UNL     1      24.229   6.707  52.490  1.00  0.00     0.159 HD
ENDROOT
TORSDOF 0
ENDMDL
MODEL 8
REMARK VINA RESULT:      -7.0      2.634      4.600
REMARK  0 active torsions:
REMARK  status: ('A' for Active; 'I' for Inactive)
ROOT
HETATM    1  C1  UNL     1      17.658   3.844  51.197  1.00  0.00     0.037 C 
HETATM    2  C2  UNL     1      19.110   3.453  51.576  1.00  0.00     0.138 C 
HETATM    3  C3  UNL     1      19.305   2.023  51.546  1.00  0.00     0.082 C 
HETATM    4  C4  UNL     1      19.777   0.747  51.449  1.00  0.00     0.085 C 
HETATM    5  F1  UNL     1      18.953  -0.248  51.658  1.00  0.00    -0.214 F 
HETATM    6  C5  UNL     1      21.181   0.220  51.050  1.00  0.00     0.077 A 
HETATM    7  C6  UNL     1      22.093   0.285  52.358  1.00  0.00    -0.011 A 
HETATM    8  C7  UNL     1      23.548   1.021  52.246  1.00  0.00    -0.017 A 
HETATM    9  C8  UNL     1      24.504   1.948  51.560  1.00  0.00     0.034 A 
HETATM   10  C9  UNL     1      23.859   2.470  50.419  1.00  0.00     0.082 A 
HETATM   11  C10 UNL     1      22.699   1.754  50.672  1.00  0.00    -0.017 A 
HETATM   12  C11 UNL     1      22.287   0.928  51.573  1.00  0.00     0.095 A 
HETATM   13  C12 UNL     1      21.418   1.270  50.130  1.00  0.00     0.110 A 
HETATM   14  N1  UNL     1      21.611   1.042  48.651  1.00  0.00    -0.388 N 
HETATM   15  C13 UNL     1      22.291   2.200  47.956  1.00  0.00     0.142 C 
HETATM   16  C14 UNL     1      22.672   3.465  48.424  1.00  0.00     0.186 C 
HETATM   17  N2  UNL     1      22.278   4.854  48.318  1.00  0.00    -0.215 NA
HETATM   18  C15 UNL     1      21.192   5.272  48.985  1.00  0.00     0.259 C 
HETATM   19  N3  UNL     1      20.385   4.519  49.776  1.00  0.00    -0.148 NA
HETATM   20  N4  UNL     1      20.046   4.400  50.966  1.00  0.00    -0.186 NA
HETATM   21  O1  UNL     1      23.820   3.265  49.286  1.00  0.00    -0.290 OA
HETATM   22  H11 UNL     1      21.436   0.353  47.925  1.00  0.00     0.159 HD
ENDROOT
TORSDOF 0
ENDMDL
MODEL 9
REMARK VINA RESULT:      -6.9     10.707     12.835
REMARK  0 active torsions:
REMARK  status: ('A' for Active; 'I' for Inactive)
ROOT
HETATM    1  C1  UNL     1      35.251   5.977  42.589  1.00  0.00     0.037 C 
HETATM    2  C2  UNL     1      34.154   5.911  43.684  1.00  0.00     0.138 C 
HETATM    3  C3  UNL     1      34.413   4.858  44.637  1.00  0.00     0.082 C 
HETATM    4  C4  UNL     1      34.506   4.046  45.730  1.00  0.00     0.085 C 
HETATM    5  F1  UNL     1      35.122   2.898  45.612  1.00  0.00    -0.214 F 
HETATM    6  C5  UNL     1      34.047   4.273  47.195  1.00  0.00     0.077 A 
HETATM    7  C6  UNL     1      32.494   3.908  47.259  1.00  0.00    -0.011 A 
HETATM    8  C7  UNL     1      31.475   4.994  47.931  1.00  0.00    -0.017 A 
HETATM    9  C8  UNL     1      31.144   6.384  48.382  1.00  0.00     0.034 A 
HETATM   10  C9  UNL     1      32.258   7.206  48.109  1.00  0.00     0.082 A 
HETATM   11  C10 UNL     1      32.983   6.151  47.577  1.00  0.00    -0.017 A 
HETATM   12  C11 UNL     1      32.788   4.893  47.366  1.00  0.00     0.095 A 
HETATM   13  C12 UNL     1      34.310   5.665  47.162  1.00  0.00     0.110 A 
HETATM   14  N1  UNL     1      35.332   6.331  48.050  1.00  0.00    -0.388 N 
HETATM   15  C13 UNL     1      35.123   7.823  48.179  1.00  0.00     0.142 C 
HETATM   16  C14 UNL     1      34.222   8.689  47.544  1.00  0.00     0.186 C 
HETATM   17  N2  UNL     1      34.199   9.721  46.529  1.00  0.00    -0.215 NA
HETATM   18  C15 UNL     1      34.290   9.363  45.240  1.00  0.00     0.259 C 
HETATM   19  N3  UNL     1      34.406   8.101  44.753  1.00  0.00    -0.148 NA
HETATM   20  N4  UNL     1      33.776   7.270  44.077  1.00  0.00    -0.186 NA
HETATM   21  O1  UNL     1      32.915   8.424  48.112  1.00  0.00    -0.290 OA
HETATM   22  H11 UNL     1      36.149   6.120  48.616  1.00  0.00     0.159 HD
ENDROOT
TORSDOF 0
ENDMDL
