MODEL 1
REMARK VINA RESULT:      -9.2      0.000      0.000
REMARK  8 active torsions:
REMARK  status: ('A' for Active; 'I' for Inactive)
REMARK    1  A    between atoms: C2_2  and  C3_3 
REMARK       I    between atoms: C3_3  and  N1_5 
REMARK    2  A    between atoms: N1_5  and  C4_6 
REMARK    3  A    between atoms: N2_10  and  C8_11 
REMARK    4  A    between atoms: C8_11  and  C9_12 
REMARK    5  A    between atoms: C8_11  and  C15_19 
REMARK    6  A    between atoms: C9_12  and  C10_13 
REMARK    7  A    between atoms: C18_22  and  N4_23 
REMARK    8  A    between atoms: C22_27  and  O2_28 
ROOT
HETATM    1  C8  UNL     1      25.796   2.415  51.203  1.00  0.00     0.147 C 
ENDROOT
BRANCH   1   2
HETATM    2  N2  UNL     1      24.459   1.951  51.084  1.00  0.00    -0.283 NA
HETATM    3  C7  UNL     1      23.591   1.415  51.749  1.00  0.00     0.035 A 
HETATM    4  C6  UNL     1      22.440   1.291  50.779  1.00  0.00     0.088 A 
HETATM    5  C21 UNL     1      23.288   0.886  53.067  1.00  0.00     0.066 A 
HETATM    6  C5  UNL     1      21.256   0.650  51.402  1.00  0.00     0.012 A 
HETATM    7  C4  UNL     1      21.024   0.183  52.606  1.00  0.00     0.065 A 
HETATM    8  C22 UNL     1      22.170   0.335  53.487  1.00  0.00     0.096 A 
BRANCH   7   9
HETATM    9  N1  UNL     1      19.849  -0.419  53.113  1.00  0.00    -0.325 N 
HETATM   10  C3  UNL     1      18.605  -0.644  52.491  1.00  0.00     0.221 C 
HETATM   11  O1  UNL     1      18.454  -0.277  51.300  1.00  0.00    -0.273 OA
HETATM   12  H6  UNL     1      19.853  -0.764  54.094  1.00  0.00     0.169 HD
BRANCH  10  13
HETATM   13  C2  UNL     1      17.444  -1.292  53.143  1.00  0.00     0.098 C 
HETATM   14  C1  UNL     1      17.861  -2.643  53.630  1.00  0.00     0.014 C 
ENDBRANCH  10  13
ENDBRANCH   7   9
BRANCH   8  15
HETATM   15  O2  UNL     1      22.157  -0.087  54.807  1.00  0.00    -0.354 OA
HETATM   16  C23 UNL     1      22.800  -1.265  55.210  1.00  0.00     0.210 C 
ENDBRANCH   8  15
ENDBRANCH   1   2
BRANCH   1  17
HETATM   17  C9  UNL     1      26.344   2.856  49.912  1.00  0.00     0.091 C 
BRANCH  17  18
HETATM   18  C10 UNL     1      26.322   4.342  49.675  1.00  0.00     0.036 A 
HETATM   19  C11 UNL     1      27.326   4.777  48.794  1.00  0.00     0.027 A 
HETATM   20  C12 UNL     1      27.574   6.060  48.368  1.00  0.00     0.003 A 
HETATM   21  C13 UNL     1      26.749   7.048  48.853  1.00  0.00     0.019 A 
HETATM   22  C14 UNL     1      25.755   6.659  49.719  1.00  0.00     0.117 A 
HETATM   23  N3  UNL     1      25.607   5.403  50.060  1.00  0.00    -0.265 NA
ENDBRANCH  17  18
ENDBRANCH   1  17
BRANCH   1  24
HETATM   24  C15 UNL     1      26.527   1.316  51.902  1.00  0.00    -0.033 A 
HETATM   25  C16 UNL     1      26.510  -0.056  51.933  1.00  0.00     0.011 A 
HETATM   26  C17 UNL     1      27.374  -0.795  52.695  1.00  0.00     0.029 A 
HETATM   27  C18 UNL     1      28.321  -0.180  53.482  1.00  0.00     0.025 A 
HETATM   28  C19 UNL     1      28.383   1.193  53.490  1.00  0.00     0.029 A 
HETATM   29  C20 UNL     1      27.498   1.938  52.710  1.00  0.00     0.011 A 
BRANCH  27  30
HETATM   30  N4  UNL     1      29.151  -1.069  54.220  1.00  0.00    -0.399 N 
HETATM   31  H19 UNL     1      29.334  -1.926  53.641  1.00  0.00     0.156 HD
HETATM   32  H20 UNL     1      29.448  -0.772  55.174  1.00  0.00     0.156 HD
ENDBRANCH  27  30
ENDBRANCH   1  24
TORSDOF 8
ENDMDL
MODEL 2
REMARK VINA RESULT:      -9.1      1.090      4.612
REMARK  8 active torsions:
REMARK  status: ('A' for Active; 'I' for Inactive)
REMARK    1  A    between atoms: C2_2  and  C3_3 
REMARK       I    between atoms: C3_3  and  N1_5 
REMARK    2  A    between atoms: N1_5  and  C4_6 
REMARK    3  A    between atoms: N2_10  and  C8_11 
REMARK    4  A    between atoms: C8_11  and  C9_12 
REMARK    5  A    between atoms: C8_11  and  C15_19 
REMARK    6  A    between atoms: C9_12  and  C10_13 
REMARK    7  A    between atoms: C18_22  and  N4_23 
REMARK    8  A    between atoms: C22_27  and  O2_28 
ROOT
HETATM    1  C8  UNL     1      25.409   2.251  51.556  1.00  0.00     0.147 C 
ENDROOT
BRANCH   1   2
HETATM    2  N2  UNL     1      24.062   1.829  51.412  1.00  0.00    -0.283 NA
HETATM    3  C7  UNL     1      23.200   1.220  52.021  1.00  0.00     0.035 A 
HETATM    4  C6  UNL     1      22.023   1.247  51.075  1.00  0.00     0.088 A 
HETATM    5  C21 UNL     1      22.921   0.520  53.263  1.00  0.00     0.066 A 
HETATM    6  C5  UNL     1      20.843   0.545  51.638  1.00  0.00     0.012 A 
HETATM    7  C4  UNL     1      20.633  -0.079  52.773  1.00  0.00     0.065 A 
HETATM    8  C22 UNL     1      21.804  -0.066  53.635  1.00  0.00     0.096 A 
BRANCH   7   9
HETATM    9  N1  UNL     1      19.460  -0.726  53.225  1.00  0.00    -0.325 N 
HETATM   10  C3  UNL     1      18.234  -0.945  52.567  1.00  0.00     0.221 C 
HETATM   11  O1  UNL     1      18.100  -0.526  51.391  1.00  0.00    -0.273 OA
HETATM   12  H6  UNL     1      19.450  -1.116  54.190  1.00  0.00     0.169 HD
BRANCH  10  13
HETATM   13  C2  UNL     1      17.073  -1.645  53.162  1.00  0.00     0.098 C 
HETATM   14  C1  UNL     1      17.505  -3.012  53.590  1.00  0.00     0.014 C 
ENDBRANCH  10  13
ENDBRANCH   7   9
BRANCH   8  15
HETATM   15  O2  UNL     1      21.817  -0.664  54.885  1.00  0.00    -0.354 OA
HETATM   16  C23 UNL     1      22.950  -1.328  55.372  1.00  0.00     0.210 C 
ENDBRANCH   8  15
ENDBRANCH   1   2
BRANCH   1  17
HETATM   17  C9  UNL     1      25.807   2.360  52.967  1.00  0.00     0.091 C 
BRANCH  17  18
HETATM   18  C10 UNL     1      27.022   1.563  53.358  1.00  0.00     0.036 A 
HETATM   19  C11 UNL     1      27.001   0.246  52.869  1.00  0.00     0.027 A 
HETATM   20  C12 UNL     1      27.952  -0.731  53.041  1.00  0.00     0.003 A 
HETATM   21  C13 UNL     1      29.065  -0.396  53.777  1.00  0.00     0.019 A 
HETATM   22  C14 UNL     1      29.119   0.886  54.272  1.00  0.00     0.117 A 
HETATM   23  N3  UNL     1      28.152   1.741  54.048  1.00  0.00    -0.265 NA
ENDBRANCH  17  18
ENDBRANCH   1  17
BRANCH   1  24
HETATM   24  C15 UNL     1      25.516   3.492  50.731  1.00  0.00    -0.033 A 
HETATM   25  C16 UNL     1      24.822   4.666  50.567  1.00  0.00     0.011 A 
HETATM   26  C17 UNL     1      25.225   5.655  49.712  1.00  0.00     0.029 A 
HETATM   27  C18 UNL     1      26.369   5.514  48.959  1.00  0.00     0.025 A 
HETATM   28  C19 UNL     1      27.102   4.358  49.084  1.00  0.00     0.029 A 
HETATM   29  C20 UNL     1      26.685   3.355  49.959  1.00  0.00     0.011 A 
BRANCH  27  30
HETATM   30  N4  UNL     1      26.666   6.619  48.114  1.00  0.00    -0.399 N 
HETATM   31  H19 UNL     1      27.369   6.319  47.393  1.00  0.00     0.156 HD
HETATM   32  H20 UNL     1      26.179   7.519  48.308  1.00  0.00     0.156 HD
ENDBRANCH  27  30
ENDBRANCH   1  24
TORSDOF 8
ENDMDL
MODEL 3
REMARK VINA RESULT:      -9.1      1.238      2.010
REMARK  8 active torsions:
REMARK  status: ('A' for Active; 'I' for Inactive)
REMARK    1  A    between atoms: C2_2  and  C3_3 
REMARK       I    between atoms: C3_3  and  N1_5 
REMARK    2  A    between atoms: N1_5  and  C4_6 
REMARK    3  A    between atoms: N2_10  and  C8_11 
REMARK    4  A    between atoms: C8_11  and  C9_12 
REMARK    5  A    between atoms: C8_11  and  C15_19 
REMARK    6  A    between atoms: C9_12  and  C10_13 
REMARK    7  A    between atoms: C18_22  and  N4_23 
REMARK    8  A    between atoms: C22_27  and  O2_28 
ROOT
HETATM    1  C8  UNL     1      25.711   1.957  52.162  1.00  0.00     0.147 C 
ENDROOT
BRANCH   1   2
HETATM    2  N2  UNL     1      24.713   1.018  52.532  1.00  0.00    -0.283 NA
HETATM    3  C7  UNL     1      23.509   0.949  52.711  1.00  0.00     0.035 A 
HETATM    4  C6  UNL     1      23.299  -0.494  53.103  1.00  0.00     0.088 A 
HETATM    5  C21 UNL     1      22.279   1.719  52.680  1.00  0.00     0.066 A 
HETATM    6  C5  UNL     1      21.871  -0.794  53.370  1.00  0.00     0.012 A 
HETATM    7  C4  UNL     1      20.783  -0.062  53.331  1.00  0.00     0.065 A 
HETATM    8  C22 UNL     1      21.056   1.313  52.946  1.00  0.00     0.096 A 
BRANCH   7   9
HETATM    9  N1  UNL     1      19.449  -0.441  53.606  1.00  0.00    -0.325 N 
HETATM   10  C3  UNL     1      18.373  -0.674  52.726  1.00  0.00     0.221 C 
HETATM   11  O1  UNL     1      18.566  -0.542  51.492  1.00  0.00    -0.273 OA
HETATM   12  H6  UNL     1      19.167  -0.580  54.598  1.00  0.00     0.169 HD
BRANCH  10  13
HETATM   13  C2  UNL     1      17.011  -1.070  53.150  1.00  0.00     0.098 C 
HETATM   14  C1  UNL     1      16.941  -2.563  53.206  1.00  0.00     0.014 C 
ENDBRANCH  10  13
ENDBRANCH   7   9
BRANCH   8  15
HETATM   15  O2  UNL     1      20.059   2.270  52.838  1.00  0.00    -0.354 OA
HETATM   16  C23 UNL     1      19.697   2.818  51.600  1.00  0.00     0.210 C 
ENDBRANCH   8  15
ENDBRANCH   1   2
BRANCH   1  17
HETATM   17  C9  UNL     1      25.683   2.253  50.722  1.00  0.00     0.091 C 
BRANCH  17  18
HETATM   18  C10 UNL     1      25.655   3.714  50.364  1.00  0.00     0.036 A 
HETATM   19  C11 UNL     1      26.604   4.064  49.388  1.00  0.00     0.027 A 
HETATM   20  C12 UNL     1      26.832   5.304  48.842  1.00  0.00     0.003 A 
HETATM   21  C13 UNL     1      26.046   6.338  49.294  1.00  0.00     0.019 A 
HETATM   22  C14 UNL     1      25.106   6.033  50.250  1.00  0.00     0.117 A 
HETATM   23  N3  UNL     1      24.972   4.811  50.703  1.00  0.00    -0.265 NA
ENDBRANCH  17  18
ENDBRANCH   1  17
BRANCH   1  24
HETATM   24  C15 UNL     1      26.986   1.404  52.708  1.00  0.00    -0.033 A 
HETATM   25  C16 UNL     1      28.109   1.876  53.342  1.00  0.00     0.011 A 
HETATM   26  C17 UNL     1      29.127   1.061  53.756  1.00  0.00     0.029 A 
HETATM   27  C18 UNL     1      29.070  -0.299  53.552  1.00  0.00     0.025 A 
HETATM   28  C19 UNL     1      27.968  -0.825  52.921  1.00  0.00     0.029 A 
HETATM   29  C20 UNL     1      26.934   0.012  52.502  1.00  0.00     0.011 A 
BRANCH  27  30
HETATM   30  N4  UNL     1      30.197  -1.022  54.034  1.00  0.00    -0.399 N 
HETATM   31  H19 UNL     1      30.750  -0.403  54.678  1.00  0.00     0.156 HD
HETATM   32  H20 UNL     1      30.315  -2.004  53.706  1.00  0.00     0.156 HD
ENDBRANCH  27  30
ENDBRANCH   1  24
TORSDOF 8
ENDMDL
MODEL 4
REMARK VINA RESULT:      -8.9      2.862      7.477
REMARK  8 active torsions:
REMARK  status: ('A' for Active; 'I' for Inactive)
REMARK    1  A    between atoms: C2_2  and  C3_3 
REMARK       I    between atoms: C3_3  and  N1_5 
REMARK    2  A    between atoms: N1_5  and  C4_6 
REMARK    3  A    between atoms: N2_10  and  C8_11 
REMARK    4  A    between atoms: C8_11  and  C9_12 
REMARK    5  A    between atoms: C8_11  and  C15_19 
REMARK    6  A    between atoms: C9_12  and  C10_13 
REMARK    7  A    between atoms: C18_22  and  N4_23 
REMARK    8  A    between atoms: C22_27  and  O2_28 
ROOT
HETATM    1  C8  UNL     1      20.586   1.408  52.041  1.00  0.00     0.147 C 
ENDROOT
BRANCH   1   2
HETATM    2  N2  UNL     1      21.760   0.745  52.484  1.00  0.00    -0.283 NA
HETATM    3  C7  UNL     1      22.972   0.815  52.382  1.00  0.00     0.035 A 
HETATM    4  C6  UNL     1      23.458  -0.344  53.220  1.00  0.00     0.088 A 
HETATM    5  C21 UNL     1      24.051   1.575  51.775  1.00  0.00     0.066 A 
HETATM    6  C5  UNL     1      24.939  -0.439  53.229  1.00  0.00     0.012 A 
HETATM    7  C4  UNL     1      25.882   0.275  52.662  1.00  0.00     0.065 A 
HETATM    8  C22 UNL     1      25.347   1.372  51.873  1.00  0.00     0.096 A 
BRANCH   7   9
HETATM    9  N1  UNL     1      27.285   0.104  52.730  1.00  0.00    -0.325 N 
HETATM   10  C3  UNL     1      28.187   0.416  53.766  1.00  0.00     0.221 C 
HETATM   11  O1  UNL     1      27.737   0.925  54.822  1.00  0.00    -0.273 OA
HETATM   12  H6  UNL     1      27.773  -0.311  51.911  1.00  0.00     0.169 HD
BRANCH  10  13
HETATM   13  C2  UNL     1      29.648   0.184  53.707  1.00  0.00     0.098 C 
HETATM   14  C1  UNL     1      29.897  -1.290  53.650  1.00  0.00     0.014 C 
ENDBRANCH  10  13
ENDBRANCH   7   9
BRANCH   8  15
HETATM   15  O2  UNL     1      26.157   2.259  51.182  1.00  0.00    -0.354 OA
HETATM   16  C23 UNL     1      25.623   3.337  50.465  1.00  0.00     0.210 C 
ENDBRANCH   8  15
ENDBRANCH   1   2
BRANCH   1  17
HETATM   17  C9  UNL     1      20.417   2.720  52.683  1.00  0.00     0.091 C 
BRANCH  17  18
HETATM   18  C10 UNL     1      20.728   3.909  51.814  1.00  0.00     0.036 A 
HETATM   19  C11 UNL     1      21.968   4.501  52.108  1.00  0.00     0.027 A 
HETATM   20  C12 UNL     1      22.547   5.589  51.501  1.00  0.00     0.003 A 
HETATM   21  C13 UNL     1      21.840   6.182  50.480  1.00  0.00     0.019 A 
HETATM   22  C14 UNL     1      20.621   5.629  50.165  1.00  0.00     0.117 A 
HETATM   23  N3  UNL     1      20.162   4.586  50.811  1.00  0.00    -0.265 NA
ENDBRANCH  17  18
ENDBRANCH   1  17
BRANCH   1  24
HETATM   24  C15 UNL     1      19.484   0.419  52.237  1.00  0.00    -0.033 A 
HETATM   25  C16 UNL     1      18.297   0.088  51.632  1.00  0.00     0.011 A 
HETATM   26  C17 UNL     1      17.503  -0.939  52.065  1.00  0.00     0.029 A 
HETATM   27  C18 UNL     1      17.866  -1.702  53.151  1.00  0.00     0.025 A 
HETATM   28  C19 UNL     1      19.045  -1.413  53.795  1.00  0.00     0.029 A 
HETATM   29  C20 UNL     1      19.849  -0.365  53.348  1.00  0.00     0.011 A 
BRANCH  27  30
HETATM   30  N4  UNL     1      16.946  -2.734  53.489  1.00  0.00    -0.399 N 
HETATM   31  H19 UNL     1      16.027  -2.540  53.020  1.00  0.00     0.156 HD
HETATM   32  H20 UNL     1      17.284  -3.495  54.115  1.00  0.00     0.156 HD
ENDBRANCH  27  30
ENDBRANCH   1  24
TORSDOF 8
ENDMDL
MODEL 5
REMARK VINA RESULT:      -8.9      2.613      7.388
REMARK  8 active torsions:
REMARK  status: ('A' for Active; 'I' for Inactive)
REMARK    1  A    between atoms: C2_2  and  C3_3 
REMARK       I    between atoms: C3_3  and  N1_5 
REMARK    2  A    between atoms: N1_5  and  C4_6 
REMARK    3  A    between atoms: N2_10  and  C8_11 
REMARK    4  A    between atoms: C8_11  and  C9_12 
REMARK    5  A    between atoms: C8_11  and  C15_19 
REMARK    6  A    between atoms: C9_12  and  C10_13 
REMARK    7  A    between atoms: C18_22  and  N4_23 
REMARK    8  A    between atoms: C22_27  and  O2_28 
ROOT
HETATM    1  C8  UNL     1      24.628   0.450  53.468  1.00  0.00     0.147 C 
ENDROOT
BRANCH   1   2
HETATM    2  N2  UNL     1      25.015   1.236  52.350  1.00  0.00    -0.283 NA
HETATM    3  C7  UNL     1      24.810   2.332  51.859  1.00  0.00     0.035 A 
HETATM    4  C6  UNL     1      25.677   2.323  50.622  1.00  0.00     0.088 A 
HETATM    5  C21 UNL     1      24.072   3.570  52.033  1.00  0.00     0.066 A 
HETATM    6  C5  UNL     1      25.572   3.594  49.863  1.00  0.00     0.012 A 
HETATM    7  C4  UNL     1      24.887   4.696  50.057  1.00  0.00     0.065 A 
HETATM    8  C22 UNL     1      24.077   4.637  51.263  1.00  0.00     0.096 A 
BRANCH   7   9
HETATM    9  N1  UNL     1      24.851   5.869  49.268  1.00  0.00    -0.325 N 
HETATM   10  C3  UNL     1      23.978   6.232  48.224  1.00  0.00     0.221 C 
HETATM   11  O1  UNL     1      23.067   5.432  47.896  1.00  0.00    -0.273 OA
HETATM   12  H6  UNL     1      25.560   6.608  49.447  1.00  0.00     0.169 HD
BRANCH  10  13
HETATM   13  C2  UNL     1      24.051   7.505  47.472  1.00  0.00     0.098 C 
HETATM   14  C1  UNL     1      25.490   7.841  47.236  1.00  0.00     0.014 C 
ENDBRANCH  10  13
ENDBRANCH   7   9
BRANCH   8  15
HETATM   15  O2  UNL     1      23.268   5.686  51.671  1.00  0.00    -0.354 OA
HETATM   16  C23 UNL     1      21.891   5.696  51.416  1.00  0.00     0.210 C 
ENDBRANCH   8  15
ENDBRANCH   1   2
BRANCH   1  17
HETATM   17  C9  UNL     1      25.486  -0.732  53.635  1.00  0.00     0.091 C 
BRANCH  17  18
HETATM   18  C10 UNL     1      26.947  -0.444  53.850  1.00  0.00     0.036 A 
HETATM   19  C11 UNL     1      27.793  -1.331  53.162  1.00  0.00     0.027 A 
HETATM   20  C12 UNL     1      29.168  -1.339  53.143  1.00  0.00     0.003 A 
HETATM   21  C13 UNL     1      29.807  -0.368  53.879  1.00  0.00     0.019 A 
HETATM   22  C14 UNL     1      29.010   0.517  54.565  1.00  0.00     0.117 A 
HETATM   23  N3  UNL     1      27.704   0.434  54.514  1.00  0.00    -0.265 NA
ENDBRANCH  17  18
ENDBRANCH   1  17
BRANCH   1  24
HETATM   24  C15 UNL     1      23.168   0.198  53.278  1.00  0.00    -0.033 A 
HETATM   25  C16 UNL     1      22.221   0.400  52.305  1.00  0.00     0.011 A 
HETATM   26  C17 UNL     1      20.917   0.006  52.443  1.00  0.00     0.029 A 
HETATM   27  C18 UNL     1      20.488  -0.623  53.589  1.00  0.00     0.025 A 
HETATM   28  C19 UNL     1      21.395  -0.850  54.596  1.00  0.00     0.029 A 
HETATM   29  C20 UNL     1      22.722  -0.446  54.448  1.00  0.00     0.011 A 
BRANCH  27  30
HETATM   30  N4  UNL     1      19.110  -0.976  53.595  1.00  0.00    -0.399 N 
HETATM   31  H19 UNL     1      18.999  -1.914  54.054  1.00  0.00     0.156 HD
HETATM   32  H20 UNL     1      18.438  -0.301  53.172  1.00  0.00     0.156 HD
ENDBRANCH  27  30
ENDBRANCH   1  24
TORSDOF 8
ENDMDL
MODEL 6
REMARK VINA RESULT:      -8.6      2.896      7.639
REMARK  8 active torsions:
REMARK  status: ('A' for Active; 'I' for Inactive)
REMARK    1  A    between atoms: C2_2  and  C3_3 
REMARK       I    between atoms: C3_3  and  N1_5 
REMARK    2  A    between atoms: N1_5  and  C4_6 
REMARK    3  A    between atoms: N2_10  and  C8_11 
REMARK    4  A    between atoms: C8_11  and  C9_12 
REMARK    5  A    between atoms: C8_11  and  C15_19 
REMARK    6  A    between atoms: C9_12  and  C10_13 
REMARK    7  A    between atoms: C18_22  and  N4_23 
REMARK    8  A    between atoms: C22_27  and  O2_28 
ROOT
HETATM    1  C8  UNL     1      25.013   0.997  51.987  1.00  0.00     0.147 C 
ENDROOT
BRANCH   1   2
HETATM    2  N2  UNL     1      25.549   2.042  51.190  1.00  0.00    -0.283 NA
HETATM    3  C7  UNL     1      25.207   3.080  50.651  1.00  0.00     0.035 A 
HETATM    4  C6  UNL     1      26.477   3.560  49.989  1.00  0.00     0.088 A 
HETATM    5  C21 UNL     1      24.078   3.966  50.433  1.00  0.00     0.066 A 
HETATM    6  C5  UNL     1      26.274   4.838  49.262  1.00  0.00     0.012 A 
HETATM    7  C4  UNL     1      25.228   5.611  49.090  1.00  0.00     0.065 A 
HETATM    8  C22 UNL     1      24.043   5.091  49.752  1.00  0.00     0.096 A 
BRANCH   7   9
HETATM    9  N1  UNL     1      25.131   6.825  48.371  1.00  0.00    -0.325 N 
HETATM   10  C3  UNL     1      25.460   8.138  48.762  1.00  0.00     0.221 C 
HETATM   11  O1  UNL     1      25.919   8.325  49.915  1.00  0.00    -0.273 OA
HETATM   12  H6  UNL     1      24.762   6.797  47.399  1.00  0.00     0.169 HD
BRANCH  10  13
HETATM   13  C2  UNL     1      25.307   9.333  47.902  1.00  0.00     0.098 C 
HETATM   14  C1  UNL     1      26.013  10.483  48.549  1.00  0.00     0.014 C 
ENDBRANCH  10  13
ENDBRANCH   7   9
BRANCH   8  15
HETATM   15  O2  UNL     1      22.819   5.739  49.708  1.00  0.00    -0.354 OA
HETATM   16  C23 UNL     1      22.399   6.591  50.738  1.00  0.00     0.210 C 
ENDBRANCH   8  15
ENDBRANCH   1   2
BRANCH   1  17
HETATM   17  C9  UNL     1      24.129   1.507  53.045  1.00  0.00     0.091 C 
BRANCH  17  18
HETATM   18  C10 UNL     1      22.868   0.716  53.270  1.00  0.00     0.036 A 
HETATM   19  C11 UNL     1      23.070  -0.440  54.042  1.00  0.00     0.027 A 
HETATM   20  C12 UNL     1      22.134  -1.367  54.430  1.00  0.00     0.003 A 
HETATM   21  C13 UNL     1      20.838  -1.153  54.022  1.00  0.00     0.019 A 
HETATM   22  C14 UNL     1      20.603  -0.031  53.263  1.00  0.00     0.117 A 
HETATM   23  N3  UNL     1      21.573   0.791  52.949  1.00  0.00    -0.265 NA
ENDBRANCH  17  18
ENDBRANCH   1  17
BRANCH   1  24
HETATM   24  C15 UNL     1      26.196   0.200  52.428  1.00  0.00    -0.033 A 
HETATM   25  C16 UNL     1      26.573  -1.119  52.472  1.00  0.00     0.011 A 
HETATM   26  C17 UNL     1      27.796  -1.529  52.929  1.00  0.00     0.029 A 
HETATM   27  C18 UNL     1      28.724  -0.616  53.376  1.00  0.00     0.025 A 
HETATM   28  C19 UNL     1      28.399   0.719  53.355  1.00  0.00     0.029 A 
HETATM   29  C20 UNL     1      27.150   1.128  52.887  1.00  0.00     0.011 A 
BRANCH  27  30
HETATM   30  N4  UNL     1      29.950  -1.183  53.822  1.00  0.00    -0.399 N 
HETATM   31  H19 UNL     1      30.725  -0.862  53.190  1.00  0.00     0.156 HD
HETATM   32  H20 UNL     1      29.920  -1.799  54.662  1.00  0.00     0.156 HD
ENDBRANCH  27  30
ENDBRANCH   1  24
TORSDOF 8
ENDMDL
MODEL 7
REMARK VINA RESULT:      -8.5      3.308      8.593
REMARK  8 active torsions:
REMARK  status: ('A' for Active; 'I' for Inactive)
REMARK    1  A    between atoms: C2_2  and  C3_3 
REMARK       I    between atoms: C3_3  and  N1_5 
REMARK    2  A    between atoms: N1_5  and  C4_6 
REMARK    3  A    between atoms: N2_10  and  C8_11 
REMARK    4  A    between atoms: C8_11  and  C9_12 
REMARK    5  A    between atoms: C8_11  and  C15_19 
REMARK    6  A    between atoms: C9_12  and  C10_13 
REMARK    7  A    between atoms: C18_22  and  N4_23 
REMARK    8  A    between atoms: C22_27  and  O2_28 
ROOT
HETATM    1  C8  UNL     1      23.690   1.853  52.639  1.00  0.00     0.147 C 
ENDROOT
BRANCH   1   2
HETATM    2  N2  UNL     1      24.688   2.257  51.714  1.00  0.00    -0.283 NA
HETATM    3  C7  UNL     1      25.029   3.233  51.069  1.00  0.00     0.035 A 
HETATM    4  C6  UNL     1      26.248   2.746  50.323  1.00  0.00     0.088 A 
HETATM    5  C21 UNL     1      24.697   4.617  50.783  1.00  0.00     0.066 A 
HETATM    6  C5  UNL     1      26.830   3.804  49.461  1.00  0.00     0.012 A 
HETATM    7  C4  UNL     1      26.495   5.052  49.230  1.00  0.00     0.065 A 
HETATM    8  C22 UNL     1      25.317   5.455  49.980  1.00  0.00     0.096 A 
BRANCH   7   9
HETATM    9  N1  UNL     1      27.119   5.995  48.381  1.00  0.00    -0.325 N 
HETATM   10  C3  UNL     1      28.483   6.179  48.078  1.00  0.00     0.221 C 
HETATM   11  O1  UNL     1      29.326   5.418  48.613  1.00  0.00    -0.273 OA
HETATM   12  H6  UNL     1      26.520   6.683  47.880  1.00  0.00     0.169 HD
BRANCH  10  13
HETATM   13  C2  UNL     1      29.007   7.217  47.161  1.00  0.00     0.098 C 
HETATM   14  C1  UNL     1      30.267   7.778  47.741  1.00  0.00     0.014 C 
ENDBRANCH  10  13
ENDBRANCH   7   9
BRANCH   8  15
HETATM   15  O2  UNL     1      24.779   6.729  49.896  1.00  0.00    -0.354 OA
HETATM   16  C23 UNL     1      24.069   7.301  50.960  1.00  0.00     0.210 C 
ENDBRANCH   8  15
ENDBRANCH   1   2
BRANCH   1  17
HETATM   17  C9  UNL     1      23.994   0.548  53.244  1.00  0.00     0.091 C 
BRANCH  17  18
HETATM   18  C10 UNL     1      25.444   0.310  53.571  1.00  0.00     0.036 A 
HETATM   19  C11 UNL     1      26.043  -0.663  52.754  1.00  0.00     0.027 A 
HETATM   20  C12 UNL     1      27.344  -1.105  52.788  1.00  0.00     0.003 A 
HETATM   21  C13 UNL     1      28.171  -0.538  53.729  1.00  0.00     0.019 A 
HETATM   22  C14 UNL     1      27.617   0.418  54.548  1.00  0.00     0.117 A 
HETATM   23  N3  UNL     1      26.361   0.767  54.429  1.00  0.00    -0.265 NA
ENDBRANCH  17  18
ENDBRANCH   1  17
BRANCH   1  24
HETATM   24  C15 UNL     1      22.401   1.962  51.892  1.00  0.00    -0.033 A 
HETATM   25  C16 UNL     1      21.373   2.863  51.767  1.00  0.00     0.011 A 
HETATM   26  C17 UNL     1      20.305   2.662  50.935  1.00  0.00     0.029 A 
HETATM   27  C18 UNL     1      20.211   1.521  50.171  1.00  0.00     0.025 A 
HETATM   28  C19 UNL     1      21.213   0.584  50.258  1.00  0.00     0.029 A 
HETATM   29  C20 UNL     1      22.298   0.797  51.108  1.00  0.00     0.011 A 
BRANCH  27  30
HETATM   30  N4  UNL     1      19.048   1.445  49.354  1.00  0.00    -0.399 N 
HETATM   31  H19 UNL     1      18.574   2.382  49.346  1.00  0.00     0.156 HD
HETATM   32  H20 UNL     1      18.836   0.530  48.903  1.00  0.00     0.156 HD
ENDBRANCH  27  30
ENDBRANCH   1  24
TORSDOF 8
ENDMDL
MODEL 8
REMARK VINA RESULT:      -8.4      2.880      3.794
REMARK  8 active torsions:
REMARK  status: ('A' for Active; 'I' for Inactive)
REMARK    1  A    between atoms: C2_2  and  C3_3 
REMARK       I    between atoms: C3_3  and  N1_5 
REMARK    2  A    between atoms: N1_5  and  C4_6 
REMARK    3  A    between atoms: N2_10  and  C8_11 
REMARK    4  A    between atoms: C8_11  and  C9_12 
REMARK    5  A    between atoms: C8_11  and  C15_19 
REMARK    6  A    between atoms: C9_12  and  C10_13 
REMARK    7  A    between atoms: C18_22  and  N4_23 
REMARK    8  A    between atoms: C22_27  and  O2_28 
ROOT
HETATM    1  C8  UNL     1      26.141   3.077  50.729  1.00  0.00     0.147 C 
ENDROOT
BRANCH   1   2
HETATM    2  N2  UNL     1      24.805   2.601  50.666  1.00  0.00    -0.283 NA
HETATM    3  C7  UNL     1      23.669   3.013  50.512  1.00  0.00     0.035 A 
HETATM    4  C6  UNL     1      22.833   1.758  50.591  1.00  0.00     0.088 A 
HETATM    5  C21 UNL     1      22.883   4.212  50.290  1.00  0.00     0.066 A 
HETATM    6  C5  UNL     1      21.386   2.044  50.423  1.00  0.00     0.012 A 
HETATM    7  C4  UNL     1      20.713   3.152  50.224  1.00  0.00     0.065 A 
HETATM    8  C22 UNL     1      21.578   4.319  50.158  1.00  0.00     0.096 A 
BRANCH   7   9
HETATM    9  N1  UNL     1      19.318   3.328  50.076  1.00  0.00    -0.325 N 
HETATM   10  C3  UNL     1      18.324   3.550  51.049  1.00  0.00     0.221 C 
HETATM   11  O1  UNL     1      18.667   3.614  52.255  1.00  0.00    -0.273 OA
HETATM   12  H6  UNL     1      18.914   3.295  49.117  1.00  0.00     0.169 HD
BRANCH  10  13
HETATM   13  C2  UNL     1      16.883   3.719  50.755  1.00  0.00     0.098 C 
HETATM   14  C1  UNL     1      16.214   4.312  51.955  1.00  0.00     0.014 C 
ENDBRANCH  10  13
ENDBRANCH   7   9
BRANCH   8  15
HETATM   15  O2  UNL     1      21.089   5.600  49.954  1.00  0.00    -0.354 OA
HETATM   16  C23 UNL     1      21.941   6.709  49.874  1.00  0.00     0.210 C 
ENDBRANCH   8  15
ENDBRANCH   1   2
BRANCH   1  17
HETATM   17  C9  UNL     1      26.778   3.112  49.404  1.00  0.00     0.091 C 
BRANCH  17  18
HETATM   18  C10 UNL     1      27.244   4.469  48.948  1.00  0.00     0.036 A 
HETATM   19  C11 UNL     1      26.219   5.430  48.936  1.00  0.00     0.027 A 
HETATM   20  C12 UNL     1      26.312   6.755  48.580  1.00  0.00     0.003 A 
HETATM   21  C13 UNL     1      27.549   7.209  48.186  1.00  0.00     0.019 A 
HETATM   22  C14 UNL     1      28.576   6.294  48.185  1.00  0.00     0.117 A 
HETATM   23  N3  UNL     1      28.376   5.051  48.545  1.00  0.00    -0.265 NA
ENDBRANCH  17  18
ENDBRANCH   1  17
BRANCH   1  24
HETATM   24  C15 UNL     1      26.805   2.235  51.770  1.00  0.00    -0.033 A 
HETATM   25  C16 UNL     1      27.646   2.418  52.839  1.00  0.00     0.011 A 
HETATM   26  C17 UNL     1      28.060   1.391  53.644  1.00  0.00     0.029 A 
HETATM   27  C18 UNL     1      27.642   0.101  53.412  1.00  0.00     0.025 A 
HETATM   28  C19 UNL     1      26.798  -0.139  52.354  1.00  0.00     0.029 A 
HETATM   29  C20 UNL     1      26.381   0.913  51.538  1.00  0.00     0.011 A 
BRANCH  27  30
HETATM   30  N4  UNL     1      28.149  -0.864  54.327  1.00  0.00    -0.399 N 
HETATM   31  H19 UNL     1      27.410  -1.589  54.505  1.00  0.00     0.156 HD
HETATM   32  H20 UNL     1      29.123  -0.732  54.675  1.00  0.00     0.156 HD
ENDBRANCH  27  30
ENDBRANCH   1  24
TORSDOF 8
ENDMDL
MODEL 9
REMARK VINA RESULT:      -8.3      2.288      5.239
REMARK  8 active torsions:
REMARK  status: ('A' for Active; 'I' for Inactive)
REMARK    1  A    between atoms: C2_2  and  C3_3 
REMARK       I    between atoms: C3_3  and  N1_5 
REMARK    2  A    between atoms: N1_5  and  C4_6 
REMARK    3  A    between atoms: N2_10  and  C8_11 
REMARK    4  A    between atoms: C8_11  and  C9_12 
REMARK    5  A    between atoms: C8_11  and  C15_19 
REMARK    6  A    between atoms: C9_12  and  C10_13 
REMARK    7  A    between atoms: C18_22  and  N4_23 
REMARK    8  A    between atoms: C22_27  and  O2_28 
ROOT
HETATM    1  C8  UNL     1      24.853   1.024  53.055  1.00  0.00     0.147 C 
ENDROOT
BRANCH   1   2
HETATM    2  N2  UNL     1      23.575   0.531  53.430  1.00  0.00    -0.283 NA
HETATM    3  C7  UNL     1      22.454   0.390  52.975  1.00  0.00     0.035 A 
HETATM    4  C6  UNL     1      21.695  -0.244  54.116  1.00  0.00     0.088 A 
HETATM    5  C21 UNL     1      21.639   0.602  51.792  1.00  0.00     0.066 A 
HETATM    6  C5  UNL     1      20.278  -0.505  53.762  1.00  0.00     0.012 A 
HETATM    7  C4  UNL     1      19.577  -0.296  52.673  1.00  0.00     0.065 A 
HETATM    8  C22 UNL     1      20.367   0.314  51.616  1.00  0.00     0.096 A 
BRANCH   7   9
HETATM    9  N1  UNL     1      18.214  -0.581  52.427  1.00  0.00    -0.325 N 
HETATM   10  C3  UNL     1      17.409  -1.638  52.898  1.00  0.00     0.221 C 
HETATM   11  O1  UNL     1      17.925  -2.491  53.661  1.00  0.00    -0.273 OA
HETATM   12  H6  UNL     1      17.678   0.059  51.806  1.00  0.00     0.169 HD
BRANCH  10  13
HETATM   13  C2  UNL     1      15.980  -1.821  52.560  1.00  0.00     0.098 C 
HETATM   14  C1  UNL     1      15.712  -1.168  51.241  1.00  0.00     0.014 C 
ENDBRANCH  10  13
ENDBRANCH   7   9
BRANCH   8  15
HETATM   15  O2  UNL     1      19.838   0.628  50.375  1.00  0.00    -0.354 OA
HETATM   16  C23 UNL     1      19.399   1.923  50.068  1.00  0.00     0.210 C 
ENDBRANCH   8  15
ENDBRANCH   1   2
BRANCH   1  17
HETATM   17  C9  UNL     1      25.729   1.230  54.218  1.00  0.00     0.091 C 
BRANCH  17  18
HETATM   18  C10 UNL     1      27.117   0.662  54.089  1.00  0.00     0.036 A 
HETATM   19  C11 UNL     1      27.158  -0.541  53.364  1.00  0.00     0.027 A 
HETATM   20  C12 UNL     1      28.260  -1.305  53.063  1.00  0.00     0.003 A 
HETATM   21  C13 UNL     1      29.476  -0.852  53.519  1.00  0.00     0.019 A 
HETATM   22  C14 UNL     1      29.473   0.322  54.234  1.00  0.00     0.117 A 
HETATM   23  N3  UNL     1      28.360   0.974  54.464  1.00  0.00    -0.265 NA
ENDBRANCH  17  18
ENDBRANCH   1  17
BRANCH   1  24
HETATM   24  C15 UNL     1      24.573   2.220  52.206  1.00  0.00    -0.033 A 
HETATM   25  C16 UNL     1      24.595   2.547  50.873  1.00  0.00     0.011 A 
HETATM   26  C17 UNL     1      24.235   3.781  50.403  1.00  0.00     0.029 A 
HETATM   27  C18 UNL     1      23.826   4.772  51.266  1.00  0.00     0.025 A 
HETATM   28  C19 UNL     1      23.786   4.500  52.612  1.00  0.00     0.029 A 
HETATM   29  C20 UNL     1      24.155   3.239  53.083  1.00  0.00     0.011 A 
BRANCH  27  30
HETATM   30  N4  UNL     1      23.483   6.003  50.640  1.00  0.00    -0.399 N 
HETATM   31  H19 UNL     1      24.060   6.117  49.770  1.00  0.00     0.156 HD
HETATM   32  H20 UNL     1      22.752   6.589  51.097  1.00  0.00     0.156 HD
ENDBRANCH  27  30
ENDBRANCH   1  24
TORSDOF 8
ENDMDL
