MODEL 1
REMARK VINA RESULT:      -8.0      0.000      0.000
REMARK  2 active torsions:
REMARK  status: ('A' for Active; 'I' for Inactive)
REMARK    1  A    between atoms: O1_2  and  C2_3 
REMARK    2  A    between atoms: C14_18  and  O2_19 
ROOT
HETATM    1  C2  UNL     1      26.735   1.528  52.664  1.00  0.00     0.115 C 
HETATM    2  C3  UNL     1      25.413   1.592  52.646  1.00  0.00     0.045 C 
HETATM    3  C4  UNL     1      24.808   0.606  53.248  1.00  0.00     0.076 C 
HETATM    4  N1  UNL     1      23.534   0.470  52.647  1.00  0.00    -0.352 N 
HETATM    5  C5  UNL     1      22.278  -0.042  53.089  1.00  0.00     0.061 A 
HETATM    6  C6  UNL     1      21.359   0.472  52.179  1.00  0.00     0.032 A 
HETATM    7  C7  UNL     1      20.027   0.125  52.375  1.00  0.00     0.002 A 
HETATM    8  C8  UNL     1      19.661  -0.692  53.432  1.00  0.00     0.002 A 
HETATM    9  C9  UNL     1      20.606  -1.177  54.307  1.00  0.00     0.034 A 
HETATM   10  C10 UNL     1      21.940  -0.857  54.148  1.00  0.00     0.084 A 
HETATM   11  N2  UNL     1      22.645  -1.509  55.206  1.00  0.00    -0.240 NA
HETATM   12  C11 UNL     1      23.874  -1.521  55.603  1.00  0.00     0.234 C 
HETATM   13  N3  UNL     1      25.131  -0.950  55.259  1.00  0.00    -0.240 NA
HETATM   14  C12 UNL     1      25.487  -0.121  54.338  1.00  0.00     0.088 C 
HETATM   15  C13 UNL     1      26.917   0.033  54.558  1.00  0.00     0.073 C 
HETATM   16  C14 UNL     1      27.507   0.859  53.708  1.00  0.00     0.104 C 
HETATM   17  H4  UNL     1      23.545   0.825  51.684  1.00  0.00     0.166 HD
ENDROOT
BRANCH   1  18
HETATM   18  O1  UNL     1      27.249   2.183  51.553  1.00  0.00    -0.352 OA
HETATM   19  C1  UNL     1      26.500   2.952  50.649  1.00  0.00     0.210 C 
ENDBRANCH   1  18
BRANCH  16  20
HETATM   20  O2  UNL     1      28.845   1.144  53.742  1.00  0.00    -0.353 OA
HETATM   21  C15 UNL     1      29.835   0.157  53.654  1.00  0.00     0.210 C 
ENDBRANCH  16  20
TORSDOF 2
ENDMDL
MODEL 2
REMARK VINA RESULT:      -7.4      2.538      5.849
REMARK  2 active torsions:
REMARK  status: ('A' for Active; 'I' for Inactive)
REMARK    1  A    between atoms: O1_2  and  C2_3 
REMARK    2  A    between atoms: C14_18  and  O2_19 
ROOT
HETATM    1  C2  UNL     1      22.193   1.353  51.450  1.00  0.00     0.115 C 
HETATM    2  C3  UNL     1      23.513   1.430  51.523  1.00  0.00     0.045 C 
HETATM    3  C4  UNL     1      24.030   0.966  52.627  1.00  0.00     0.076 C 
HETATM    4  N1  UNL     1      25.257   1.641  52.828  1.00  0.00    -0.352 N 
HETATM    5  C5  UNL     1      26.465   1.318  53.514  1.00  0.00     0.061 A 
HETATM    6  C6  UNL     1      27.400   2.214  53.002  1.00  0.00     0.032 A 
HETATM    7  C7  UNL     1      28.693   2.121  53.506  1.00  0.00     0.002 A 
HETATM    8  C8  UNL     1      29.007   1.176  54.468  1.00  0.00     0.002 A 
HETATM    9  C9  UNL     1      28.049   0.311  54.945  1.00  0.00     0.034 A 
HETATM   10  C10 UNL     1      26.753   0.369  54.471  1.00  0.00     0.084 A 
HETATM   11  N2  UNL     1      26.022  -0.648  55.159  1.00  0.00    -0.240 NA
HETATM   12  C11 UNL     1      24.815  -1.102  55.086  1.00  0.00     0.234 C 
HETATM   13  N3  UNL     1      23.616  -0.884  54.353  1.00  0.00    -0.240 NA
HETATM   14  C12 UNL     1      23.317  -0.074  53.394  1.00  0.00     0.088 C 
HETATM   15  C13 UNL     1      21.922  -0.379  53.117  1.00  0.00     0.073 C 
HETATM   16  C14 UNL     1      21.393   0.348  52.145  1.00  0.00     0.104 C 
HETATM   17  H4  UNL     1      25.248   2.559  52.370  1.00  0.00     0.166 HD
ENDROOT
BRANCH   1  18
HETATM   18  O1  UNL     1      21.712   2.362  50.627  1.00  0.00    -0.352 OA
HETATM   19  C1  UNL     1      22.408   3.534  50.291  1.00  0.00     0.210 C 
ENDBRANCH   1  18
BRANCH  16  20
HETATM   20  O2  UNL     1      20.097   0.218  51.728  1.00  0.00    -0.353 OA
HETATM   21  C15 UNL     1      19.075  -0.262  52.557  1.00  0.00     0.210 C 
ENDBRANCH  16  20
TORSDOF 2
ENDMDL
MODEL 3
REMARK VINA RESULT:      -7.4      3.098      6.083
REMARK  2 active torsions:
REMARK  status: ('A' for Active; 'I' for Inactive)
REMARK    1  A    between atoms: O1_2  and  C2_3 
REMARK    2  A    between atoms: C14_18  and  O2_19 
ROOT
HETATM    1  C2  UNL     1      25.522   4.276  49.390  1.00  0.00     0.115 C 
HETATM    2  C3  UNL     1      26.426   3.596  50.077  1.00  0.00     0.045 C 
HETATM    3  C4  UNL     1      25.953   2.916  51.085  1.00  0.00     0.076 C 
HETATM    4  N1  UNL     1      27.001   2.781  52.025  1.00  0.00    -0.352 N 
HETATM    5  C5  UNL     1      27.302   1.829  53.045  1.00  0.00     0.061 A 
HETATM    6  C6  UNL     1      28.648   2.046  53.328  1.00  0.00     0.032 A 
HETATM    7  C7  UNL     1      29.216   1.238  54.308  1.00  0.00     0.002 A 
HETATM    8  C8  UNL     1      28.457   0.275  54.953  1.00  0.00     0.002 A 
HETATM    9  C9  UNL     1      27.129   0.099  54.639  1.00  0.00     0.034 A 
HETATM   10  C10 UNL     1      26.526   0.879  53.673  1.00  0.00     0.084 A 
HETATM   11  N2  UNL     1      25.167   0.448  53.589  1.00  0.00    -0.240 NA
HETATM   12  C11 UNL     1      24.164   0.753  52.834  1.00  0.00     0.234 C 
HETATM   13  N3  UNL     1      23.847   1.613  51.747  1.00  0.00    -0.240 NA
HETATM   14  C12 UNL     1      24.552   2.455  51.069  1.00  0.00     0.088 C 
HETATM   15  C13 UNL     1      23.602   2.990  50.105  1.00  0.00     0.073 C 
HETATM   16  C14 UNL     1      24.117   3.894  49.286  1.00  0.00     0.104 C 
HETATM   17  H4  UNL     1      27.678   3.547  51.931  1.00  0.00     0.166 HD
ENDROOT
BRANCH   1  18
HETATM   18  O1  UNL     1      26.118   5.385  48.805  1.00  0.00    -0.352 OA
HETATM   19  C1  UNL     1      27.492   5.528  48.556  1.00  0.00     0.210 C 
ENDBRANCH   1  18
BRANCH  16  20
HETATM   20  O2  UNL     1      23.394   4.519  48.306  1.00  0.00    -0.353 OA
HETATM   21  C15 UNL     1      22.396   5.462  48.582  1.00  0.00     0.210 C 
ENDBRANCH  16  20
TORSDOF 2
ENDMDL
MODEL 4
REMARK VINA RESULT:      -7.3      2.491      4.505
REMARK  2 active torsions:
REMARK  status: ('A' for Active; 'I' for Inactive)
REMARK    1  A    between atoms: O1_2  and  C2_3 
REMARK    2  A    between atoms: C14_18  and  O2_19 
ROOT
HETATM    1  C2  UNL     1      26.110  -0.302  53.945  1.00  0.00     0.115 C 
HETATM    2  C3  UNL     1      25.136  -0.144  53.063  1.00  0.00     0.045 C 
HETATM    3  C4  UNL     1      25.225   0.935  52.335  1.00  0.00     0.076 C 
HETATM    4  N1  UNL     1      23.912   1.278  51.935  1.00  0.00    -0.352 N 
HETATM    5  C5  UNL     1      23.367   1.997  50.830  1.00  0.00     0.061 A 
HETATM    6  C6  UNL     1      22.022   1.637  50.817  1.00  0.00     0.032 A 
HETATM    7  C7  UNL     1      21.236   2.205  49.820  1.00  0.00     0.002 A 
HETATM    8  C8  UNL     1      21.788   3.081  48.900  1.00  0.00     0.002 A 
HETATM    9  C9  UNL     1      23.124   3.407  48.953  1.00  0.00     0.034 A 
HETATM   10  C10 UNL     1      23.941   2.866  49.927  1.00  0.00     0.084 A 
HETATM   11  N2  UNL     1      25.248   3.399  49.705  1.00  0.00    -0.240 NA
HETATM   12  C11 UNL     1      26.407   3.208  50.242  1.00  0.00     0.234 C 
HETATM   13  N3  UNL     1      27.013   2.432  51.268  1.00  0.00    -0.240 NA
HETATM   14  C12 UNL     1      26.544   1.546  52.081  1.00  0.00     0.088 C 
HETATM   15  C13 UNL     1      27.708   1.156  52.862  1.00  0.00     0.073 C 
HETATM   16  C14 UNL     1      27.458   0.236  53.780  1.00  0.00     0.104 C 
HETATM   17  H4  UNL     1      23.221   0.919  52.604  1.00  0.00     0.166 HD
ENDROOT
BRANCH   1  18
HETATM   18  O1  UNL     1      25.646  -1.043  55.024  1.00  0.00    -0.352 OA
HETATM   19  C1  UNL     1      24.295  -1.235  55.352  1.00  0.00     0.210 C 
ENDBRANCH   1  18
BRANCH  16  20
HETATM   20  O2  UNL     1      28.413  -0.269  54.620  1.00  0.00    -0.353 OA
HETATM   21  C15 UNL     1      29.611  -0.830  54.159  1.00  0.00     0.210 C 
ENDBRANCH  16  20
TORSDOF 2
ENDMDL
MODEL 5
REMARK VINA RESULT:      -7.3      2.830      6.661
REMARK  2 active torsions:
REMARK  status: ('A' for Active; 'I' for Inactive)
REMARK    1  A    between atoms: O1_2  and  C2_3 
REMARK    2  A    between atoms: C14_18  and  O2_19 
ROOT
HETATM    1  C2  UNL     1      21.969   0.510  52.499  1.00  0.00     0.115 C 
HETATM    2  C3  UNL     1      23.048   0.558  53.263  1.00  0.00     0.045 C 
HETATM    3  C4  UNL     1      24.131   0.964  52.660  1.00  0.00     0.076 C 
HETATM    4  N1  UNL     1      25.230   0.400  53.349  1.00  0.00    -0.352 N 
HETATM    5  C5  UNL     1      26.596   0.776  53.515  1.00  0.00     0.061 A 
HETATM    6  C6  UNL     1      27.026   0.030  54.609  1.00  0.00     0.032 A 
HETATM    7  C7  UNL     1      28.350   0.203  54.999  1.00  0.00     0.002 A 
HETATM    8  C8  UNL     1      29.176   1.080  54.316  1.00  0.00     0.002 A 
HETATM    9  C9  UNL     1      28.706   1.796  53.239  1.00  0.00     0.034 A 
HETATM   10  C10 UNL     1      27.398   1.654  52.818  1.00  0.00     0.084 A 
HETATM   11  N2  UNL     1      27.234   2.523  51.696  1.00  0.00    -0.240 NA
HETATM   12  C11 UNL     1      26.235   2.860  50.949  1.00  0.00     0.234 C 
HETATM   13  N3  UNL     1      24.845   2.593  50.812  1.00  0.00    -0.240 NA
HETATM   14  C12 UNL     1      24.031   1.851  51.484  1.00  0.00     0.088 C 
HETATM   15  C13 UNL     1      22.760   2.041  50.801  1.00  0.00     0.073 C 
HETATM   16  C14 UNL     1      21.756   1.359  51.330  1.00  0.00     0.104 C 
HETATM   17  H4  UNL     1      24.956  -0.467  53.825  1.00  0.00     0.166 HD
ENDROOT
BRANCH   1  18
HETATM   18  O1  UNL     1      21.100  -0.460  52.980  1.00  0.00    -0.352 OA
HETATM   19  C1  UNL     1      21.370  -1.331  54.048  1.00  0.00     0.210 C 
ENDBRANCH   1  18
BRANCH  16  20
HETATM   20  O2  UNL     1      20.479   1.398  50.840  1.00  0.00    -0.353 OA
HETATM   21  C15 UNL     1      20.178   1.210  49.485  1.00  0.00     0.210 C 
ENDBRANCH  16  20
TORSDOF 2
ENDMDL
MODEL 6
REMARK VINA RESULT:      -7.2      2.780      5.990
REMARK  2 active torsions:
REMARK  status: ('A' for Active; 'I' for Inactive)
REMARK    1  A    between atoms: O1_2  and  C2_3 
REMARK    2  A    between atoms: C14_18  and  O2_19 
ROOT
HETATM    1  C2  UNL     1      22.977   3.763  52.109  1.00  0.00     0.115 C 
HETATM    2  C3  UNL     1      24.266   3.468  52.152  1.00  0.00     0.045 C 
HETATM    3  C4  UNL     1      24.563   2.407  52.852  1.00  0.00     0.076 C 
HETATM    4  N1  UNL     1      25.892   2.568  53.308  1.00  0.00    -0.352 N 
HETATM    5  C5  UNL     1      26.928   1.662  53.686  1.00  0.00     0.061 A 
HETATM    6  C6  UNL     1      28.087   2.433  53.650  1.00  0.00     0.032 A 
HETATM    7  C7  UNL     1      29.273   1.788  53.983  1.00  0.00     0.002 A 
HETATM    8  C8  UNL     1      29.273   0.446  54.327  1.00  0.00     0.002 A 
HETATM    9  C9  UNL     1      28.102  -0.274  54.349  1.00  0.00     0.034 A 
HETATM   10  C10 UNL     1      26.901   0.327  54.026  1.00  0.00     0.084 A 
HETATM   11  N2  UNL     1      25.895  -0.681  54.143  1.00  0.00    -0.240 NA
HETATM   12  C11 UNL     1      24.626  -0.727  53.907  1.00  0.00     0.234 C 
HETATM   13  N3  UNL     1      23.580   0.113  53.435  1.00  0.00    -0.240 NA
HETATM   14  C12 UNL     1      23.563   1.336  53.025  1.00  0.00     0.088 C 
HETATM   15  C13 UNL     1      22.164   1.562  52.695  1.00  0.00     0.073 C 
HETATM   16  C14 UNL     1      21.907   2.779  52.242  1.00  0.00     0.104 C 
HETATM   17  H4  UNL     1      26.138   3.562  53.373  1.00  0.00     0.166 HD
ENDROOT
BRANCH   1  18
HETATM   18  O1  UNL     1      22.818   5.131  51.924  1.00  0.00    -0.352 OA
HETATM   19  C1  UNL     1      22.922   5.798  50.693  1.00  0.00     0.210 C 
ENDBRANCH   1  18
BRANCH  16  20
HETATM   20  O2  UNL     1      20.657   3.196  51.874  1.00  0.00    -0.353 OA
HETATM   21  C15 UNL     1      19.512   2.407  52.041  1.00  0.00     0.210 C 
ENDBRANCH  16  20
TORSDOF 2
ENDMDL
MODEL 7
REMARK VINA RESULT:      -7.2      1.574      3.793
REMARK  2 active torsions:
REMARK  status: ('A' for Active; 'I' for Inactive)
REMARK    1  A    between atoms: O1_2  and  C2_3 
REMARK    2  A    between atoms: C14_18  and  O2_19 
ROOT
HETATM    1  C2  UNL     1      26.467   1.900  51.660  1.00  0.00     0.115 C 
HETATM    2  C3  UNL     1      25.622   0.962  52.057  1.00  0.00     0.045 C 
HETATM    3  C4  UNL     1      24.364   1.303  52.016  1.00  0.00     0.076 C 
HETATM    4  N1  UNL     1      23.689   0.525  52.985  1.00  0.00    -0.352 N 
HETATM    5  C5  UNL     1      22.343   0.073  53.133  1.00  0.00     0.061 A 
HETATM    6  C6  UNL     1      22.429  -0.958  54.065  1.00  0.00     0.032 A 
HETATM    7  C7  UNL     1      21.238  -1.591  54.404  1.00  0.00     0.002 A 
HETATM    8  C8  UNL     1      20.042  -1.197  53.827  1.00  0.00     0.002 A 
HETATM    9  C9  UNL     1      20.007  -0.172  52.910  1.00  0.00     0.034 A 
HETATM   10  C10 UNL     1      21.166   0.484  52.545  1.00  0.00     0.084 A 
HETATM   11  N2  UNL     1      20.790   1.477  51.590  1.00  0.00    -0.240 NA
HETATM   12  C11 UNL     1      21.437   2.327  50.864  1.00  0.00     0.234 C 
HETATM   13  N3  UNL     1      22.774   2.740  50.609  1.00  0.00    -0.240 NA
HETATM   14  C12 UNL     1      23.911   2.335  51.063  1.00  0.00     0.088 C 
HETATM   15  C13 UNL     1      24.870   3.192  50.383  1.00  0.00     0.073 C 
HETATM   16  C14 UNL     1      26.132   2.950  50.702  1.00  0.00     0.104 C 
HETATM   17  H4  UNL     1      24.330   0.237  53.733  1.00  0.00     0.166 HD
ENDROOT
BRANCH   1  18
HETATM   18  O1  UNL     1      27.691   1.724  52.293  1.00  0.00    -0.352 OA
HETATM   19  C1  UNL     1      27.965   0.751  53.267  1.00  0.00     0.210 C 
ENDBRANCH   1  18
BRANCH  16  20
HETATM   20  O2  UNL     1      27.188   3.642  50.175  1.00  0.00    -0.353 OA
HETATM   21  C15 UNL     1      27.097   4.383  48.990  1.00  0.00     0.210 C 
ENDBRANCH  16  20
TORSDOF 2
ENDMDL
MODEL 8
REMARK VINA RESULT:      -7.1      2.461      4.047
REMARK  2 active torsions:
REMARK  status: ('A' for Active; 'I' for Inactive)
REMARK    1  A    between atoms: O1_2  and  C2_3 
REMARK    2  A    between atoms: C14_18  and  O2_19 
ROOT
HETATM    1  C2  UNL     1      24.323   4.226  50.128  1.00  0.00     0.115 C 
HETATM    2  C3  UNL     1      23.652   3.657  51.116  1.00  0.00     0.045 C 
HETATM    3  C4  UNL     1      24.131   2.512  51.517  1.00  0.00     0.076 C 
HETATM    4  N1  UNL     1      23.054   1.779  52.069  1.00  0.00    -0.352 N 
HETATM    5  C5  UNL     1      22.956   0.741  53.043  1.00  0.00     0.061 A 
HETATM    6  C6  UNL     1      21.614   0.744  53.412  1.00  0.00     0.032 A 
HETATM    7  C7  UNL     1      21.230  -0.190  54.369  1.00  0.00     0.002 A 
HETATM    8  C8  UNL     1      22.157  -1.065  54.911  1.00  0.00     0.002 A 
HETATM    9  C9  UNL     1      23.474  -1.029  54.514  1.00  0.00     0.034 A 
HETATM   10  C10 UNL     1      23.897  -0.119  53.566  1.00  0.00     0.084 A 
HETATM   11  N2  UNL     1      25.297  -0.341  53.383  1.00  0.00    -0.240 NA
HETATM   12  C11 UNL     1      26.224   0.236  52.694  1.00  0.00     0.234 C 
HETATM   13  N3  UNL     1      26.388   1.328  51.797  1.00  0.00    -0.240 NA
HETATM   14  C12 UNL     1      25.565   2.212  51.342  1.00  0.00     0.088 C 
HETATM   15  C13 UNL     1      26.396   3.028  50.470  1.00  0.00     0.073 C 
HETATM   16  C14 UNL     1      25.748   4.021  49.881  1.00  0.00     0.104 C 
HETATM   17  H4  UNL     1      22.161   2.081  51.662  1.00  0.00     0.166 HD
ENDROOT
BRANCH   1  18
HETATM   18  O1  UNL     1      23.467   5.028  49.384  1.00  0.00    -0.352 OA
HETATM   19  C1  UNL     1      22.839   4.649  48.187  1.00  0.00     0.210 C 
ENDBRANCH   1  18
BRANCH  16  20
HETATM   20  O2  UNL     1      26.344   4.905  49.024  1.00  0.00    -0.353 OA
HETATM   21  C15 UNL     1      27.686   4.802  48.636  1.00  0.00     0.210 C 
ENDBRANCH  16  20
TORSDOF 2
ENDMDL
MODEL 9
REMARK VINA RESULT:      -7.0      3.409      5.949
REMARK  2 active torsions:
REMARK  status: ('A' for Active; 'I' for Inactive)
REMARK    1  A    between atoms: O1_2  and  C2_3 
REMARK    2  A    between atoms: C14_18  and  O2_19 
ROOT
HETATM    1  C2  UNL     1      26.959   4.890  48.839  1.00  0.00     0.115 C 
HETATM    2  C3  UNL     1      26.833   3.647  49.277  1.00  0.00     0.045 C 
HETATM    3  C4  UNL     1      26.096   3.514  50.345  1.00  0.00     0.076 C 
HETATM    4  N1  UNL     1      26.538   2.348  51.013  1.00  0.00    -0.352 N 
HETATM    5  C5  UNL     1      25.920   1.422  51.906  1.00  0.00     0.061 A 
HETATM    6  C6  UNL     1      26.757   0.309  51.878  1.00  0.00     0.032 A 
HETATM    7  C7  UNL     1      26.385  -0.768  52.675  1.00  0.00     0.002 A 
HETATM    8  C8  UNL     1      25.237  -0.711  53.447  1.00  0.00     0.002 A 
HETATM    9  C9  UNL     1      24.441   0.412  53.442  1.00  0.00     0.034 A 
HETATM   10  C10 UNL     1      24.773   1.504  52.666  1.00  0.00     0.084 A 
HETATM   11  N2  UNL     1      23.756   2.484  52.885  1.00  0.00    -0.240 NA
HETATM   12  C11 UNL     1      23.501   3.650  52.392  1.00  0.00     0.234 C 
HETATM   13  N3  UNL     1      24.025   4.562  51.434  1.00  0.00    -0.240 NA
HETATM   14  C12 UNL     1      25.039   4.501  50.639  1.00  0.00     0.088 C 
HETATM   15  C13 UNL     1      24.994   5.775  49.937  1.00  0.00     0.073 C 
HETATM   16  C14 UNL     1      25.963   5.937  49.050  1.00  0.00     0.104 C 
HETATM   17  H4  UNL     1      27.519   2.148  50.790  1.00  0.00     0.166 HD
ENDROOT
BRANCH   1  18
HETATM   18  O1  UNL     1      28.167   5.027  48.167  1.00  0.00    -0.352 OA
HETATM   19  C1  UNL     1      29.182   5.935  48.504  1.00  0.00     0.210 C 
ENDBRANCH   1  18
BRANCH  16  20
HETATM   20  O2  UNL     1      26.102   7.062  48.283  1.00  0.00    -0.353 OA
HETATM   21  C15 UNL     1      25.088   7.538  47.442  1.00  0.00     0.210 C 
ENDBRANCH  16  20
TORSDOF 2
ENDMDL
