MODEL 1
REMARK VINA RESULT:      -6.5      0.000      0.000
REMARK  6 active torsions:
REMARK  status: ('A' for Active; 'I' for Inactive)
REMARK    1  A    between atoms: O1_2  and  C2_3 
REMARK    2  A    between atoms: C6_9  and  N3_10 
REMARK    3  A    between atoms: N3_10  and  C7_11 
REMARK    4  A    between atoms: C7_11  and  C8_12 
REMARK    5  A    between atoms: C9_13  and  C10_14 
REMARK    6  A    between atoms: C13_18  and  O2_19 
ROOT
HETATM    1  C2  UNL     1      27.550   0.332  53.893  1.00  0.00     0.103 A 
HETATM    2  C3  UNL     1      27.810   1.164  52.825  1.00  0.00     0.072 A 
HETATM    3  C4  UNL     1      26.815   1.910  52.227  1.00  0.00     0.075 A 
HETATM    4  N1  UNL     1      27.116   2.709  51.185  1.00  0.00    -0.241 NA
HETATM    5  C5  UNL     1      26.115   3.436  50.613  1.00  0.00     0.235 A 
HETATM    6  N2  UNL     1      24.873   3.348  51.085  1.00  0.00    -0.224 NA
HETATM    7  C6  UNL     1      24.476   2.586  52.111  1.00  0.00     0.137 A 
HETATM    8  C11 UNL     1      25.509   1.862  52.670  1.00  0.00     0.041 A 
HETATM    9  C12 UNL     1      25.255   1.035  53.733  1.00  0.00     0.057 A 
HETATM   10  C13 UNL     1      26.233   0.283  54.341  1.00  0.00     0.102 A 
ENDROOT
BRANCH   7  11
HETATM   11  N3  UNL     1      23.128   2.546  52.557  1.00  0.00    -0.371 N 
HETATM   12  H6  UNL     1      22.836   2.615  53.553  1.00  0.00     0.161 HD
BRANCH  11  13
HETATM   13  C7  UNL     1      22.113   2.398  51.536  1.00  0.00     0.148 C 
BRANCH  13  14
HETATM   14  C8  UNL     1      21.966   1.033  51.036  1.00  0.00    -0.011 C 
HETATM   15  C9  UNL     1      21.129   0.152  51.570  1.00  0.00    -0.018 C 
BRANCH  15  16
HETATM   16  C10 UNL     1      20.190   0.266  52.714  1.00  0.00     0.112 C 
HETATM   17 BR1  UNL     1      21.183  -0.175  54.337  1.00  0.00    -0.092 Br
ENDBRANCH  15  16
ENDBRANCH  13  14
ENDBRANCH  11  13
ENDBRANCH   7  11
BRANCH  10  18
HETATM   18  O2  UNL     1      25.934  -0.556  55.430  1.00  0.00    -0.353 OA
HETATM   19  C14 UNL     1      24.675  -1.164  55.527  1.00  0.00     0.210 C 
ENDBRANCH  10  18
BRANCH   1  20
HETATM   20  O1  UNL     1      28.491  -0.449  54.547  1.00  0.00    -0.353 OA
HETATM   21  C1  UNL     1      29.648  -0.900  53.856  1.00  0.00     0.210 C 
ENDBRANCH   1  20
TORSDOF 6
ENDMDL
MODEL 2
REMARK VINA RESULT:      -6.5      3.636      6.778
REMARK  6 active torsions:
REMARK  status: ('A' for Active; 'I' for Inactive)
REMARK    1  A    between atoms: O1_2  and  C2_3 
REMARK    2  A    between atoms: C6_9  and  N3_10 
REMARK    3  A    between atoms: N3_10  and  C7_11 
REMARK    4  A    between atoms: C7_11  and  C8_12 
REMARK    5  A    between atoms: C9_13  and  C10_14 
REMARK    6  A    between atoms: C13_18  and  O2_19 
ROOT
HETATM    1  C2  UNL     1      20.617  -0.366  53.142  1.00  0.00     0.103 A 
HETATM    2  C3  UNL     1      21.144  -0.981  54.259  1.00  0.00     0.072 A 
HETATM    3  C4  UNL     1      22.495  -0.952  54.534  1.00  0.00     0.075 A 
HETATM    4  N1  UNL     1      22.964  -1.568  55.637  1.00  0.00    -0.241 NA
HETATM    5  C5  UNL     1      24.303  -1.524  55.886  1.00  0.00     0.235 A 
HETATM    6  N2  UNL     1      25.116  -0.882  55.049  1.00  0.00    -0.224 NA
HETATM    7  C6  UNL     1      24.748  -0.243  53.932  1.00  0.00     0.137 A 
HETATM    8  C11 UNL     1      23.388  -0.304  53.706  1.00  0.00     0.041 A 
HETATM    9  C12 UNL     1      22.862   0.307  52.598  1.00  0.00     0.057 A 
HETATM   10  C13 UNL     1      21.517   0.288  52.307  1.00  0.00     0.102 A 
ENDROOT
BRANCH   7  11
HETATM   11  N3  UNL     1      25.678   0.421  53.089  1.00  0.00    -0.371 N 
HETATM   12  H6  UNL     1      26.010   0.052  52.175  1.00  0.00     0.161 HD
BRANCH  11  13
HETATM   13  C7  UNL     1      26.184   1.693  53.559  1.00  0.00     0.148 C 
BRANCH  13  14
HETATM   14  C8  UNL     1      27.491   2.054  53.016  1.00  0.00    -0.011 C 
HETATM   15  C9  UNL     1      28.625   1.501  53.427  1.00  0.00    -0.018 C 
BRANCH  15  16
HETATM   16  C10 UNL     1      28.888   0.462  54.454  1.00  0.00     0.112 C 
HETATM   17 BR1  UNL     1      29.608  -1.104  53.536  1.00  0.00    -0.092 Br
ENDBRANCH  15  16
ENDBRANCH  13  14
ENDBRANCH  11  13
ENDBRANCH   7  11
BRANCH  10  18
HETATM   18  O2  UNL     1      21.013   0.926  51.159  1.00  0.00    -0.353 OA
HETATM   19  C14 UNL     1      20.926   2.325  51.110  1.00  0.00     0.210 C 
ENDBRANCH  10  18
BRANCH   1  20
HETATM   20  O1  UNL     1      19.274  -0.350  52.794  1.00  0.00    -0.353 OA
HETATM   21  C1  UNL     1      18.390  -1.328  53.324  1.00  0.00     0.210 C 
ENDBRANCH   1  20
TORSDOF 6
ENDMDL
MODEL 3
REMARK VINA RESULT:      -6.4      2.551      4.164
REMARK  6 active torsions:
REMARK  status: ('A' for Active; 'I' for Inactive)
REMARK    1  A    between atoms: O1_2  and  C2_3 
REMARK    2  A    between atoms: C6_9  and  N3_10 
REMARK    3  A    between atoms: N3_10  and  C7_11 
REMARK    4  A    between atoms: C7_11  and  C8_12 
REMARK    5  A    between atoms: C9_13  and  C10_14 
REMARK    6  A    between atoms: C13_18  and  O2_19 
ROOT
HETATM    1  C2  UNL     1      26.033   0.199  53.648  1.00  0.00     0.103 A 
HETATM    2  C3  UNL     1      24.795  -0.047  53.093  1.00  0.00     0.072 A 
HETATM    3  C4  UNL     1      23.943   0.977  52.735  1.00  0.00     0.075 A 
HETATM    4  N1  UNL     1      22.743   0.687  52.196  1.00  0.00    -0.241 NA
HETATM    5  C5  UNL     1      21.920   1.717  51.850  1.00  0.00     0.235 A 
HETATM    6  N2  UNL     1      22.308   2.975  52.046  1.00  0.00    -0.224 NA
HETATM    7  C6  UNL     1      23.476   3.363  52.572  1.00  0.00     0.137 A 
HETATM    8  C11 UNL     1      24.288   2.300  52.913  1.00  0.00     0.041 A 
HETATM    9  C12 UNL     1      25.519   2.542  53.463  1.00  0.00     0.057 A 
HETATM   10  C13 UNL     1      26.382   1.535  53.827  1.00  0.00     0.102 A 
ENDROOT
BRANCH   7  11
HETATM   11  N3  UNL     1      23.819   4.730  52.749  1.00  0.00    -0.371 N 
HETATM   12  H6  UNL     1      24.365   5.100  53.553  1.00  0.00     0.161 HD
BRANCH  11  13
HETATM   13  C7  UNL     1      23.362   5.648  51.727  1.00  0.00     0.148 C 
BRANCH  13  14
HETATM   14  C8  UNL     1      24.439   6.328  51.012  1.00  0.00    -0.011 C 
HETATM   15  C9  UNL     1      25.074   5.791  49.977  1.00  0.00    -0.018 C 
BRANCH  15  16
HETATM   16  C10 UNL     1      24.906   4.480  49.302  1.00  0.00     0.112 C 
HETATM   17 BR1  UNL     1      26.421   3.358  49.812  1.00  0.00    -0.092 Br
ENDBRANCH  15  16
ENDBRANCH  13  14
ENDBRANCH  11  13
ENDBRANCH   7  11
BRANCH  10  18
HETATM   18  O2  UNL     1      27.638   1.822  54.391  1.00  0.00    -0.353 OA
HETATM   19  C14 UNL     1      28.645   2.408  53.610  1.00  0.00     0.210 C 
ENDBRANCH  10  18
BRANCH   1  20
HETATM   20  O1  UNL     1      26.946  -0.770  54.035  1.00  0.00    -0.353 OA
HETATM   21  C1  UNL     1      27.744  -1.427  53.060  1.00  0.00     0.210 C 
ENDBRANCH   1  20
TORSDOF 6
ENDMDL
MODEL 4
REMARK VINA RESULT:      -6.4      3.201      5.437
REMARK  6 active torsions:
REMARK  status: ('A' for Active; 'I' for Inactive)
REMARK    1  A    between atoms: O1_2  and  C2_3 
REMARK    2  A    between atoms: C6_9  and  N3_10 
REMARK    3  A    between atoms: N3_10  and  C7_11 
REMARK    4  A    between atoms: C7_11  and  C8_12 
REMARK    5  A    between atoms: C9_13  and  C10_14 
REMARK    6  A    between atoms: C13_18  and  O2_19 
ROOT
HETATM    1  C2  UNL     1      23.430  -0.220  53.046  1.00  0.00     0.103 A 
HETATM    2  C3  UNL     1      24.742  -0.385  53.437  1.00  0.00     0.072 A 
HETATM    3  C4  UNL     1      25.733   0.487  53.036  1.00  0.00     0.075 A 
HETATM    4  N1  UNL     1      27.002   0.285  53.442  1.00  0.00    -0.241 NA
HETATM    5  C5  UNL     1      27.963   1.161  53.033  1.00  0.00     0.235 A 
HETATM    6  N2  UNL     1      27.639   2.188  52.251  1.00  0.00    -0.224 NA
HETATM    7  C6  UNL     1      26.412   2.472  51.796  1.00  0.00     0.137 A 
HETATM    8  C11 UNL     1      25.462   1.569  52.226  1.00  0.00     0.041 A 
HETATM    9  C12 UNL     1      24.156   1.731  51.840  1.00  0.00     0.057 A 
HETATM   10  C13 UNL     1      23.154   0.872  52.229  1.00  0.00     0.102 A 
ENDROOT
BRANCH   7  11
HETATM   11  N3  UNL     1      26.146   3.590  50.962  1.00  0.00    -0.371 N 
HETATM   12  H6  UNL     1      25.766   4.497  51.299  1.00  0.00     0.161 HD
BRANCH  11  13
HETATM   13  C7  UNL     1      26.431   3.427  49.552  1.00  0.00     0.148 C 
BRANCH  13  14
HETATM   14  C8  UNL     1      27.328   4.441  49.003  1.00  0.00    -0.011 C 
HETATM   15  C9  UNL     1      26.919   5.650  48.639  1.00  0.00    -0.018 C 
BRANCH  15  16
HETATM   16  C10 UNL     1      25.574   6.277  48.671  1.00  0.00     0.112 C 
HETATM   17 BR1  UNL     1      25.450   7.322  50.316  1.00  0.00    -0.092 Br
ENDBRANCH  15  16
ENDBRANCH  13  14
ENDBRANCH  11  13
ENDBRANCH   7  11
BRANCH  10  18
HETATM   18  O2  UNL     1      21.825   1.070  51.813  1.00  0.00    -0.353 OA
HETATM   19  C14 UNL     1      21.437   0.737  50.508  1.00  0.00     0.210 C 
ENDBRANCH  10  18
BRANCH   1  20
HETATM   20  O1  UNL     1      22.377  -1.049  53.404  1.00  0.00    -0.353 OA
HETATM   21  C1  UNL     1      21.847  -0.999  54.722  1.00  0.00     0.210 C 
ENDBRANCH   1  20
TORSDOF 6
ENDMDL
MODEL 5
REMARK VINA RESULT:      -6.3      2.596      3.998
REMARK  6 active torsions:
REMARK  status: ('A' for Active; 'I' for Inactive)
REMARK    1  A    between atoms: O1_2  and  C2_3 
REMARK    2  A    between atoms: C6_9  and  N3_10 
REMARK    3  A    between atoms: N3_10  and  C7_11 
REMARK    4  A    between atoms: C7_11  and  C8_12 
REMARK    5  A    between atoms: C9_13  and  C10_14 
REMARK    6  A    between atoms: C13_18  and  O2_19 
ROOT
HETATM    1  C2  UNL     1      26.336  -0.207  53.302  1.00  0.00     0.103 A 
HETATM    2  C3  UNL     1      25.389  -0.818  54.097  1.00  0.00     0.072 A 
HETATM    3  C4  UNL     1      24.057  -0.461  54.045  1.00  0.00     0.075 A 
HETATM    4  N1  UNL     1      23.168  -1.085  54.842  1.00  0.00    -0.241 NA
HETATM    5  C5  UNL     1      21.859  -0.714  54.771  1.00  0.00     0.235 A 
HETATM    6  N2  UNL     1      21.483   0.245  53.928  1.00  0.00    -0.224 NA
HETATM    7  C6  UNL     1      22.287   0.922  53.098  1.00  0.00     0.137 A 
HETATM    8  C11 UNL     1      23.605   0.525  53.193  1.00  0.00     0.041 A 
HETATM    9  C12 UNL     1      24.549   1.129  52.402  1.00  0.00     0.057 A 
HETATM   10  C13 UNL     1      25.880   0.787  52.441  1.00  0.00     0.102 A 
ENDROOT
BRANCH   7  11
HETATM   11  N3  UNL     1      21.808   1.934  52.225  1.00  0.00    -0.371 N 
HETATM   12  H6  UNL     1      22.171   2.908  52.199  1.00  0.00     0.161 HD
BRANCH  11  13
HETATM   13  C7  UNL     1      20.742   1.557  51.322  1.00  0.00     0.148 C 
BRANCH  13  14
HETATM   14  C8  UNL     1      21.147   0.616  50.280  1.00  0.00    -0.011 C 
HETATM   15  C9  UNL     1      21.503   0.996  49.059  1.00  0.00    -0.018 C 
BRANCH  15  16
HETATM   16  C10 UNL     1      21.589   2.343  48.442  1.00  0.00     0.112 C 
HETATM   17 BR1  UNL     1      23.294   3.129  48.978  1.00  0.00    -0.092 Br
ENDBRANCH  15  16
ENDBRANCH  13  14
ENDBRANCH  11  13
ENDBRANCH   7  11
BRANCH  10  18
HETATM   18  O2  UNL     1      26.820   1.429  51.615  1.00  0.00    -0.353 OA
HETATM   19  C14 UNL     1      26.522   2.674  51.042  1.00  0.00     0.210 C 
ENDBRANCH  10  18
BRANCH   1  20
HETATM   20  O1  UNL     1      27.690  -0.507  53.294  1.00  0.00    -0.353 OA
HETATM   21  C1  UNL     1      28.518  -0.084  54.369  1.00  0.00     0.210 C 
ENDBRANCH   1  20
TORSDOF 6
ENDMDL
MODEL 6
REMARK VINA RESULT:      -6.0      1.559      1.709
REMARK  6 active torsions:
REMARK  status: ('A' for Active; 'I' for Inactive)
REMARK    1  A    between atoms: O1_2  and  C2_3 
REMARK    2  A    between atoms: C6_9  and  N3_10 
REMARK    3  A    between atoms: N3_10  and  C7_11 
REMARK    4  A    between atoms: C7_11  and  C8_12 
REMARK    5  A    between atoms: C9_13  and  C10_14 
REMARK    6  A    between atoms: C13_18  and  O2_19 
ROOT
HETATM    1  C2  UNL     1      26.537   0.452  53.572  1.00  0.00     0.103 A 
HETATM    2  C3  UNL     1      27.118   1.355  52.708  1.00  0.00     0.072 A 
HETATM    3  C4  UNL     1      26.381   2.022  51.751  1.00  0.00     0.075 A 
HETATM    4  N1  UNL     1      26.993   2.895  50.927  1.00  0.00    -0.241 NA
HETATM    5  C5  UNL     1      26.242   3.541  49.991  1.00  0.00     0.235 A 
HETATM    6  N2  UNL     1      24.935   3.304  49.905  1.00  0.00    -0.224 NA
HETATM    7  C6  UNL     1      24.239   2.458  50.674  1.00  0.00     0.137 A 
HETATM    8  C11 UNL     1      25.024   1.820  51.612  1.00  0.00     0.041 A 
HETATM    9  C12 UNL     1      24.449   0.922  52.473  1.00  0.00     0.057 A 
HETATM   10  C13 UNL     1      25.167   0.247  53.433  1.00  0.00     0.102 A 
ENDROOT
BRANCH   7  11
HETATM   11  N3  UNL     1      22.841   2.260  50.521  1.00  0.00    -0.371 N 
HETATM   12  H6  UNL     1      22.396   1.341  50.325  1.00  0.00     0.161 HD
BRANCH  11  13
HETATM   13  C7  UNL     1      22.003   3.434  50.649  1.00  0.00     0.148 C 
BRANCH  13  14
HETATM   14  C8  UNL     1      21.499   3.662  52.000  1.00  0.00    -0.011 C 
HETATM   15  C9  UNL     1      20.404   3.081  52.473  1.00  0.00    -0.018 C 
BRANCH  15  16
HETATM   16  C10 UNL     1      19.455   2.127  51.846  1.00  0.00     0.112 C 
HETATM   17 BR1  UNL     1      20.093   0.323  52.234  1.00  0.00    -0.092 Br
ENDBRANCH  15  16
ENDBRANCH  13  14
ENDBRANCH  11  13
ENDBRANCH   7  11
BRANCH  10  18
HETATM   18  O2  UNL     1      24.542  -0.667  54.300  1.00  0.00    -0.353 OA
HETATM   19  C14 UNL     1      23.152  -0.843  54.258  1.00  0.00     0.210 C 
ENDBRANCH  10  18
BRANCH   1  20
HETATM   20  O1  UNL     1      27.205  -0.258  54.559  1.00  0.00    -0.353 OA
HETATM   21  C1  UNL     1      28.572   0.019  54.833  1.00  0.00     0.210 C 
ENDBRANCH   1  20
TORSDOF 6
ENDMDL
MODEL 7
REMARK VINA RESULT:      -5.9      2.601      3.852
REMARK  6 active torsions:
REMARK  status: ('A' for Active; 'I' for Inactive)
REMARK    1  A    between atoms: O1_2  and  C2_3 
REMARK    2  A    between atoms: C6_9  and  N3_10 
REMARK    3  A    between atoms: N3_10  and  C7_11 
REMARK    4  A    between atoms: C7_11  and  C8_12 
REMARK    5  A    between atoms: C9_13  and  C10_14 
REMARK    6  A    between atoms: C13_18  and  O2_19 
ROOT
HETATM    1  C2  UNL     1      27.450   1.096  53.230  1.00  0.00     0.103 A 
HETATM    2  C3  UNL     1      27.010   0.299  54.266  1.00  0.00     0.072 A 
HETATM    3  C4  UNL     1      25.706  -0.145  54.336  1.00  0.00     0.075 A 
HETATM    4  N1  UNL     1      25.321  -0.921  55.369  1.00  0.00    -0.241 NA
HETATM    5  C5  UNL     1      24.027  -1.347  55.415  1.00  0.00     0.235 A 
HETATM    6  N2  UNL     1      23.176  -0.997  54.453  1.00  0.00    -0.224 NA
HETATM    7  C6  UNL     1      23.461  -0.233  53.392  1.00  0.00     0.137 A 
HETATM    8  C11 UNL     1      24.776   0.184  53.372  1.00  0.00     0.041 A 
HETATM    9  C12 UNL     1      25.217   0.974  52.343  1.00  0.00     0.057 A 
HETATM   10  C13 UNL     1      26.513   1.428  52.256  1.00  0.00     0.102 A 
ENDROOT
BRANCH   7  11
HETATM   11  N3  UNL     1      22.494   0.098  52.405  1.00  0.00    -0.371 N 
HETATM   12  H6  UNL     1      22.720   0.367  51.427  1.00  0.00     0.161 HD
BRANCH  11  13
HETATM   13  C7  UNL     1      21.107   0.050  52.819  1.00  0.00     0.148 C 
BRANCH  13  14
HETATM   14  C8  UNL     1      20.159   0.413  51.769  1.00  0.00    -0.011 C 
HETATM   15  C9  UNL     1      18.909  -0.031  51.735  1.00  0.00    -0.018 C 
BRANCH  15  16
HETATM   16  C10 UNL     1      18.169  -0.934  52.651  1.00  0.00     0.112 C 
HETATM   17 BR1  UNL     1      16.273  -0.483  52.517  1.00  0.00    -0.092 Br
ENDBRANCH  15  16
ENDBRANCH  13  14
ENDBRANCH  11  13
ENDBRANCH   7  11
BRANCH  10  18
HETATM   18  O2  UNL     1      26.929   2.238  51.184  1.00  0.00    -0.353 OA
HETATM   19  C14 UNL     1      26.050   3.177  50.627  1.00  0.00     0.210 C 
ENDBRANCH  10  18
BRANCH   1  20
HETATM   20  O1  UNL     1      28.740   1.584  53.086  1.00  0.00    -0.353 OA
HETATM   21  C1  UNL     1      29.502   1.932  54.234  1.00  0.00     0.210 C 
ENDBRANCH   1  20
TORSDOF 6
ENDMDL
MODEL 8
REMARK VINA RESULT:      -5.6      3.833      7.147
REMARK  6 active torsions:
REMARK  status: ('A' for Active; 'I' for Inactive)
REMARK    1  A    between atoms: O1_2  and  C2_3 
REMARK    2  A    between atoms: C6_9  and  N3_10 
REMARK    3  A    between atoms: N3_10  and  C7_11 
REMARK    4  A    between atoms: C7_11  and  C8_12 
REMARK    5  A    between atoms: C9_13  and  C10_14 
REMARK    6  A    between atoms: C13_18  and  O2_19 
ROOT
HETATM    1  C2  UNL     1      20.501   1.294  50.814  1.00  0.00     0.103 A 
HETATM    2  C3  UNL     1      20.194   0.444  51.856  1.00  0.00     0.072 A 
HETATM    3  C4  UNL     1      21.161  -0.017  52.725  1.00  0.00     0.075 A 
HETATM    4  N1  UNL     1      20.815  -0.846  53.728  1.00  0.00    -0.241 NA
HETATM    5  C5  UNL     1      21.789  -1.287  54.574  1.00  0.00     0.235 A 
HETATM    6  N2  UNL     1      23.049  -0.896  54.399  1.00  0.00    -0.224 NA
HETATM    7  C6  UNL     1      23.492  -0.078  53.436  1.00  0.00     0.137 A 
HETATM    8  C11 UNL     1      22.484   0.351  52.597  1.00  0.00     0.041 A 
HETATM    9  C12 UNL     1      22.786   1.197  51.561  1.00  0.00     0.057 A 
HETATM   10  C13 UNL     1      21.836   1.666  50.684  1.00  0.00     0.102 A 
ENDROOT
BRANCH   7  11
HETATM   11  N3  UNL     1      24.858   0.293  53.316  1.00  0.00    -0.371 N 
HETATM   12  H6  UNL     1      25.196   1.132  52.804  1.00  0.00     0.161 HD
BRANCH  11  13
HETATM   13  C7  UNL     1      25.822  -0.575  53.958  1.00  0.00     0.148 C 
BRANCH  13  14
HETATM   14  C8  UNL     1      26.607   0.076  55.003  1.00  0.00    -0.011 C 
HETATM   15  C9  UNL     1      27.818   0.578  54.794  1.00  0.00    -0.018 C 
BRANCH  15  16
HETATM   16  C10 UNL     1      28.657   0.627  53.571  1.00  0.00     0.112 C 
HETATM   17 BR1  UNL     1      29.663  -1.045  53.480  1.00  0.00    -0.092 Br
ENDBRANCH  15  16
ENDBRANCH  13  14
ENDBRANCH  11  13
ENDBRANCH   7  11
BRANCH  10  18
HETATM   18  O2  UNL     1      22.183   2.533  49.632  1.00  0.00    -0.353 OA
HETATM   19  C14 UNL     1      22.345   3.904  49.871  1.00  0.00     0.210 C 
ENDBRANCH  10  18
BRANCH   1  20
HETATM   20  O1  UNL     1      19.591   1.800  49.898  1.00  0.00    -0.353 OA
HETATM   21  C1  UNL     1      18.500   2.594  50.344  1.00  0.00     0.210 C 
ENDBRANCH   1  20
TORSDOF 6
ENDMDL
MODEL 9
REMARK VINA RESULT:      -5.6      3.836      6.230
REMARK  6 active torsions:
REMARK  status: ('A' for Active; 'I' for Inactive)
REMARK    1  A    between atoms: O1_2  and  C2_3 
REMARK    2  A    between atoms: C6_9  and  N3_10 
REMARK    3  A    between atoms: N3_10  and  C7_11 
REMARK    4  A    between atoms: C7_11  and  C8_12 
REMARK    5  A    between atoms: C9_13  and  C10_14 
REMARK    6  A    between atoms: C13_18  and  O2_19 
ROOT
HETATM    1  C2  UNL     1      21.210   0.332  53.456  1.00  0.00     0.103 A 
HETATM    2  C3  UNL     1      22.352  -0.407  53.679  1.00  0.00     0.072 A 
HETATM    3  C4  UNL     1      23.571  -0.038  53.149  1.00  0.00     0.075 A 
HETATM    4  N1  UNL     1      24.660  -0.793  53.393  1.00  0.00    -0.241 NA
HETATM    5  C5  UNL     1      25.852  -0.406  52.858  1.00  0.00     0.235 A 
HETATM    6  N2  UNL     1      25.922   0.695  52.113  1.00  0.00    -0.224 NA
HETATM    7  C6  UNL     1      24.901   1.507  51.814  1.00  0.00     0.137 A 
HETATM    8  C11 UNL     1      23.709   1.091  52.369  1.00  0.00     0.041 A 
HETATM    9  C12 UNL     1      22.571   1.825  52.150  1.00  0.00     0.057 A 
HETATM   10  C13 UNL     1      21.348   1.472  52.670  1.00  0.00     0.102 A 
ENDROOT
BRANCH   7  11
HETATM   11  N3  UNL     1      25.057   2.668  51.010  1.00  0.00    -0.371 N 
HETATM   12  H6  UNL     1      24.272   3.189  50.571  1.00  0.00     0.161 HD
BRANCH  11  13
HETATM   13  C7  UNL     1      26.412   3.134  50.804  1.00  0.00     0.148 C 
BRANCH  13  14
HETATM   14  C8  UNL     1      26.669   3.645  49.460  1.00  0.00    -0.011 C 
HETATM   15  C9  UNL     1      26.364   4.880  49.083  1.00  0.00    -0.018 C 
BRANCH  15  16
HETATM   16  C10 UNL     1      25.737   6.001  49.827  1.00  0.00     0.112 C 
HETATM   17 BR1  UNL     1      26.559   7.657  49.199  1.00  0.00    -0.092 Br
ENDBRANCH  15  16
ENDBRANCH  13  14
ENDBRANCH  11  13
ENDBRANCH   7  11
BRANCH  10  18
HETATM   18  O2  UNL     1      20.202   2.250  52.424  1.00  0.00    -0.353 OA
HETATM   19  C14 UNL     1      19.554   2.178  51.183  1.00  0.00     0.210 C 
ENDBRANCH  10  18
BRANCH   1  20
HETATM   20  O1  UNL     1      19.950   0.030  53.951  1.00  0.00    -0.353 OA
HETATM   21  C1  UNL     1      19.156  -0.964  53.318  1.00  0.00     0.210 C 
ENDBRANCH   1  20
TORSDOF 6
ENDMDL
