MODEL 1
REMARK VINA RESULT:      -7.2      0.000      0.000
REMARK  6 active torsions:
REMARK  status: ('A' for Active; 'I' for Inactive)
REMARK    1  A    between atoms: O1_2  and  C2_3 
REMARK    2  A    between atoms: C6_9  and  N3_10 
REMARK    3  A    between atoms: N3_10  and  S1_11 
REMARK    4  A    between atoms: C11_16  and  N4_17 
REMARK    5  A    between atoms: N4_17  and  C12_18 
REMARK    6  A    between atoms: C12_18  and  C14_20 
ROOT
HETATM    1  C2  UNL     1      24.773   0.089  53.871  1.00  0.00     0.096 A 
HETATM    2  C3  UNL     1      23.739   0.187  52.962  1.00  0.00     0.071 A 
HETATM    3  C4  UNL     1      23.753   1.144  51.967  1.00  0.00     0.075 A 
HETATM    4  N1  UNL     1      22.755   1.255  51.073  1.00  0.00    -0.241 NA
HETATM    5  C5  UNL     1      22.772   2.197  50.094  1.00  0.00     0.236 A 
HETATM    6  N2  UNL     1      23.822   3.042  50.023  1.00  0.00    -0.223 NA
HETATM    7  C6  UNL     1      24.856   2.968  50.906  1.00  0.00     0.147 A 
HETATM    8  C9  UNL     1      24.828   2.006  51.896  1.00  0.00     0.042 A 
HETATM    9  C10 UNL     1      25.847   1.884  52.818  1.00  0.00     0.050 A 
HETATM   10  C11 UNL     1      25.877   0.946  53.829  1.00  0.00     0.063 A 
ENDROOT
BRANCH  10  11
HETATM   11  N4  UNL     1      26.936   0.836  54.769  1.00  0.00    -0.381 N 
HETATM   12  H9  UNL     1      26.776   1.225  55.723  1.00  0.00     0.160 HD
BRANCH  11  13
HETATM   13  C12 UNL     1      28.212   0.228  54.491  1.00  0.00     0.111 C 
HETATM   14  C13 UNL     1      28.145  -0.595  53.229  1.00  0.00     0.035 C 
BRANCH  13  15
HETATM   15  C14 UNL     1      29.194   1.356  54.285  1.00  0.00     0.415 C 
HETATM   16  O2  UNL     1      29.616   2.347  54.882  1.00  0.00    -0.428 OA
ENDBRANCH  13  15
ENDBRANCH  11  13
ENDBRANCH  10  11
BRANCH   1  17
HETATM   17  O1  UNL     1      24.775  -0.865  54.877  1.00  0.00    -0.354 OA
HETATM   18  C1  UNL     1      23.554  -1.266  55.429  1.00  0.00     0.210 C 
ENDBRANCH   1  17
BRANCH   7  19
HETATM   19  N3  UNL     1      25.944   3.878  50.795  1.00  0.00    -0.319 N 
HETATM   20  H6  UNL     1      26.352   4.051  51.749  1.00  0.00     0.175 HD
BRANCH  19  21
HETATM   21  S1  UNL     1      26.504   4.598  49.250  1.00  0.00    -0.086 SA
HETATM   22  C7  UNL     1      27.990   5.004  48.582  1.00  0.00     0.092 A 
HETATM   23  C8  UNL     1      27.073   6.232  48.698  1.00  0.00     0.055 A 
ENDBRANCH  19  21
ENDBRANCH   7  19
TORSDOF 6
ENDMDL
MODEL 2
REMARK VINA RESULT:      -6.7      1.828      2.064
REMARK  6 active torsions:
REMARK  status: ('A' for Active; 'I' for Inactive)
REMARK    1  A    between atoms: O1_2  and  C2_3 
REMARK    2  A    between atoms: C6_9  and  N3_10 
REMARK    3  A    between atoms: N3_10  and  S1_11 
REMARK    4  A    between atoms: C11_16  and  N4_17 
REMARK    5  A    between atoms: N4_17  and  C12_18 
REMARK    6  A    between atoms: C12_18  and  C14_20 
ROOT
HETATM    1  C2  UNL     1      24.631   0.525  52.538  1.00  0.00     0.096 A 
HETATM    2  C3  UNL     1      23.692   1.467  52.174  1.00  0.00     0.071 A 
HETATM    3  C4  UNL     1      24.050   2.591  51.456  1.00  0.00     0.075 A 
HETATM    4  N1  UNL     1      23.150   3.520  51.092  1.00  0.00    -0.241 NA
HETATM    5  C5  UNL     1      23.507   4.625  50.384  1.00  0.00     0.236 A 
HETATM    6  N2  UNL     1      24.801   4.787  50.041  1.00  0.00    -0.223 NA
HETATM    7  C6  UNL     1      25.749   3.872  50.387  1.00  0.00     0.147 A 
HETATM    8  C9  UNL     1      25.375   2.754  51.106  1.00  0.00     0.042 A 
HETATM    9  C10 UNL     1      26.292   1.795  51.484  1.00  0.00     0.050 A 
HETATM   10  C11 UNL     1      25.981   0.659  52.201  1.00  0.00     0.063 A 
ENDROOT
BRANCH  10  11
HETATM   11  N4  UNL     1      26.939  -0.318  52.581  1.00  0.00    -0.381 N 
HETATM   12  H9  UNL     1      26.775  -1.301  52.272  1.00  0.00     0.160 HD
BRANCH  11  13
HETATM   13  C12 UNL     1      28.118  -0.043  53.363  1.00  0.00     0.111 C 
HETATM   14  C13 UNL     1      27.741   0.346  54.771  1.00  0.00     0.035 C 
BRANCH  13  15
HETATM   15  C14 UNL     1      28.915  -1.324  53.410  1.00  0.00     0.415 C 
HETATM   16  O2  UNL     1      28.726  -2.541  53.414  1.00  0.00    -0.428 OA
ENDBRANCH  13  15
ENDBRANCH  11  13
ENDBRANCH  10  11
BRANCH   1  17
HETATM   17  O1  UNL     1      24.288  -0.609  53.260  1.00  0.00    -0.354 OA
HETATM   18  C1  UNL     1      23.020  -0.677  53.847  1.00  0.00     0.210 C 
ENDBRANCH   1  17
BRANCH   7  19
HETATM   19  N3  UNL     1      27.103   4.082  50.005  1.00  0.00    -0.319 N 
HETATM   20  H6  UNL     1      27.736   3.561  50.665  1.00  0.00     0.175 HD
BRANCH  19  21
HETATM   21  S1  UNL     1      27.615   5.087  48.609  1.00  0.00    -0.086 SA
HETATM   22  C7  UNL     1      29.020   5.880  48.149  1.00  0.00     0.092 A 
HETATM   23  C8  UNL     1      27.844   6.859  48.286  1.00  0.00     0.055 A 
ENDBRANCH  19  21
ENDBRANCH   7  19
TORSDOF 6
ENDMDL
MODEL 3
REMARK VINA RESULT:      -6.7      2.645      4.977
REMARK  6 active torsions:
REMARK  status: ('A' for Active; 'I' for Inactive)
REMARK    1  A    between atoms: O1_2  and  C2_3 
REMARK    2  A    between atoms: C6_9  and  N3_10 
REMARK    3  A    between atoms: N3_10  and  S1_11 
REMARK    4  A    between atoms: C11_16  and  N4_17 
REMARK    5  A    between atoms: N4_17  and  C12_18 
REMARK    6  A    between atoms: C12_18  and  C14_20 
ROOT
HETATM    1  C2  UNL     1      26.856   1.839  52.255  1.00  0.00     0.096 A 
HETATM    2  C3  UNL     1      26.255   0.817  52.961  1.00  0.00     0.071 A 
HETATM    3  C4  UNL     1      24.913   0.534  52.802  1.00  0.00     0.075 A 
HETATM    4  N1  UNL     1      24.310  -0.458  53.480  1.00  0.00    -0.241 NA
HETATM    5  C5  UNL     1      22.989  -0.734  53.320  1.00  0.00     0.236 A 
HETATM    6  N2  UNL     1      22.268   0.010  52.457  1.00  0.00    -0.223 NA
HETATM    7  C6  UNL     1      22.836   1.025  51.748  1.00  0.00     0.147 A 
HETATM    8  C9  UNL     1      24.179   1.297  51.918  1.00  0.00     0.042 A 
HETATM    9  C10 UNL     1      24.806   2.313  51.226  1.00  0.00     0.050 A 
HETATM   10  C11 UNL     1      26.142   2.633  51.352  1.00  0.00     0.063 A 
ENDROOT
BRANCH  10  11
HETATM   11  N4  UNL     1      26.771   3.682  50.631  1.00  0.00    -0.381 N 
HETATM   12  H9  UNL     1      27.730   3.964  50.927  1.00  0.00     0.160 HD
BRANCH  11  13
HETATM   13  C12 UNL     1      26.172   4.382  49.523  1.00  0.00     0.111 C 
HETATM   14  C13 UNL     1      25.278   5.492  50.017  1.00  0.00     0.035 C 
BRANCH  13  15
HETATM   15  C14 UNL     1      27.305   4.988  48.731  1.00  0.00     0.415 C 
HETATM   16  O2  UNL     1      28.464   4.722  48.405  1.00  0.00    -0.428 OA
ENDBRANCH  13  15
ENDBRANCH  11  13
ENDBRANCH  10  11
BRANCH   1  17
HETATM   17  O1  UNL     1      28.202   2.138  52.404  1.00  0.00    -0.354 OA
HETATM   18  C1  UNL     1      28.706   2.364  53.689  1.00  0.00     0.210 C 
ENDBRANCH   1  17
BRANCH   7  19
HETATM   19  N3  UNL     1      22.040   1.786  50.847  1.00  0.00    -0.319 N 
HETATM   20  H6  UNL     1      21.937   1.260  49.942  1.00  0.00     0.175 HD
BRANCH  19  21
HETATM   21  S1  UNL     1      21.336   3.392  51.231  1.00  0.00    -0.086 SA
HETATM   22  C7  UNL     1      21.349   4.912  50.518  1.00  0.00     0.092 A 
HETATM   23  C8  UNL     1      21.944   4.952  51.934  1.00  0.00     0.055 A 
ENDBRANCH  19  21
ENDBRANCH   7  19
TORSDOF 6
ENDMDL
MODEL 4
REMARK VINA RESULT:      -6.7      2.138      2.538
REMARK  6 active torsions:
REMARK  status: ('A' for Active; 'I' for Inactive)
REMARK    1  A    between atoms: O1_2  and  C2_3 
REMARK    2  A    between atoms: C6_9  and  N3_10 
REMARK    3  A    between atoms: N3_10  and  S1_11 
REMARK    4  A    between atoms: C11_16  and  N4_17 
REMARK    5  A    between atoms: N4_17  and  C12_18 
REMARK    6  A    between atoms: C12_18  and  C14_20 
ROOT
HETATM    1  C2  UNL     1      22.864   0.062  53.284  1.00  0.00     0.096 A 
HETATM    2  C3  UNL     1      21.767   0.851  53.005  1.00  0.00     0.071 A 
HETATM    3  C4  UNL     1      21.915   2.122  52.485  1.00  0.00     0.075 A 
HETATM    4  N1  UNL     1      20.859   2.905  52.207  1.00  0.00    -0.241 NA
HETATM    5  C5  UNL     1      21.010   4.155  51.694  1.00  0.00     0.236 A 
HETATM    6  N2  UNL     1      22.256   4.616  51.460  1.00  0.00    -0.223 NA
HETATM    7  C6  UNL     1      23.356   3.859  51.725  1.00  0.00     0.147 A 
HETATM    8  C9  UNL     1      23.191   2.590  52.246  1.00  0.00     0.042 A 
HETATM    9  C10 UNL     1      24.269   1.779  52.535  1.00  0.00     0.050 A 
HETATM   10  C11 UNL     1      24.170   0.506  53.055  1.00  0.00     0.063 A 
ENDROOT
BRANCH  10  11
HETATM   11  N4  UNL     1      25.292  -0.315  53.345  1.00  0.00    -0.381 N 
HETATM   12  H9  UNL     1      25.290  -0.832  54.251  1.00  0.00     0.160 HD
BRANCH  11  13
HETATM   13  C12 UNL     1      26.429  -0.479  52.475  1.00  0.00     0.111 C 
HETATM   14  C13 UNL     1      27.600   0.328  52.976  1.00  0.00     0.035 C 
BRANCH  13  15
HETATM   15  C14 UNL     1      26.795  -1.943  52.513  1.00  0.00     0.415 C 
HETATM   16  O2  UNL     1      27.686  -2.671  52.955  1.00  0.00    -0.428 OA
ENDBRANCH  13  15
ENDBRANCH  11  13
ENDBRANCH  10  11
BRANCH   1  17
HETATM   17  O1  UNL     1      22.732  -1.215  53.808  1.00  0.00    -0.354 OA
HETATM   18  C1  UNL     1      21.520  -1.578  54.405  1.00  0.00     0.210 C 
ENDBRANCH   1  17
BRANCH   7  19
HETATM   19  N3  UNL     1      24.652   4.383  51.464  1.00  0.00    -0.319 N 
HETATM   20  H6  UNL     1      25.078   4.725  52.363  1.00  0.00     0.175 HD
BRANCH  19  21
HETATM   21  S1  UNL     1      25.411   4.436  49.838  1.00  0.00    -0.086 SA
HETATM   22  C7  UNL     1      26.941   4.141  49.216  1.00  0.00     0.092 A 
HETATM   23  C8  UNL     1      26.491   5.583  48.935  1.00  0.00     0.055 A 
ENDBRANCH  19  21
ENDBRANCH   7  19
TORSDOF 6
ENDMDL
MODEL 5
REMARK VINA RESULT:      -6.6      2.461      4.922
REMARK  6 active torsions:
REMARK  status: ('A' for Active; 'I' for Inactive)
REMARK    1  A    between atoms: O1_2  and  C2_3 
REMARK    2  A    between atoms: C6_9  and  N3_10 
REMARK    3  A    between atoms: N3_10  and  S1_11 
REMARK    4  A    between atoms: C11_16  and  N4_17 
REMARK    5  A    between atoms: N4_17  and  C12_18 
REMARK    6  A    between atoms: C12_18  and  C14_20 
ROOT
HETATM    1  C2  UNL     1      23.294  -0.136  53.522  1.00  0.00     0.096 A 
HETATM    2  C3  UNL     1      24.477  -0.779  53.820  1.00  0.00     0.071 A 
HETATM    3  C4  UNL     1      25.697  -0.205  53.519  1.00  0.00     0.075 A 
HETATM    4  N1  UNL     1      26.860  -0.816  53.801  1.00  0.00    -0.241 NA
HETATM    5  C5  UNL     1      28.058  -0.248  53.504  1.00  0.00     0.236 A 
HETATM    6  N2  UNL     1      28.074   0.962  52.908  1.00  0.00    -0.223 NA
HETATM    7  C6  UNL     1      26.921   1.620  52.603  1.00  0.00     0.147 A 
HETATM    8  C9  UNL     1      25.710   1.033  52.910  1.00  0.00     0.042 A 
HETATM    9  C10 UNL     1      24.511   1.652  52.624  1.00  0.00     0.050 A 
HETATM   10  C11 UNL     1      23.270   1.119  52.905  1.00  0.00     0.063 A 
ENDROOT
BRANCH  10  11
HETATM   11  N4  UNL     1      22.046   1.772  52.603  1.00  0.00    -0.381 N 
HETATM   12  H9  UNL     1      21.344   1.860  53.369  1.00  0.00     0.160 HD
BRANCH  11  13
HETATM   13  C12 UNL     1      21.711   2.319  51.312  1.00  0.00     0.111 C 
HETATM   14  C13 UNL     1      21.396   1.215  50.334  1.00  0.00     0.035 C 
BRANCH  13  15
HETATM   15  C14 UNL     1      20.474   3.162  51.507  1.00  0.00     0.415 C 
HETATM   16  O2  UNL     1      19.619   3.380  52.368  1.00  0.00    -0.428 OA
ENDBRANCH  13  15
ENDBRANCH  11  13
ENDBRANCH  10  11
BRANCH   1  17
HETATM   17  O1  UNL     1      22.061  -0.698  53.816  1.00  0.00    -0.354 OA
HETATM   18  C1  UNL     1      21.967  -1.599  54.882  1.00  0.00     0.210 C 
ENDBRANCH   1  17
BRANCH   7  19
HETATM   19  N3  UNL     1      26.983   2.895  51.975  1.00  0.00    -0.319 N 
HETATM   20  H6  UNL     1      27.355   3.602  52.658  1.00  0.00     0.175 HD
BRANCH  19  21
HETATM   21  S1  UNL     1      26.491   3.209  50.277  1.00  0.00    -0.086 SA
HETATM   22  C7  UNL     1      26.311   4.569  49.310  1.00  0.00     0.092 A 
HETATM   23  C8  UNL     1      24.991   3.793  49.437  1.00  0.00     0.055 A 
ENDBRANCH  19  21
ENDBRANCH   7  19
TORSDOF 6
ENDMDL
MODEL 6
REMARK VINA RESULT:      -6.5      2.222      4.760
REMARK  6 active torsions:
REMARK  status: ('A' for Active; 'I' for Inactive)
REMARK    1  A    between atoms: O1_2  and  C2_3 
REMARK    2  A    between atoms: C6_9  and  N3_10 
REMARK    3  A    between atoms: N3_10  and  S1_11 
REMARK    4  A    between atoms: C11_16  and  N4_17 
REMARK    5  A    between atoms: N4_17  and  C12_18 
REMARK    6  A    between atoms: C12_18  and  C14_20 
ROOT
HETATM    1  C2  UNL     1      26.007   0.601  52.576  1.00  0.00     0.096 A 
HETATM    2  C3  UNL     1      26.768   1.453  51.803  1.00  0.00     0.071 A 
HETATM    3  C4  UNL     1      26.180   2.440  51.039  1.00  0.00     0.075 A 
HETATM    4  N1  UNL     1      26.905   3.280  50.279  1.00  0.00    -0.241 NA
HETATM    5  C5  UNL     1      26.321   4.251  49.529  1.00  0.00     0.236 A 
HETATM    6  N2  UNL     1      24.978   4.372  49.551  1.00  0.00    -0.223 NA
HETATM    7  C6  UNL     1      24.202   3.545  50.305  1.00  0.00     0.147 A 
HETATM    8  C9  UNL     1      24.805   2.561  51.063  1.00  0.00     0.042 A 
HETATM    9  C10 UNL     1      24.070   1.695  51.845  1.00  0.00     0.050 A 
HETATM   10  C11 UNL     1      24.613   0.694  52.624  1.00  0.00     0.063 A 
ENDROOT
BRANCH  10  11
HETATM   11  N4  UNL     1      23.839  -0.188  53.423  1.00  0.00    -0.381 N 
HETATM   12  H9  UNL     1      24.312  -1.036  53.803  1.00  0.00     0.160 HD
BRANCH  11  13
HETATM   13  C12 UNL     1      22.447   0.009  53.742  1.00  0.00     0.111 C 
HETATM   14  C13 UNL     1      21.578  -0.343  52.561  1.00  0.00     0.035 C 
BRANCH  13  15
HETATM   15  C14 UNL     1      22.126  -0.930  54.879  1.00  0.00     0.415 C 
HETATM   16  O2  UNL     1      22.705  -1.710  55.637  1.00  0.00    -0.428 OA
ENDBRANCH  13  15
ENDBRANCH  11  13
ENDBRANCH  10  11
BRANCH   1  17
HETATM   17  O1  UNL     1      26.582  -0.397  53.348  1.00  0.00    -0.354 OA
HETATM   18  C1  UNL     1      27.615  -0.059  54.229  1.00  0.00     0.210 C 
ENDBRANCH   1  17
BRANCH   7  19
HETATM   19  N3  UNL     1      22.788   3.705  50.299  1.00  0.00    -0.319 N 
HETATM   20  H6  UNL     1      22.518   4.442  51.000  1.00  0.00     0.175 HD
BRANCH  19  21
HETATM   21  S1  UNL     1      21.671   2.777  49.245  1.00  0.00    -0.086 SA
HETATM   22  C7  UNL     1      20.364   1.752  49.487  1.00  0.00     0.092 A 
HETATM   23  C8  UNL     1      21.497   1.045  48.728  1.00  0.00     0.055 A 
ENDBRANCH  19  21
ENDBRANCH   7  19
TORSDOF 6
ENDMDL
MODEL 7
REMARK VINA RESULT:      -6.5      1.998      2.304
REMARK  6 active torsions:
REMARK  status: ('A' for Active; 'I' for Inactive)
REMARK    1  A    between atoms: O1_2  and  C2_3 
REMARK    2  A    between atoms: C6_9  and  N3_10 
REMARK    3  A    between atoms: N3_10  and  S1_11 
REMARK    4  A    between atoms: C11_16  and  N4_17 
REMARK    5  A    between atoms: N4_17  and  C12_18 
REMARK    6  A    between atoms: C12_18  and  C14_20 
ROOT
HETATM    1  C2  UNL     1      25.751  -0.316  53.177  1.00  0.00     0.096 A 
HETATM    2  C3  UNL     1      24.371  -0.299  53.178  1.00  0.00     0.071 A 
HETATM    3  C4  UNL     1      23.673   0.859  52.900  1.00  0.00     0.075 A 
HETATM    4  N1  UNL     1      22.329   0.896  52.896  1.00  0.00    -0.241 NA
HETATM    5  C5  UNL     1      21.645   2.038  52.622  1.00  0.00     0.236 A 
HETATM    6  N2  UNL     1      22.338   3.162  52.346  1.00  0.00    -0.223 NA
HETATM    7  C6  UNL     1      23.700   3.173  52.338  1.00  0.00     0.147 A 
HETATM    8  C9  UNL     1      24.385   2.007  52.619  1.00  0.00     0.042 A 
HETATM    9  C10 UNL     1      25.763   1.960  52.625  1.00  0.00     0.050 A 
HETATM   10  C11 UNL     1      26.504   0.828  52.896  1.00  0.00     0.063 A 
ENDROOT
BRANCH  10  11
HETATM   11  N4  UNL     1      27.924   0.798  52.898  1.00  0.00    -0.381 N 
HETATM   12  H9  UNL     1      28.410   0.937  51.986  1.00  0.00     0.160 HD
BRANCH  11  13
HETATM   13  C12 UNL     1      28.733   0.589  54.071  1.00  0.00     0.111 C 
HETATM   14  C13 UNL     1      29.841  -0.393  53.783  1.00  0.00     0.035 C 
BRANCH  13  15
HETATM   15  C14 UNL     1      29.346   1.924  54.419  1.00  0.00     0.415 C 
HETATM   16  O2  UNL     1      29.917   2.472  55.363  1.00  0.00    -0.428 OA
ENDBRANCH  13  15
ENDBRANCH  11  13
ENDBRANCH  10  11
BRANCH   1  17
HETATM   17  O1  UNL     1      26.468  -1.471  53.455  1.00  0.00    -0.354 OA
HETATM   18  C1  UNL     1      26.848  -2.300  52.395  1.00  0.00     0.210 C 
ENDBRANCH   1  17
BRANCH   7  19
HETATM   19  N3  UNL     1      24.393   4.380  52.043  1.00  0.00    -0.319 N 
HETATM   20  H6  UNL     1      25.285   4.415  52.599  1.00  0.00     0.175 HD
BRANCH  19  21
HETATM   21  S1  UNL     1      23.804   5.627  50.894  1.00  0.00    -0.086 SA
HETATM   22  C7  UNL     1      24.509   6.646  49.762  1.00  0.00     0.092 A 
HETATM   23  C8  UNL     1      23.760   7.441  50.842  1.00  0.00     0.055 A 
ENDBRANCH  19  21
ENDBRANCH   7  19
TORSDOF 6
ENDMDL
MODEL 8
REMARK VINA RESULT:      -6.4      2.418      4.653
REMARK  6 active torsions:
REMARK  status: ('A' for Active; 'I' for Inactive)
REMARK    1  A    between atoms: O1_2  and  C2_3 
REMARK    2  A    between atoms: C6_9  and  N3_10 
REMARK    3  A    between atoms: N3_10  and  S1_11 
REMARK    4  A    between atoms: C11_16  and  N4_17 
REMARK    5  A    between atoms: N4_17  and  C12_18 
REMARK    6  A    between atoms: C12_18  and  C14_20 
ROOT
HETATM    1  C2  UNL     1      25.361   0.580  52.734  1.00  0.00     0.096 A 
HETATM    2  C3  UNL     1      26.327   1.396  52.182  1.00  0.00     0.071 A 
HETATM    3  C4  UNL     1      26.008   2.320  51.207  1.00  0.00     0.075 A 
HETATM    4  N1  UNL     1      26.934   3.124  50.658  1.00  0.00    -0.241 NA
HETATM    5  C5  UNL     1      26.616   4.033  49.699  1.00  0.00     0.236 A 
HETATM    6  N2  UNL     1      25.333   4.126  49.292  1.00  0.00    -0.223 NA
HETATM    7  C6  UNL     1      24.360   3.333  49.819  1.00  0.00     0.147 A 
HETATM    8  C9  UNL     1      24.695   2.413  50.793  1.00  0.00     0.042 A 
HETATM    9  C10 UNL     1      23.751   1.584  51.362  1.00  0.00     0.050 A 
HETATM   10  C11 UNL     1      24.022   0.647  52.337  1.00  0.00     0.063 A 
ENDROOT
BRANCH  10  11
HETATM   11  N4  UNL     1      23.036  -0.198  52.912  1.00  0.00    -0.381 N 
HETATM   12  H9  UNL     1      22.952  -1.167  52.535  1.00  0.00     0.160 HD
BRANCH  11  13
HETATM   13  C12 UNL     1      22.147   0.193  53.976  1.00  0.00     0.111 C 
HETATM   14  C13 UNL     1      20.764   0.461  53.440  1.00  0.00     0.035 C 
BRANCH  13  15
HETATM   15  C14 UNL     1      22.080  -0.971  54.934  1.00  0.00     0.415 C 
HETATM   16  O2  UNL     1      22.823  -1.609  55.682  1.00  0.00    -0.428 OA
ENDBRANCH  13  15
ENDBRANCH  11  13
ENDBRANCH  10  11
BRANCH   1  17
HETATM   17  O1  UNL     1      25.665  -0.355  53.713  1.00  0.00    -0.354 OA
HETATM   18  C1  UNL     1      26.258   0.082  54.902  1.00  0.00     0.210 C 
ENDBRANCH   1  17
BRANCH   7  19
HETATM   19  N3  UNL     1      23.020   3.464  49.361  1.00  0.00    -0.319 N 
HETATM   20  H6  UNL     1      22.913   2.957  48.445  1.00  0.00     0.175 HD
BRANCH  19  21
HETATM   21  S1  UNL     1      21.736   4.362  50.237  1.00  0.00    -0.086 SA
HETATM   22  C7  UNL     1      21.691   5.469  51.498  1.00  0.00     0.092 A 
HETATM   23  C8  UNL     1      20.885   4.204  51.833  1.00  0.00     0.055 A 
ENDBRANCH  19  21
ENDBRANCH   7  19
TORSDOF 6
ENDMDL
MODEL 9
REMARK VINA RESULT:      -6.3      2.981      5.554
REMARK  6 active torsions:
REMARK  status: ('A' for Active; 'I' for Inactive)
REMARK    1  A    between atoms: O1_2  and  C2_3 
REMARK    2  A    between atoms: C6_9  and  N3_10 
REMARK    3  A    between atoms: N3_10  and  S1_11 
REMARK    4  A    between atoms: C11_16  and  N4_17 
REMARK    5  A    between atoms: N4_17  and  C12_18 
REMARK    6  A    between atoms: C12_18  and  C14_20 
ROOT
HETATM    1  C2  UNL     1      26.966   0.638  53.170  1.00  0.00     0.096 A 
HETATM    2  C3  UNL     1      26.593  -0.085  54.285  1.00  0.00     0.071 A 
HETATM    3  C4  UNL     1      25.283  -0.475  54.477  1.00  0.00     0.075 A 
HETATM    4  N1  UNL     1      24.900  -1.178  55.556  1.00  0.00    -0.241 NA
HETATM    5  C5  UNL     1      23.609  -1.561  55.741  1.00  0.00     0.236 A 
HETATM    6  N2  UNL     1      22.691  -1.222  54.812  1.00  0.00    -0.223 NA
HETATM    7  C6  UNL     1      23.031  -0.510  53.703  1.00  0.00     0.147 A 
HETATM    8  C9  UNL     1      24.346  -0.126  53.525  1.00  0.00     0.042 A 
HETATM    9  C10 UNL     1      24.748   0.596  52.421  1.00  0.00     0.050 A 
HETATM   10  C11 UNL     1      26.043   1.007  52.187  1.00  0.00     0.063 A 
ENDROOT
BRANCH  10  11
HETATM   11  N4  UNL     1      26.438   1.751  51.044  1.00  0.00    -0.381 N 
HETATM   12  H9  UNL     1      26.879   1.227  50.256  1.00  0.00     0.160 HD
BRANCH  11  13
HETATM   13  C12 UNL     1      26.272   3.175  50.900  1.00  0.00     0.111 C 
HETATM   14  C13 UNL     1      26.666   3.618  49.513  1.00  0.00     0.035 C 
BRANCH  13  15
HETATM   15  C14 UNL     1      24.804   3.462  51.103  1.00  0.00     0.415 C 
HETATM   16  O2  UNL     1      23.945   4.253  50.711  1.00  0.00    -0.428 OA
ENDBRANCH  13  15
ENDBRANCH  11  13
ENDBRANCH  10  11
BRANCH   1  17
HETATM   17  O1  UNL     1      28.278   1.038  52.963  1.00  0.00    -0.354 OA
HETATM   18  C1  UNL     1      29.266   0.598  53.850  1.00  0.00     0.210 C 
ENDBRANCH   1  17
BRANCH   7  19
HETATM   19  N3  UNL     1      22.032  -0.173  52.748  1.00  0.00    -0.319 N 
HETATM   20  H6  UNL     1      22.079  -0.846  51.941  1.00  0.00     0.175 HD
BRANCH  19  21
HETATM   21  S1  UNL     1      20.886   1.197  52.927  1.00  0.00    -0.086 SA
HETATM   22  C7  UNL     1      19.705   1.909  51.969  1.00  0.00     0.092 A 
HETATM   23  C8  UNL     1      20.802   2.916  52.348  1.00  0.00     0.055 A 
ENDBRANCH  19  21
ENDBRANCH   7  19
TORSDOF 6
ENDMDL
