MODEL 1
REMARK VINA RESULT:      -9.2      0.000      0.000
REMARK  2 active torsions:
REMARK  status: ('A' for Active; 'I' for Inactive)
REMARK    1  A    between atoms: C10_12  and  O2_13 
REMARK    2  A    between atoms: O2_13  and  C11_14 
ROOT
HETATM    1  C11 UNL     1      23.360   6.381  51.062  1.00  0.00     0.078 A 
HETATM    2  C12 UNL     1      22.754   7.494  50.481  1.00  0.00     0.039 A 
HETATM    3  C13 UNL     1      23.485   8.518  49.924  1.00  0.00     0.025 A 
HETATM    4  C14 UNL     1      24.877   8.495  49.912  1.00  0.00     0.044 A 
HETATM    5  C15 UNL     1      25.694   9.524  49.350  1.00  0.00     0.099 C 
HETATM    6  N2  UNL     1      26.353  10.353  48.899  1.00  0.00    -0.191 NA
HETATM    7  C16 UNL     1      25.510   7.407  50.480  1.00  0.00     0.025 A 
HETATM    8  C17 UNL     1      24.723   6.413  51.022  1.00  0.00     0.039 A 
ENDROOT
BRANCH   1   9
HETATM    9  O2  UNL     1      22.580   5.395  51.602  1.00  0.00    -0.286 OA
BRANCH   9  10
HETATM   10  C10 UNL     1      22.493   4.081  51.100  1.00  0.00     0.211 C 
HETATM   11  O1  UNL     1      23.516   3.152  51.423  1.00  0.00    -0.315 OA
HETATM   12  C9  UNL     1      23.345   1.746  51.237  1.00  0.00     0.184 C 
HETATM   13  C8  UNL     1      23.486   0.990  52.498  1.00  0.00     0.010 C 
HETATM   14  C25 UNL     1      22.152   1.436  50.438  1.00  0.00    -0.033 C 
HETATM   15  C7  UNL     1      22.627   0.233  53.190  1.00  0.00    -0.001 C 
HETATM   16  C6  UNL     1      21.227  -0.110  52.843  1.00  0.00     0.007 C 
HETATM   17  C5  UNL     1      20.573   0.272  51.738  1.00  0.00    -0.058 C 
HETATM   18  C4  UNL     1      19.141   0.538  52.039  1.00  0.00     0.040 C 
HETATM   19  C26 UNL     1      21.296   0.389  50.444  1.00  0.00     0.014 C 
HETATM   20  C3  UNL     1      18.173   0.001  51.043  1.00  0.00     0.035 C 
HETATM   21  C2  UNL     1      16.773   0.448  51.494  1.00  0.00     0.272 C 
HETATM   22  N1  UNL     1      16.651   1.882  51.525  1.00  0.00     0.086 N 
HETATM   23  C1  UNL     1      15.352   2.257  52.109  1.00  0.00     0.310 C 
HETATM   24  C21 UNL     1      16.657   2.405  50.187  1.00  0.00     0.298 C 
HETATM   25  C20 UNL     1      16.750   3.900  50.094  1.00  0.00     0.200 C 
HETATM   26  O3  UNL     1      17.901   4.438  50.677  1.00  0.00    -0.370 OA
HETATM   27  C19 UNL     1      19.048   3.858  50.085  1.00  0.00     0.290 C 
HETATM   28  N3  UNL     1      20.285   4.393  50.614  1.00  0.00    -0.367 N 
HETATM   29  C18 UNL     1      21.467   3.660  50.317  1.00  0.00     0.078 C 
HETATM   30  H18 UNL     1      20.259   5.267  51.171  1.00  0.00     0.161 HD
HETATM   31  C22 UNL     1      21.865   2.564  49.443  1.00  0.00     0.026 C 
HETATM   32  C23 UNL     1      23.166   2.859  48.758  1.00  0.00     0.027 C 
HETATM   33  C24 UNL     1      20.881   2.102  48.419  1.00  0.00     0.027 C 
ENDBRANCH   9  10
ENDBRANCH   1   9
TORSDOF 2
ENDMDL
MODEL 2
REMARK VINA RESULT:      -9.2      3.564      5.889
REMARK  2 active torsions:
REMARK  status: ('A' for Active; 'I' for Inactive)
REMARK    1  A    between atoms: C10_12  and  O2_13 
REMARK    2  A    between atoms: O2_13  and  C11_14 
ROOT
HETATM    1  C11 UNL     1      27.068   5.915  48.648  1.00  0.00     0.078 A 
HETATM    2  C12 UNL     1      28.408   5.795  48.284  1.00  0.00     0.039 A 
HETATM    3  C13 UNL     1      29.269   6.869  48.293  1.00  0.00     0.025 A 
HETATM    4  C14 UNL     1      28.842   8.139  48.668  1.00  0.00     0.044 A 
HETATM    5  C15 UNL     1      29.683   9.294  48.699  1.00  0.00     0.099 C 
HETATM    6  N2  UNL     1      30.360  10.225  48.723  1.00  0.00    -0.191 NA
HETATM    7  C16 UNL     1      27.520   8.295  49.034  1.00  0.00     0.025 A 
HETATM    8  C17 UNL     1      26.706   7.182  49.004  1.00  0.00     0.039 A 
ENDROOT
BRANCH   1   9
HETATM    9  O2  UNL     1      26.261   4.811  48.617  1.00  0.00    -0.286 OA
BRANCH   9  10
HETATM   10  C10 UNL     1      25.068   4.674  49.355  1.00  0.00     0.211 C 
HETATM   11  O1  UNL     1      23.827   4.886  48.702  1.00  0.00    -0.315 OA
HETATM   12  C9  UNL     1      22.590   4.456  49.273  1.00  0.00     0.184 C 
HETATM   13  C8  UNL     1      21.872   3.499  48.408  1.00  0.00     0.010 C 
HETATM   14  C25 UNL     1      22.741   4.055  50.679  1.00  0.00    -0.033 C 
HETATM   15  C7  UNL     1      21.523   2.219  48.583  1.00  0.00    -0.001 C 
HETATM   16  C6  UNL     1      21.735   1.370  49.779  1.00  0.00     0.007 C 
HETATM   17  C5  UNL     1      22.309   1.754  50.926  1.00  0.00    -0.058 C 
HETATM   18  C4  UNL     1      23.114   0.648  51.510  1.00  0.00     0.040 C 
HETATM   19  C26 UNL     1      22.105   3.135  51.439  1.00  0.00     0.014 C 
HETATM   20  C3  UNL     1      22.963   0.462  52.980  1.00  0.00     0.035 C 
HETATM   21  C2  UNL     1      23.926  -0.665  53.388  1.00  0.00     0.272 C 
HETATM   22  N1  UNL     1      25.297  -0.328  53.106  1.00  0.00     0.086 N 
HETATM   23  C1  UNL     1      26.158  -1.494  53.369  1.00  0.00     0.310 C 
HETATM   24  C21 UNL     1      25.741   0.709  53.995  1.00  0.00     0.298 C 
HETATM   25  C20 UNL     1      27.083   1.294  53.663  1.00  0.00     0.200 C 
HETATM   26  O3  UNL     1      27.152   1.877  52.393  1.00  0.00    -0.370 OA
HETATM   27  C19 UNL     1      26.160   2.880  52.277  1.00  0.00     0.290 C 
HETATM   28  N3  UNL     1      26.192   3.556  50.998  1.00  0.00    -0.367 N 
HETATM   29  C18 UNL     1      25.053   4.344  50.672  1.00  0.00     0.078 C 
HETATM   30  H18 UNL     1      27.024   3.444  50.389  1.00  0.00     0.161 HD
HETATM   31  C22 UNL     1      23.865   4.851  51.346  1.00  0.00     0.026 C 
HETATM   32  C23 UNL     1      23.619   6.290  51.003  1.00  0.00     0.027 C 
HETATM   33  C24 UNL     1      23.790   4.695  52.829  1.00  0.00     0.027 C 
ENDBRANCH   9  10
ENDBRANCH   1   9
TORSDOF 2
ENDMDL
MODEL 3
REMARK VINA RESULT:      -8.8      5.022     11.637
REMARK  2 active torsions:
REMARK  status: ('A' for Active; 'I' for Inactive)
REMARK    1  A    between atoms: C10_12  and  O2_13 
REMARK    2  A    between atoms: O2_13  and  C11_14 
ROOT
HETATM    1  C11 UNL     1      25.458   7.543  50.334  1.00  0.00     0.078 A 
HETATM    2  C12 UNL     1      25.327   6.168  50.148  1.00  0.00     0.039 A 
HETATM    3  C13 UNL     1      24.102   5.541  50.163  1.00  0.00     0.025 A 
HETATM    4  C14 UNL     1      22.923   6.252  50.366  1.00  0.00     0.044 A 
HETATM    5  C15 UNL     1      21.622   5.663  50.394  1.00  0.00     0.099 C 
HETATM    6  N2  UNL     1      20.574   5.188  50.417  1.00  0.00    -0.191 NA
HETATM    7  C16 UNL     1      23.017   7.617  50.555  1.00  0.00     0.025 A 
HETATM    8  C17 UNL     1      24.272   8.188  50.529  1.00  0.00     0.039 A 
ENDROOT
BRANCH   1   9
HETATM    9  O2  UNL     1      26.703   8.110  50.310  1.00  0.00    -0.286 OA
BRANCH   9  10
HETATM   10  C10 UNL     1      27.260   8.768  49.195  1.00  0.00     0.211 C 
HETATM   11  O1  UNL     1      27.056  10.164  49.048  1.00  0.00    -0.315 OA
HETATM   12  C9  UNL     1      27.840  10.952  48.151  1.00  0.00     0.184 C 
HETATM   13  C8  UNL     1      28.577  12.029  48.841  1.00  0.00     0.010 C 
HETATM   14  C25 UNL     1      28.636  10.119  47.237  1.00  0.00    -0.033 C 
HETATM   15  C7  UNL     1      29.885  12.269  48.988  1.00  0.00    -0.001 C 
HETATM   16  C6  UNL     1      31.023  11.499  48.432  1.00  0.00     0.007 C 
HETATM   17  C5  UNL     1      30.934  10.416  47.649  1.00  0.00    -0.058 C 
HETATM   18  C4  UNL     1      32.022   9.450  47.960  1.00  0.00     0.040 C 
HETATM   19  C26 UNL     1      29.840  10.303  46.649  1.00  0.00     0.014 C 
HETATM   20  C3  UNL     1      32.686   8.840  46.775  1.00  0.00     0.035 C 
HETATM   21  C2  UNL     1      33.712   7.827  47.309  1.00  0.00     0.272 C 
HETATM   22  N1  UNL     1      33.085   6.781  48.073  1.00  0.00     0.086 N 
HETATM   23  C1  UNL     1      34.117   5.930  48.689  1.00  0.00     0.310 C 
HETATM   24  C21 UNL     1      32.325   5.926  47.204  1.00  0.00     0.298 C 
HETATM   25  C20 UNL     1      31.454   4.924  47.905  1.00  0.00     0.200 C 
HETATM   26  O3  UNL     1      30.496   5.494  48.750  1.00  0.00    -0.370 OA
HETATM   27  C19 UNL     1      29.684   6.387  48.012  1.00  0.00     0.290 C 
HETATM   28  N3  UNL     1      28.642   6.992  48.813  1.00  0.00    -0.367 N 
HETATM   29  C18 UNL     1      27.988   8.122  48.248  1.00  0.00     0.078 C 
HETATM   30  H18 UNL     1      28.418   6.585  49.740  1.00  0.00     0.161 HD
HETATM   31  C22 UNL     1      27.920   8.795  46.958  1.00  0.00     0.026 C 
HETATM   32  C23 UNL     1      26.507   9.150  46.604  1.00  0.00     0.027 C 
HETATM   33  C24 UNL     1      28.548   8.113  45.787  1.00  0.00     0.027 C 
ENDBRANCH   9  10
ENDBRANCH   1   9
TORSDOF 2
ENDMDL
MODEL 4
REMARK VINA RESULT:      -8.5      2.589      7.976
REMARK  2 active torsions:
REMARK  status: ('A' for Active; 'I' for Inactive)
REMARK    1  A    between atoms: C10_12  and  O2_13 
REMARK    2  A    between atoms: O2_13  and  C11_14 
ROOT
HETATM    1  C11 UNL     1      21.472   1.748  49.644  1.00  0.00     0.078 A 
HETATM    2  C12 UNL     1      21.752   0.977  50.772  1.00  0.00     0.039 A 
HETATM    3  C13 UNL     1      20.772   0.294  51.455  1.00  0.00     0.025 A 
HETATM    4  C14 UNL     1      19.440   0.339  51.052  1.00  0.00     0.044 A 
HETATM    5  C15 UNL     1      18.375  -0.345  51.715  1.00  0.00     0.099 C 
HETATM    6  N2  UNL     1      17.517  -0.895  52.250  1.00  0.00    -0.191 NA
HETATM    7  C16 UNL     1      19.127   1.094  49.939  1.00  0.00     0.025 A 
HETATM    8  C17 UNL     1      20.153   1.756  49.297  1.00  0.00     0.039 A 
ENDROOT
BRANCH   1   9
HETATM    9  O2  UNL     1      22.489   2.406  49.009  1.00  0.00    -0.286 OA
BRANCH   9  10
HETATM   10  C10 UNL     1      23.281   3.412  49.598  1.00  0.00     0.211 C 
HETATM   11  O1  UNL     1      24.539   3.062  50.151  1.00  0.00    -0.315 OA
HETATM   12  C9  UNL     1      25.527   4.046  50.463  1.00  0.00     0.184 C 
HETATM   13  C8  UNL     1      26.788   3.834  49.724  1.00  0.00     0.010 C 
HETATM   14  C25 UNL     1      24.981   5.410  50.415  1.00  0.00    -0.033 C 
HETATM   15  C7  UNL     1      27.431   4.577  48.816  1.00  0.00    -0.001 C 
HETATM   16  C6  UNL     1      27.057   5.915  48.301  1.00  0.00     0.007 C 
HETATM   17  C5  UNL     1      25.994   6.637  48.680  1.00  0.00    -0.058 C 
HETATM   18  C4  UNL     1      25.425   7.385  47.528  1.00  0.00     0.040 C 
HETATM   19  C26 UNL     1      25.532   6.602  50.093  1.00  0.00     0.014 C 
HETATM   20  C3  UNL     1      25.048   8.797  47.812  1.00  0.00     0.035 C 
HETATM   21  C2  UNL     1      24.416   9.358  46.528  1.00  0.00     0.272 C 
HETATM   22  N1  UNL     1      23.231   8.633  46.151  1.00  0.00     0.086 N 
HETATM   23  C1  UNL     1      22.756   9.106  44.839  1.00  0.00     0.310 C 
HETATM   24  C21 UNL     1      22.172   8.903  47.083  1.00  0.00     0.298 C 
HETATM   25  C20 UNL     1      20.952   8.043  46.921  1.00  0.00     0.200 C 
HETATM   26  O3  UNL     1      21.197   6.674  47.066  1.00  0.00    -0.370 OA
HETATM   27  C19 UNL     1      21.780   6.427  48.331  1.00  0.00     0.290 C 
HETATM   28  N3  UNL     1      22.030   5.022  48.571  1.00  0.00    -0.367 N 
HETATM   29  C18 UNL     1      22.891   4.711  49.660  1.00  0.00     0.078 C 
HETATM   30  H18 UNL     1      21.581   4.318  47.956  1.00  0.00     0.161 HD
HETATM   31  C22 UNL     1      23.497   5.407  50.788  1.00  0.00     0.026 C 
HETATM   32  C23 UNL     1      23.383   4.602  52.048  1.00  0.00     0.027 C 
HETATM   33  C24 UNL     1      23.039   6.801  51.069  1.00  0.00     0.027 C 
ENDBRANCH   9  10
ENDBRANCH   1   9
TORSDOF 2
ENDMDL
MODEL 5
REMARK VINA RESULT:      -8.5      3.240      7.372
REMARK  2 active torsions:
REMARK  status: ('A' for Active; 'I' for Inactive)
REMARK    1  A    between atoms: C10_12  and  O2_13 
REMARK    2  A    between atoms: O2_13  and  C11_14 
ROOT
HETATM    1  C11 UNL     1      23.416   1.516  51.237  1.00  0.00     0.078 A 
HETATM    2  C12 UNL     1      22.154   0.944  51.382  1.00  0.00     0.039 A 
HETATM    3  C13 UNL     1      21.846   0.102  52.426  1.00  0.00     0.025 A 
HETATM    4  C14 UNL     1      22.787  -0.224  53.398  1.00  0.00     0.044 A 
HETATM    5  C15 UNL     1      22.533  -1.091  54.506  1.00  0.00     0.099 C 
HETATM    6  N2  UNL     1      22.329  -1.789  55.397  1.00  0.00    -0.191 NA
HETATM    7  C16 UNL     1      24.049   0.325  53.285  1.00  0.00     0.025 A 
HETATM    8  C17 UNL     1      24.297   1.161  52.217  1.00  0.00     0.039 A 
ENDROOT
BRANCH   1   9
HETATM    9  O2  UNL     1      23.662   2.345  50.177  1.00  0.00    -0.286 OA
BRANCH   9  10
HETATM   10  C10 UNL     1      23.447   3.737  50.185  1.00  0.00     0.211 C 
HETATM   11  O1  UNL     1      24.437   4.584  50.746  1.00  0.00    -0.315 OA
HETATM   12  C9  UNL     1      24.452   5.991  50.506  1.00  0.00     0.184 C 
HETATM   13  C8  UNL     1      25.701   6.439  49.858  1.00  0.00     0.010 C 
HETATM   14  C25 UNL     1      23.207   6.458  49.879  1.00  0.00    -0.033 C 
HETATM   15  C7  UNL     1      25.943   7.002  48.669  1.00  0.00    -0.001 C 
HETATM   16  C6  UNL     1      24.964   7.392  47.627  1.00  0.00     0.007 C 
HETATM   17  C5  UNL     1      23.633   7.264  47.709  1.00  0.00    -0.058 C 
HETATM   18  C4  UNL     1      23.054   6.912  46.385  1.00  0.00     0.040 C 
HETATM   19  C26 UNL     1      22.942   7.460  49.011  1.00  0.00     0.014 C 
HETATM   20  C3  UNL     1      21.813   7.648  46.020  1.00  0.00     0.035 C 
HETATM   21  C2  UNL     1      21.341   7.085  44.669  1.00  0.00     0.272 C 
HETATM   22  N1  UNL     1      21.036   5.681  44.748  1.00  0.00     0.086 N 
HETATM   23  C1  UNL     1      20.742   5.160  43.403  1.00  0.00     0.310 C 
HETATM   24  C21 UNL     1      19.846   5.480  45.527  1.00  0.00     0.298 C 
HETATM   25  C20 UNL     1      19.543   4.048  45.861  1.00  0.00     0.200 C 
HETATM   26  O3  UNL     1      20.546   3.411  46.597  1.00  0.00    -0.370 OA
HETATM   27  C19 UNL     1      20.789   4.130  47.791  1.00  0.00     0.290 C 
HETATM   28  N3  UNL     1      21.794   3.508  48.627  1.00  0.00    -0.367 N 
HETATM   29  C18 UNL     1      22.326   4.310  49.675  1.00  0.00     0.078 C 
HETATM   30  H18 UNL     1      22.075   2.529  48.434  1.00  0.00     0.161 HD
HETATM   31  C22 UNL     1      22.028   5.584  50.315  1.00  0.00     0.026 C 
HETATM   32  C23 UNL     1      22.117   5.476  51.808  1.00  0.00     0.027 C 
HETATM   33  C24 UNL     1      20.740   6.253  49.961  1.00  0.00     0.027 C 
ENDBRANCH   9  10
ENDBRANCH   1   9
TORSDOF 2
ENDMDL
MODEL 6
REMARK VINA RESULT:      -8.4      2.928      6.573
REMARK  2 active torsions:
REMARK  status: ('A' for Active; 'I' for Inactive)
REMARK    1  A    between atoms: C10_12  and  O2_13 
REMARK    2  A    between atoms: O2_13  and  C11_14 
ROOT
HETATM    1  C11 UNL     1      24.011   1.484  52.380  1.00  0.00     0.078 A 
HETATM    2  C12 UNL     1      23.771   0.371  53.184  1.00  0.00     0.039 A 
HETATM    3  C13 UNL     1      24.714  -0.613  53.374  1.00  0.00     0.025 A 
HETATM    4  C14 UNL     1      25.966  -0.547  52.768  1.00  0.00     0.044 A 
HETATM    5  C15 UNL     1      26.989  -1.532  52.924  1.00  0.00     0.099 C 
HETATM    6  N2  UNL     1      27.812  -2.326  53.048  1.00  0.00    -0.191 NA
HETATM    7  C16 UNL     1      26.237   0.543  51.964  1.00  0.00     0.025 A 
HETATM    8  C17 UNL     1      25.251   1.495  51.813  1.00  0.00     0.039 A 
ENDROOT
BRANCH   1   9
HETATM    9  O2  UNL     1      23.032   2.428  52.228  1.00  0.00    -0.286 OA
BRANCH   9  10
HETATM   10  C10 UNL     1      22.034   2.390  51.235  1.00  0.00     0.211 C 
HETATM   11  O1  UNL     1      20.850   1.648  51.477  1.00  0.00    -0.315 OA
HETATM   12  C9  UNL     1      19.675   1.821  50.683  1.00  0.00     0.184 C 
HETATM   13  C8  UNL     1      18.511   2.251  51.484  1.00  0.00     0.010 C 
HETATM   14  C25 UNL     1      19.939   2.608  49.470  1.00  0.00    -0.033 C 
HETATM   15  C7  UNL     1      17.769   3.364  51.462  1.00  0.00    -0.001 C 
HETATM   16  C6  UNL     1      17.889   4.524  50.546  1.00  0.00     0.007 C 
HETATM   17  C5  UNL     1      18.771   4.649  49.546  1.00  0.00    -0.058 C 
HETATM   18  C4  UNL     1      19.224   6.060  49.416  1.00  0.00     0.040 C 
HETATM   19  C26 UNL     1      19.175   3.460  48.750  1.00  0.00     0.014 C 
HETATM   20  C3  UNL     1      19.301   6.576  48.022  1.00  0.00     0.035 C 
HETATM   21  C2  UNL     1      19.858   8.007  48.105  1.00  0.00     0.272 C 
HETATM   22  N1  UNL     1      21.177   8.037  48.679  1.00  0.00     0.086 N 
HETATM   23  C1  UNL     1      21.600   9.433  48.880  1.00  0.00     0.310 C 
HETATM   24  C21 UNL     1      22.124   7.457  47.768  1.00  0.00     0.298 C 
HETATM   25  C20 UNL     1      23.496   7.237  48.335  1.00  0.00     0.200 C 
HETATM   26  O3  UNL     1      23.524   6.387  49.445  1.00  0.00    -0.370 OA
HETATM   27  C19 UNL     1      22.952   5.139  49.102  1.00  0.00     0.290 C 
HETATM   28  N3  UNL     1      22.978   4.189  50.193  1.00  0.00    -0.367 N 
HETATM   29  C18 UNL     1      22.155   3.038  50.047  1.00  0.00     0.078 C 
HETATM   30  H18 UNL     1      23.582   4.380  51.014  1.00  0.00     0.161 HD
HETATM   31  C22 UNL     1      21.379   2.394  48.996  1.00  0.00     0.026 C 
HETATM   32  C23 UNL     1      21.601   0.911  48.987  1.00  0.00     0.027 C 
HETATM   33  C24 UNL     1      21.538   2.909  47.603  1.00  0.00     0.027 C 
ENDBRANCH   9  10
ENDBRANCH   1   9
TORSDOF 2
ENDMDL
MODEL 7
REMARK VINA RESULT:      -8.4      3.570      6.335
REMARK  2 active torsions:
REMARK  status: ('A' for Active; 'I' for Inactive)
REMARK    1  A    between atoms: C10_12  and  O2_13 
REMARK    2  A    between atoms: O2_13  and  C11_14 
ROOT
HETATM    1  C11 UNL     1      22.249   4.664  46.587  1.00  0.00     0.078 A 
HETATM    2  C12 UNL     1      21.979   5.983  46.223  1.00  0.00     0.039 A 
HETATM    3  C13 UNL     1      21.316   6.300  45.060  1.00  0.00     0.025 A 
HETATM    4  C14 UNL     1      20.878   5.314  44.181  1.00  0.00     0.044 A 
HETATM    5  C15 UNL     1      20.184   5.575  42.959  1.00  0.00     0.099 C 
HETATM    6  N2  UNL     1      19.627   5.786  41.974  1.00  0.00    -0.191 NA
HETATM    7  C16 UNL     1      21.129   3.997  44.510  1.00  0.00     0.025 A 
HETATM    8  C17 UNL     1      21.798   3.742  45.689  1.00  0.00     0.039 A 
ENDROOT
BRANCH   1   9
HETATM    9  O2  UNL     1      22.914   4.412  47.756  1.00  0.00    -0.286 OA
BRANCH   9  10
HETATM   10  C10 UNL     1      22.287   4.174  48.996  1.00  0.00     0.211 C 
HETATM   11  O1  UNL     1      20.883   3.982  49.031  1.00  0.00    -0.315 OA
HETATM   12  C9  UNL     1      20.226   3.423  50.169  1.00  0.00     0.184 C 
HETATM   13  C8  UNL     1      19.496   2.180  49.845  1.00  0.00     0.010 C 
HETATM   14  C25 UNL     1      21.112   3.354  51.340  1.00  0.00    -0.033 C 
HETATM   15  C7  UNL     1      19.646   0.918  50.262  1.00  0.00    -0.001 C 
HETATM   16  C6  UNL     1      20.614   0.391  51.253  1.00  0.00     0.007 C 
HETATM   17  C5  UNL     1      21.515   1.112  51.933  1.00  0.00    -0.058 C 
HETATM   18  C4  UNL     1      22.775   0.344  52.119  1.00  0.00     0.040 C 
HETATM   19  C26 UNL     1      21.186   2.492  52.379  1.00  0.00     0.014 C 
HETATM   20  C3  UNL     1      23.375   0.429  53.479  1.00  0.00     0.035 C 
HETATM   21  C2  UNL     1      24.694  -0.361  53.435  1.00  0.00     0.272 C 
HETATM   22  N1  UNL     1      25.622   0.196  52.487  1.00  0.00     0.086 N 
HETATM   23  C1  UNL     1      26.799  -0.682  52.371  1.00  0.00     0.310 C 
HETATM   24  C21 UNL     1      26.110   1.461  52.962  1.00  0.00     0.298 C 
HETATM   25  C20 UNL     1      26.921   2.240  51.967  1.00  0.00     0.200 C 
HETATM   26  O3  UNL     1      26.230   2.556  50.792  1.00  0.00    -0.370 OA
HETATM   27  C19 UNL     1      25.057   3.280  51.111  1.00  0.00     0.290 C 
HETATM   28  N3  UNL     1      24.305   3.676  49.940  1.00  0.00    -0.367 N 
HETATM   29  C18 UNL     1      22.973   4.121  50.167  1.00  0.00     0.078 C 
HETATM   30  H18 UNL     1      24.758   3.624  49.009  1.00  0.00     0.161 HD
HETATM   31  C22 UNL     1      22.138   4.489  51.302  1.00  0.00     0.026 C 
HETATM   32  C23 UNL     1      21.365   5.744  51.024  1.00  0.00     0.027 C 
HETATM   33  C24 UNL     1      22.800   4.622  52.635  1.00  0.00     0.027 C 
ENDBRANCH   9  10
ENDBRANCH   1   9
TORSDOF 2
ENDMDL
MODEL 8
REMARK VINA RESULT:      -8.4     24.740     27.807
REMARK  2 active torsions:
REMARK  status: ('A' for Active; 'I' for Inactive)
REMARK    1  A    between atoms: C10_12  and  O2_13 
REMARK    2  A    between atoms: O2_13  and  C11_14 
ROOT
HETATM    1  C11 UNL     1      40.301  -1.220  67.028  1.00  0.00     0.078 A 
HETATM    2  C12 UNL     1      40.910  -2.282  67.696  1.00  0.00     0.039 A 
HETATM    3  C13 UNL     1      40.306  -3.513  67.819  1.00  0.00     0.025 A 
HETATM    4  C14 UNL     1      39.047  -3.762  67.279  1.00  0.00     0.044 A 
HETATM    5  C15 UNL     1      38.366  -5.014  67.370  1.00  0.00     0.099 C 
HETATM    6  N2  UNL     1      37.816  -6.023  67.445  1.00  0.00    -0.191 NA
HETATM    7  C16 UNL     1      38.416  -2.731  66.610  1.00  0.00     0.025 A 
HETATM    8  C17 UNL     1      39.071  -1.522  66.521  1.00  0.00     0.039 A 
ENDROOT
BRANCH   1   9
HETATM    9  O2  UNL     1      40.951  -0.020  66.940  1.00  0.00    -0.286 OA
BRANCH   9  10
HETATM   10  C10 UNL     1      41.761   0.526  67.956  1.00  0.00     0.211 C 
HETATM   11  O1  UNL     1      43.120   0.817  67.672  1.00  0.00    -0.315 OA
HETATM   12  C9  UNL     1      43.906   1.656  68.518  1.00  0.00     0.184 C 
HETATM   13  C8  UNL     1      44.426   2.843  67.811  1.00  0.00     0.010 C 
HETATM   14  C25 UNL     1      43.242   1.920  69.803  1.00  0.00    -0.033 C 
HETATM   15  C7  UNL     1      44.217   4.153  67.984  1.00  0.00    -0.001 C 
HETATM   16  C6  UNL     1      43.391   4.818  69.019  1.00  0.00     0.007 C 
HETATM   17  C5  UNL     1      42.711   4.205  69.997  1.00  0.00    -0.058 C 
HETATM   18  C4  UNL     1      41.429   4.908  70.270  1.00  0.00     0.040 C 
HETATM   19  C26 UNL     1      43.263   2.983  70.640  1.00  0.00     0.014 C 
HETATM   20  C3  UNL     1      41.096   5.084  71.710  1.00  0.00     0.035 C 
HETATM   21  C2  UNL     1      39.713   5.754  71.771  1.00  0.00     0.272 C 
HETATM   22  N1  UNL     1      38.695   4.940  71.159  1.00  0.00     0.086 N 
HETATM   23  C1  UNL     1      37.428   5.689  71.104  1.00  0.00     0.310 C 
HETATM   24  C21 UNL     1      38.442   3.780  71.968  1.00  0.00     0.298 C 
HETATM   25  C20 UNL     1      37.555   2.749  71.333  1.00  0.00     0.200 C 
HETATM   26  O3  UNL     1      38.053   2.229  70.134  1.00  0.00    -0.370 OA
HETATM   27  C19 UNL     1      39.336   1.675  70.353  1.00  0.00     0.290 C 
HETATM   28  N3  UNL     1      39.904   1.082  69.161  1.00  0.00    -0.367 N 
HETATM   29  C18 UNL     1      41.295   0.789  69.205  1.00  0.00     0.078 C 
HETATM   30  H18 UNL     1      39.288   0.898  68.348  1.00  0.00     0.161 HD
HETATM   31  C22 UNL     1      42.356   0.738  70.202  1.00  0.00     0.026 C 
HETATM   32  C23 UNL     1      43.199  -0.492  70.036  1.00  0.00     0.027 C 
HETATM   33  C24 UNL     1      41.963   0.857  71.638  1.00  0.00     0.027 C 
ENDBRANCH   9  10
ENDBRANCH   1   9
TORSDOF 2
ENDMDL
MODEL 9
REMARK VINA RESULT:      -8.3      6.707     11.420
REMARK  2 active torsions:
REMARK  status: ('A' for Active; 'I' for Inactive)
REMARK    1  A    between atoms: C10_12  and  O2_13 
REMARK    2  A    between atoms: O2_13  and  C11_14 
ROOT
HETATM    1  C11 UNL     1      32.283   7.411  49.138  1.00  0.00     0.078 A 
HETATM    2  C12 UNL     1      33.651   7.520  48.890  1.00  0.00     0.039 A 
HETATM    3  C13 UNL     1      34.401   6.459  48.436  1.00  0.00     0.025 A 
HETATM    4  C14 UNL     1      33.828   5.213  48.199  1.00  0.00     0.044 A 
HETATM    5  C15 UNL     1      34.548   4.073  47.728  1.00  0.00     0.099 C 
HETATM    6  N2  UNL     1      35.129   3.153  47.350  1.00  0.00    -0.191 NA
HETATM    7  C16 UNL     1      32.475   5.069  48.435  1.00  0.00     0.025 A 
HETATM    8  C17 UNL     1      31.778   6.168  48.889  1.00  0.00     0.039 A 
ENDROOT
BRANCH   1   9
HETATM    9  O2  UNL     1      31.592   8.501  49.590  1.00  0.00    -0.286 OA
BRANCH   9  10
HETATM   10  C10 UNL     1      30.955   9.444  48.758  1.00  0.00     0.211 C 
HETATM   11  O1  UNL     1      31.653   9.951  47.633  1.00  0.00    -0.315 OA
HETATM   12  C9  UNL     1      30.983  10.641  46.577  1.00  0.00     0.184 C 
HETATM   13  C8  UNL     1      31.153   9.975  45.270  1.00  0.00     0.010 C 
HETATM   14  C25 UNL     1      29.602  10.994  46.937  1.00  0.00    -0.033 C 
HETATM   15  C7  UNL     1      30.278   9.410  44.431  1.00  0.00    -0.001 C 
HETATM   16  C6  UNL     1      28.805   9.327  44.567  1.00  0.00     0.007 C 
HETATM   17  C5  UNL     1      28.077   9.835  45.570  1.00  0.00    -0.058 C 
HETATM   18  C4  UNL     1      26.929   8.946  45.893  1.00  0.00     0.040 C 
HETATM   19  C26 UNL     1      28.472  11.120  46.206  1.00  0.00     0.014 C 
HETATM   20  C3  UNL     1      25.633   9.641  46.123  1.00  0.00     0.035 C 
HETATM   21  C2  UNL     1      24.610   8.562  46.515  1.00  0.00     0.272 C 
HETATM   22  N1  UNL     1      24.987   7.879  47.725  1.00  0.00     0.086 N 
HETATM   23  C1  UNL     1      24.063   6.758  47.969  1.00  0.00     0.310 C 
HETATM   24  C21 UNL     1      24.854   8.763  48.849  1.00  0.00     0.298 C 
HETATM   25  C20 UNL     1      25.417   8.236  50.137  1.00  0.00     0.200 C 
HETATM   26  O3  UNL     1      26.784   7.949  50.086  1.00  0.00    -0.370 OA
HETATM   27  C19 UNL     1      27.499   9.108  49.700  1.00  0.00     0.290 C 
HETATM   28  N3  UNL     1      28.930   8.898  49.660  1.00  0.00    -0.367 N 
HETATM   29  C18 UNL     1      29.694   9.893  48.988  1.00  0.00     0.078 C 
HETATM   30  H18 UNL     1      29.329   8.056  50.113  1.00  0.00     0.161 HD
HETATM   31  C22 UNL     1      29.485  11.228  48.445  1.00  0.00     0.026 C 
HETATM   32  C23 UNL     1      30.612  12.147  48.815  1.00  0.00     0.027 C 
HETATM   33  C24 UNL     1      28.193  11.908  48.756  1.00  0.00     0.027 C 
ENDBRANCH   9  10
ENDBRANCH   1   9
TORSDOF 2
ENDMDL
