MODEL 1
REMARK VINA RESULT:      -7.8      0.000      0.000
REMARK  8 active torsions:
REMARK  status: ('A' for Active; 'I' for Inactive)
REMARK    1  A    between atoms: O1_2  and  C2_3 
REMARK    2  A    between atoms: C6_9  and  N3_10 
REMARK    3  A    between atoms: N3_10  and  C7_11 
REMARK    4  A    between atoms: C14_21  and  O2_22 
REMARK    5  A    between atoms: O2_22  and  C15_23 
REMARK    6  A    between atoms: C15_23  and  C16_24 
REMARK    7  A    between atoms: C16_24  and  C17_25 
REMARK    8  A    between atoms: C17_25  and  N4_26 
ROOT
HETATM    1  C2  UNL     1      19.488  -0.336  52.632  1.00  0.00     0.103 A 
HETATM    2  C3  UNL     1      20.017  -0.921  53.791  1.00  0.00     0.072 A 
HETATM    3  C4  UNL     1      21.372  -0.886  54.045  1.00  0.00     0.075 A 
HETATM    4  N1  UNL     1      21.924  -1.430  55.161  1.00  0.00    -0.241 NA
HETATM    5  C5  UNL     1      23.258  -1.332  55.321  1.00  0.00     0.236 A 
HETATM    6  N2  UNL     1      24.044  -0.721  54.420  1.00  0.00    -0.224 NA
HETATM    7  C6  UNL     1      23.532  -0.163  53.285  1.00  0.00     0.142 A 
HETATM    8  C12 UNL     1      22.170  -0.259  53.116  1.00  0.00     0.042 A 
HETATM    9  C13 UNL     1      21.702   0.330  51.964  1.00  0.00     0.057 A 
HETATM   10  C14 UNL     1      20.347   0.291  51.719  1.00  0.00     0.103 A 
ENDROOT
BRANCH   7  11
HETATM   11  N3  UNL     1      24.508   0.452  52.452  1.00  0.00    -0.339 N 
HETATM   12  H6  UNL     1      24.419   1.050  51.592  1.00  0.00     0.167 HD
BRANCH  11  13
HETATM   13  C7  UNL     1      25.887   0.235  52.826  1.00  0.00     0.048 A 
HETATM   14  C8  UNL     1      26.589  -0.935  52.635  1.00  0.00     0.034 A 
HETATM   15  C9  UNL     1      27.884  -1.142  52.969  1.00  0.00     0.046 A 
HETATM   16  C10 UNL     1      28.783  -0.284  53.551  1.00  0.00     0.139 A 
HETATM   17  F1  UNL     1      30.081  -0.647  53.828  1.00  0.00    -0.204 F 
HETATM   18  C11 UNL     1      28.477   1.012  53.910  1.00  0.00     0.087 A 
HETATM   19 CL1  UNL     1      29.636   2.112  54.657  1.00  0.00    -0.079 Cl
HETATM   20  P1  UNL     1      26.845   1.504  53.572  1.00  0.00     0.024 P 
ENDBRANCH  11  13
ENDBRANCH   7  11
BRANCH  10  21
HETATM   21  O2  UNL     1      19.645   0.799  50.655  1.00  0.00    -0.348 OA
BRANCH  21  22
HETATM   22  C15 UNL     1      20.108   1.499  49.551  1.00  0.00     0.177 C 
BRANCH  22  23
HETATM   23  C16 UNL     1      20.066   2.998  49.828  1.00  0.00     0.057 C 
BRANCH  23  24
HETATM   24  C17 UNL     1      21.407   3.602  50.086  1.00  0.00     0.273 C 
BRANCH  24  25
HETATM   25  N4  UNL     1      21.482   4.192  51.431  1.00  0.00     0.080 N 
HETATM   26  C18 UNL     1      22.737   3.814  52.062  1.00  0.00     0.309 C 
HETATM   27  C19 UNL     1      21.547   5.644  51.195  1.00  0.00     0.309 C 
ENDBRANCH  24  25
ENDBRANCH  23  24
ENDBRANCH  22  23
ENDBRANCH  21  22
ENDBRANCH  10  21
BRANCH   1  28
HETATM   28  O1  UNL     1      18.103  -0.425  52.468  1.00  0.00    -0.353 OA
HETATM   29  C1  UNL     1      17.423  -1.498  53.089  1.00  0.00     0.210 C 
ENDBRANCH   1  28
TORSDOF 8
ENDMDL
MODEL 2
REMARK VINA RESULT:      -7.6      3.721      6.245
REMARK  8 active torsions:
REMARK  status: ('A' for Active; 'I' for Inactive)
REMARK    1  A    between atoms: O1_2  and  C2_3 
REMARK    2  A    between atoms: C6_9  and  N3_10 
REMARK    3  A    between atoms: N3_10  and  C7_11 
REMARK    4  A    between atoms: C14_21  and  O2_22 
REMARK    5  A    between atoms: O2_22  and  C15_23 
REMARK    6  A    between atoms: C15_23  and  C16_24 
REMARK    7  A    between atoms: C16_24  and  C17_25 
REMARK    8  A    between atoms: C17_25  and  N4_26 
ROOT
HETATM    1  C2  UNL     1      22.407  -0.111  52.689  1.00  0.00     0.103 A 
HETATM    2  C3  UNL     1      21.421   0.382  51.824  1.00  0.00     0.072 A 
HETATM    3  C4  UNL     1      21.479   1.676  51.351  1.00  0.00     0.075 A 
HETATM    4  N1  UNL     1      20.551   2.189  50.502  1.00  0.00    -0.241 NA
HETATM    5  C5  UNL     1      20.705   3.462  50.088  1.00  0.00     0.236 A 
HETATM    6  N2  UNL     1      21.736   4.225  50.488  1.00  0.00    -0.224 NA
HETATM    7  C6  UNL     1      22.690   3.750  51.341  1.00  0.00     0.142 A 
HETATM    8  C12 UNL     1      22.538   2.450  51.766  1.00  0.00     0.042 A 
HETATM    9  C13 UNL     1      23.531   2.015  52.613  1.00  0.00     0.057 A 
HETATM   10  C14 UNL     1      23.465   0.721  53.080  1.00  0.00     0.103 A 
ENDROOT
BRANCH   7  11
HETATM   11  N3  UNL     1      23.713   4.690  51.645  1.00  0.00    -0.339 N 
HETATM   12  H6  UNL     1      23.809   5.395  52.419  1.00  0.00     0.167 HD
BRANCH  11  13
HETATM   13  C7  UNL     1      24.843   4.711  50.745  1.00  0.00     0.048 A 
HETATM   14  C8  UNL     1      25.676   3.644  50.488  1.00  0.00     0.034 A 
HETATM   15  C9  UNL     1      26.727   3.651  49.635  1.00  0.00     0.046 A 
HETATM   16  C10 UNL     1      27.207   4.669  48.849  1.00  0.00     0.139 A 
HETATM   17  F1  UNL     1      28.297   4.515  48.023  1.00  0.00    -0.204 F 
HETATM   18  C11 UNL     1      26.648   5.928  48.809  1.00  0.00     0.087 A 
HETATM   19 CL1  UNL     1      27.266   7.233  47.795  1.00  0.00    -0.079 Cl
HETATM   20  P1  UNL     1      25.266   6.154  49.839  1.00  0.00     0.024 P 
ENDBRANCH  11  13
ENDBRANCH   7  11
BRANCH  10  21
HETATM   21  O2  UNL     1      24.322   0.061  53.924  1.00  0.00    -0.348 OA
BRANCH  21  22
HETATM   22  C15 UNL     1      25.527  -0.565  53.640  1.00  0.00     0.177 C 
BRANCH  22  23
HETATM   23  C16 UNL     1      26.676   0.428  53.773  1.00  0.00     0.057 C 
BRANCH  23  24
HETATM   24  C17 UNL     1      27.556   0.178  54.952  1.00  0.00     0.273 C 
BRANCH  24  25
HETATM   25  N4  UNL     1      28.970   0.421  54.630  1.00  0.00     0.080 N 
HETATM   26  C18 UNL     1      29.494  -0.693  53.855  1.00  0.00     0.309 C 
HETATM   27  C19 UNL     1      28.952   1.589  53.734  1.00  0.00     0.309 C 
ENDBRANCH  24  25
ENDBRANCH  23  24
ENDBRANCH  22  23
ENDBRANCH  21  22
ENDBRANCH  10  21
BRANCH   1  28
HETATM   28  O1  UNL     1      22.257  -1.436  53.112  1.00  0.00    -0.353 OA
HETATM   29  C1  UNL     1      21.418  -1.693  54.220  1.00  0.00     0.210 C 
ENDBRANCH   1  28
TORSDOF 8
ENDMDL
MODEL 3
REMARK VINA RESULT:      -7.5      1.553      2.130
REMARK  8 active torsions:
REMARK  status: ('A' for Active; 'I' for Inactive)
REMARK    1  A    between atoms: O1_2  and  C2_3 
REMARK    2  A    between atoms: C6_9  and  N3_10 
REMARK    3  A    between atoms: N3_10  and  C7_11 
REMARK    4  A    between atoms: C14_21  and  O2_22 
REMARK    5  A    between atoms: O2_22  and  C15_23 
REMARK    6  A    between atoms: C15_23  and  C16_24 
REMARK    7  A    between atoms: C16_24  and  C17_25 
REMARK    8  A    between atoms: C17_25  and  N4_26 
ROOT
HETATM    1  C2  UNL     1      19.498  -0.454  52.849  1.00  0.00     0.103 A 
HETATM    2  C3  UNL     1      20.072  -1.061  53.974  1.00  0.00     0.072 A 
HETATM    3  C4  UNL     1      21.432  -0.999  54.194  1.00  0.00     0.075 A 
HETATM    4  N1  UNL     1      22.027  -1.564  55.277  1.00  0.00    -0.241 NA
HETATM    5  C5  UNL     1      23.362  -1.435  55.406  1.00  0.00     0.236 A 
HETATM    6  N2  UNL     1      24.108  -0.775  54.506  1.00  0.00    -0.224 NA
HETATM    7  C6  UNL     1      23.551  -0.193  53.403  1.00  0.00     0.142 A 
HETATM    8  C12 UNL     1      22.188  -0.321  53.266  1.00  0.00     0.042 A 
HETATM    9  C13 UNL     1      21.674   0.293  52.147  1.00  0.00     0.057 A 
HETATM   10  C14 UNL     1      20.315   0.225  51.936  1.00  0.00     0.103 A 
ENDROOT
BRANCH   7  11
HETATM   11  N3  UNL     1      24.489   0.474  52.566  1.00  0.00    -0.339 N 
HETATM   12  H6  UNL     1      24.361   1.105  51.735  1.00  0.00     0.167 HD
BRANCH  11  13
HETATM   13  C7  UNL     1      25.883   0.269  52.887  1.00  0.00     0.048 A 
HETATM   14  C8  UNL     1      26.592  -0.888  52.650  1.00  0.00     0.034 A 
HETATM   15  C9  UNL     1      27.901  -1.083  52.933  1.00  0.00     0.046 A 
HETATM   16  C10 UNL     1      28.810  -0.224  53.500  1.00  0.00     0.139 A 
HETATM   17  F1  UNL     1      30.121  -0.575  53.723  1.00  0.00    -0.204 F 
HETATM   18  C11 UNL     1      28.500   1.060  53.893  1.00  0.00     0.087 A 
HETATM   19 CL1  UNL     1      29.670   2.163  54.619  1.00  0.00    -0.079 Cl
HETATM   20  P1  UNL     1      26.850   1.537  53.622  1.00  0.00     0.024 P 
ENDBRANCH  11  13
ENDBRANCH   7  11
BRANCH  10  21
HETATM   21  O2  UNL     1      19.572   0.749  50.908  1.00  0.00    -0.348 OA
BRANCH  21  22
HETATM   22  C15 UNL     1      19.801   1.888  50.150  1.00  0.00     0.177 C 
BRANCH  22  23
HETATM   23  C16 UNL     1      18.567   2.784  50.169  1.00  0.00     0.057 C 
BRANCH  23  24
HETATM   24  C17 UNL     1      18.167   3.230  51.535  1.00  0.00     0.273 C 
BRANCH  24  25
HETATM   25  N4  UNL     1      16.706   3.343  51.660  1.00  0.00     0.080 N 
HETATM   26  C18 UNL     1      16.191   4.212  50.612  1.00  0.00     0.309 C 
HETATM   27  C19 UNL     1      16.204   1.989  51.372  1.00  0.00     0.309 C 
ENDBRANCH  24  25
ENDBRANCH  23  24
ENDBRANCH  22  23
ENDBRANCH  21  22
ENDBRANCH  10  21
BRANCH   1  28
HETATM   28  O1  UNL     1      18.111  -0.574  52.718  1.00  0.00    -0.353 OA
HETATM   29  C1  UNL     1      17.496  -1.760  53.181  1.00  0.00     0.210 C 
ENDBRANCH   1  28
TORSDOF 8
ENDMDL
MODEL 4
REMARK VINA RESULT:      -7.5      4.230      7.120
REMARK  8 active torsions:
REMARK  status: ('A' for Active; 'I' for Inactive)
REMARK    1  A    between atoms: O1_2  and  C2_3 
REMARK    2  A    between atoms: C6_9  and  N3_10 
REMARK    3  A    between atoms: N3_10  and  C7_11 
REMARK    4  A    between atoms: C14_21  and  O2_22 
REMARK    5  A    between atoms: O2_22  and  C15_23 
REMARK    6  A    between atoms: C15_23  and  C16_24 
REMARK    7  A    between atoms: C16_24  and  C17_25 
REMARK    8  A    between atoms: C17_25  and  N4_26 
ROOT
HETATM    1  C2  UNL     1      22.749   0.589  52.673  1.00  0.00     0.103 A 
HETATM    2  C3  UNL     1      21.562   1.193  52.238  1.00  0.00     0.072 A 
HETATM    3  C4  UNL     1      21.503   2.552  52.009  1.00  0.00     0.075 A 
HETATM    4  N1  UNL     1      20.376   3.175  51.576  1.00  0.00    -0.241 NA
HETATM    5  C5  UNL     1      20.427   4.506  51.370  1.00  0.00     0.236 A 
HETATM    6  N2  UNL     1      21.544   5.221  51.581  1.00  0.00    -0.224 NA
HETATM    7  C6  UNL     1      22.697   4.635  52.017  1.00  0.00     0.142 A 
HETATM    8  C12 UNL     1      22.652   3.277  52.228  1.00  0.00     0.042 A 
HETATM    9  C13 UNL     1      23.841   2.733  52.654  1.00  0.00     0.057 A 
HETATM   10  C14 UNL     1      23.891   1.375  52.880  1.00  0.00     0.103 A 
ENDROOT
BRANCH   7  11
HETATM   11  N3  UNL     1      23.782   5.542  52.172  1.00  0.00    -0.339 N 
HETATM   12  H6  UNL     1      24.266   5.916  53.027  1.00  0.00     0.167 HD
BRANCH  11  13
HETATM   13  C7  UNL     1      24.349   6.067  50.951  1.00  0.00     0.048 A 
HETATM   14  C8  UNL     1      25.085   5.343  50.039  1.00  0.00     0.034 A 
HETATM   15  C9  UNL     1      25.605   5.824  48.886  1.00  0.00     0.046 A 
HETATM   16  C10 UNL     1      25.538   7.089  48.357  1.00  0.00     0.139 A 
HETATM   17  F1  UNL     1      26.125   7.423  47.158  1.00  0.00    -0.204 F 
HETATM   18  C11 UNL     1      24.881   8.135  48.969  1.00  0.00     0.087 A 
HETATM   19 CL1  UNL     1      24.794   9.759  48.286  1.00  0.00    -0.079 Cl
HETATM   20  P1  UNL     1      24.125   7.746  50.485  1.00  0.00     0.024 P 
ENDBRANCH  11  13
ENDBRANCH   7  11
BRANCH  10  21
HETATM   21  O2  UNL     1      24.945   0.606  53.303  1.00  0.00    -0.348 OA
BRANCH  21  22
HETATM   22  C15 UNL     1      26.020   0.113  52.578  1.00  0.00     0.177 C 
BRANCH  22  23
HETATM   23  C16 UNL     1      26.946  -0.682  53.492  1.00  0.00     0.057 C 
BRANCH  23  24
HETATM   24  C17 UNL     1      27.405   0.078  54.693  1.00  0.00     0.273 C 
BRANCH  24  25
HETATM   25  N4  UNL     1      28.873   0.132  54.767  1.00  0.00     0.080 N 
HETATM   26  C18 UNL     1      29.447  -0.782  53.792  1.00  0.00     0.309 C 
HETATM   27  C19 UNL     1      29.217   1.494  54.325  1.00  0.00     0.309 C 
ENDBRANCH  24  25
ENDBRANCH  23  24
ENDBRANCH  22  23
ENDBRANCH  21  22
ENDBRANCH  10  21
BRANCH   1  28
HETATM   28  O1  UNL     1      22.705  -0.794  52.876  1.00  0.00    -0.353 OA
HETATM   29  C1  UNL     1      21.975  -1.283  53.984  1.00  0.00     0.210 C 
ENDBRANCH   1  28
TORSDOF 8
ENDMDL
MODEL 5
REMARK VINA RESULT:      -7.0      4.737      7.589
REMARK  8 active torsions:
REMARK  status: ('A' for Active; 'I' for Inactive)
REMARK    1  A    between atoms: O1_2  and  C2_3 
REMARK    2  A    between atoms: C6_9  and  N3_10 
REMARK    3  A    between atoms: N3_10  and  C7_11 
REMARK    4  A    between atoms: C14_21  and  O2_22 
REMARK    5  A    between atoms: O2_22  and  C15_23 
REMARK    6  A    between atoms: C15_23  and  C16_24 
REMARK    7  A    between atoms: C16_24  and  C17_25 
REMARK    8  A    between atoms: C17_25  and  N4_26 
ROOT
HETATM    1  C2  UNL     1      25.756   0.486  52.997  1.00  0.00     0.103 A 
HETATM    2  C3  UNL     1      26.600   1.321  52.253  1.00  0.00     0.072 A 
HETATM    3  C4  UNL     1      26.084   2.188  51.311  1.00  0.00     0.075 A 
HETATM    4  N1  UNL     1      26.865   3.022  50.576  1.00  0.00    -0.241 NA
HETATM    5  C5  UNL     1      26.261   3.840  49.691  1.00  0.00     0.236 A 
HETATM    6  N2  UNL     1      24.930   3.850  49.519  1.00  0.00    -0.224 NA
HETATM    7  C6  UNL     1      24.108   3.027  50.235  1.00  0.00     0.142 A 
HETATM    8  C12 UNL     1      24.719   2.191  51.141  1.00  0.00     0.042 A 
HETATM    9  C13 UNL     1      23.848   1.392  51.846  1.00  0.00     0.057 A 
HETATM   10  C14 UNL     1      24.372   0.530  52.784  1.00  0.00     0.103 A 
ENDROOT
BRANCH   7  11
HETATM   11  N3  UNL     1      22.727   3.183  49.931  1.00  0.00    -0.339 N 
HETATM   12  H6  UNL     1      21.978   2.483  49.698  1.00  0.00     0.167 HD
BRANCH  11  13
HETATM   13  C7  UNL     1      22.227   4.538  49.932  1.00  0.00     0.048 A 
HETATM   14  C8  UNL     1      22.162   5.362  51.034  1.00  0.00     0.034 A 
HETATM   15  C9  UNL     1      21.709   6.638  51.040  1.00  0.00     0.046 A 
HETATM   16  C10 UNL     1      21.225   7.398  50.005  1.00  0.00     0.139 A 
HETATM   17  F1  UNL     1      20.800   8.695  50.174  1.00  0.00    -0.204 F 
HETATM   18  C11 UNL     1      21.119   6.940  48.709  1.00  0.00     0.087 A 
HETATM   19 CL1  UNL     1      20.498   7.920  47.380  1.00  0.00    -0.079 Cl
HETATM   20  P1  UNL     1      21.650   5.303  48.460  1.00  0.00     0.024 P 
ENDBRANCH  11  13
ENDBRANCH   7  11
BRANCH  10  21
HETATM   21  O2  UNL     1      23.720  -0.356  53.604  1.00  0.00    -0.348 OA
BRANCH  21  22
HETATM   22  C15 UNL     1      22.603  -1.135  53.343  1.00  0.00     0.177 C 
BRANCH  22  23
HETATM   23  C16 UNL     1      21.532  -0.880  54.398  1.00  0.00     0.057 C 
BRANCH  23  24
HETATM   24  C17 UNL     1      20.750   0.371  54.173  1.00  0.00     0.273 C 
BRANCH  24  25
HETATM   25  N4  UNL     1      20.411   0.548  52.753  1.00  0.00     0.080 N 
HETATM   26  C18 UNL     1      19.124  -0.071  52.476  1.00  0.00     0.309 C 
HETATM   27  C19 UNL     1      20.227   2.000  52.593  1.00  0.00     0.309 C 
ENDBRANCH  24  25
ENDBRANCH  23  24
ENDBRANCH  22  23
ENDBRANCH  21  22
ENDBRANCH  10  21
BRANCH   1  28
HETATM   28  O1  UNL     1      26.377  -0.355  53.926  1.00  0.00    -0.353 OA
HETATM   29  C1  UNL     1      27.192   0.233  54.921  1.00  0.00     0.210 C 
ENDBRANCH   1  28
TORSDOF 8
ENDMDL
MODEL 6
REMARK VINA RESULT:      -7.0      3.820      6.770
REMARK  8 active torsions:
REMARK  status: ('A' for Active; 'I' for Inactive)
REMARK    1  A    between atoms: O1_2  and  C2_3 
REMARK    2  A    between atoms: C6_9  and  N3_10 
REMARK    3  A    between atoms: N3_10  and  C7_11 
REMARK    4  A    between atoms: C14_21  and  O2_22 
REMARK    5  A    between atoms: O2_22  and  C15_23 
REMARK    6  A    between atoms: C15_23  and  C16_24 
REMARK    7  A    between atoms: C16_24  and  C17_25 
REMARK    8  A    between atoms: C17_25  and  N4_26 
ROOT
HETATM    1  C2  UNL     1      22.463  -0.085  52.930  1.00  0.00     0.103 A 
HETATM    2  C3  UNL     1      21.318   0.040  52.131  1.00  0.00     0.072 A 
HETATM    3  C4  UNL     1      21.330   0.827  50.998  1.00  0.00     0.075 A 
HETATM    4  N1  UNL     1      20.246   0.967  50.190  1.00  0.00    -0.241 NA
HETATM    5  C5  UNL     1      20.365   1.749  49.100  1.00  0.00     0.236 A 
HETATM    6  N2  UNL     1      21.508   2.385  48.796  1.00  0.00    -0.224 NA
HETATM    7  C6  UNL     1      22.620   2.274  49.581  1.00  0.00     0.142 A 
HETATM    8  C12 UNL     1      22.505   1.476  50.695  1.00  0.00     0.042 A 
HETATM    9  C13 UNL     1      23.655   1.386  51.445  1.00  0.00     0.057 A 
HETATM   10  C14 UNL     1      23.634   0.598  52.574  1.00  0.00     0.103 A 
ENDROOT
BRANCH   7  11
HETATM   11  N3  UNL     1      23.741   3.005  49.099  1.00  0.00    -0.339 N 
HETATM   12  H6  UNL     1      24.514   2.746  48.436  1.00  0.00     0.167 HD
BRANCH  11  13
HETATM   13  C7  UNL     1      23.877   4.356  49.595  1.00  0.00     0.048 A 
HETATM   14  C8  UNL     1      22.927   5.034  50.327  1.00  0.00     0.034 A 
HETATM   15  C9  UNL     1      23.053   6.294  50.807  1.00  0.00     0.046 A 
HETATM   16  C10 UNL     1      24.103   7.171  50.694  1.00  0.00     0.139 A 
HETATM   17  F1  UNL     1      24.077   8.431  51.247  1.00  0.00    -0.204 F 
HETATM   18  C11 UNL     1      25.271   6.878  50.024  1.00  0.00     0.087 A 
HETATM   19 CL1  UNL     1      26.618   8.008  49.882  1.00  0.00    -0.079 Cl
HETATM   20  P1  UNL     1      25.336   5.292  49.315  1.00  0.00     0.024 P 
ENDBRANCH  11  13
ENDBRANCH   7  11
BRANCH  10  21
HETATM   21  O2  UNL     1      24.639   0.350  53.475  1.00  0.00    -0.348 OA
BRANCH  21  22
HETATM   22  C15 UNL     1      25.621   1.205  53.952  1.00  0.00     0.177 C 
BRANCH  22  23
HETATM   23  C16 UNL     1      26.649   0.421  54.761  1.00  0.00     0.057 C 
BRANCH  23  24
HETATM   24  C17 UNL     1      27.672  -0.274  53.925  1.00  0.00     0.273 C 
BRANCH  24  25
HETATM   25  N4  UNL     1      29.021  -0.128  54.491  1.00  0.00     0.080 N 
HETATM   26  C18 UNL     1      29.973  -0.877  53.686  1.00  0.00     0.309 C 
HETATM   27  C19 UNL     1      29.345   1.297  54.316  1.00  0.00     0.309 C 
ENDBRANCH  24  25
ENDBRANCH  23  24
ENDBRANCH  22  23
ENDBRANCH  21  22
ENDBRANCH  10  21
BRANCH   1  28
HETATM   28  O1  UNL     1      22.348  -0.905  54.056  1.00  0.00    -0.353 OA
HETATM   29  C1  UNL     1      21.099  -1.516  54.313  1.00  0.00     0.210 C 
ENDBRANCH   1  28
TORSDOF 8
ENDMDL
MODEL 7
REMARK VINA RESULT:      -7.0      4.356      6.260
REMARK  8 active torsions:
REMARK  status: ('A' for Active; 'I' for Inactive)
REMARK    1  A    between atoms: O1_2  and  C2_3 
REMARK    2  A    between atoms: C6_9  and  N3_10 
REMARK    3  A    between atoms: N3_10  and  C7_11 
REMARK    4  A    between atoms: C14_21  and  O2_22 
REMARK    5  A    between atoms: O2_22  and  C15_23 
REMARK    6  A    between atoms: C15_23  and  C16_24 
REMARK    7  A    between atoms: C16_24  and  C17_25 
REMARK    8  A    between atoms: C17_25  and  N4_26 
ROOT
HETATM    1  C2  UNL     1      25.252  -0.232  53.622  1.00  0.00     0.103 A 
HETATM    2  C3  UNL     1      24.212  -1.065  54.057  1.00  0.00     0.072 A 
HETATM    3  C4  UNL     1      22.893  -0.716  53.848  1.00  0.00     0.075 A 
HETATM    4  N1  UNL     1      21.856  -1.499  54.243  1.00  0.00    -0.241 NA
HETATM    5  C5  UNL     1      20.605  -1.073  53.980  1.00  0.00     0.236 A 
HETATM    6  N2  UNL     1      20.360   0.087  53.350  1.00  0.00    -0.224 NA
HETATM    7  C6  UNL     1      21.373   0.905  52.938  1.00  0.00     0.142 A 
HETATM    8  C12 UNL     1      22.653   0.475  53.202  1.00  0.00     0.042 A 
HETATM    9  C13 UNL     1      23.637   1.327  52.756  1.00  0.00     0.057 A 
HETATM   10  C14 UNL     1      24.950   0.970  52.969  1.00  0.00     0.103 A 
ENDROOT
BRANCH   7  11
HETATM   11  N3  UNL     1      20.930   2.084  52.277  1.00  0.00    -0.339 N 
HETATM   12  H6  UNL     1      20.358   2.900  52.609  1.00  0.00     0.167 HD
BRANCH  11  13
HETATM   13  C7  UNL     1      21.320   2.218  50.892  1.00  0.00     0.048 A 
HETATM   14  C8  UNL     1      21.293   1.207  49.956  1.00  0.00     0.034 A 
HETATM   15  C9  UNL     1      21.641   1.329  48.654  1.00  0.00     0.046 A 
HETATM   16  C10 UNL     1      22.087   2.431  47.968  1.00  0.00     0.139 A 
HETATM   17  F1  UNL     1      22.401   2.393  46.629  1.00  0.00    -0.204 F 
HETATM   18  C11 UNL     1      22.259   3.670  48.547  1.00  0.00     0.087 A 
HETATM   19 CL1  UNL     1      22.830   5.085  47.661  1.00  0.00    -0.079 Cl
HETATM   20  P1  UNL     1      21.867   3.753  50.238  1.00  0.00     0.024 P 
ENDBRANCH  11  13
ENDBRANCH   7  11
BRANCH  10  21
HETATM   21  O2  UNL     1      26.096   1.641  52.623  1.00  0.00    -0.348 OA
BRANCH  21  22
HETATM   22  C15 UNL     1      26.665   1.822  51.371  1.00  0.00     0.177 C 
BRANCH  22  23
HETATM   23  C16 UNL     1      26.511   3.274  50.932  1.00  0.00     0.057 C 
BRANCH  23  24
HETATM   24  C17 UNL     1      26.718   3.486  49.469  1.00  0.00     0.273 C 
BRANCH  24  25
HETATM   25  N4  UNL     1      26.081   4.729  49.009  1.00  0.00     0.080 N 
HETATM   26  C18 UNL     1      25.465   5.410  50.137  1.00  0.00     0.309 C 
HETATM   27  C19 UNL     1      27.199   5.576  48.561  1.00  0.00     0.309 C 
ENDBRANCH  24  25
ENDBRANCH  23  24
ENDBRANCH  22  23
ENDBRANCH  21  22
ENDBRANCH  10  21
BRANCH   1  28
HETATM   28  O1  UNL     1      26.552  -0.676  53.881  1.00  0.00    -0.353 OA
HETATM   29  C1  UNL     1      27.155  -1.558  52.954  1.00  0.00     0.210 C 
ENDBRANCH   1  28
TORSDOF 8
ENDMDL
MODEL 8
REMARK VINA RESULT:      -7.0      6.144      8.687
REMARK  8 active torsions:
REMARK  status: ('A' for Active; 'I' for Inactive)
REMARK    1  A    between atoms: O1_2  and  C2_3 
REMARK    2  A    between atoms: C6_9  and  N3_10 
REMARK    3  A    between atoms: N3_10  and  C7_11 
REMARK    4  A    between atoms: C14_21  and  O2_22 
REMARK    5  A    between atoms: O2_22  and  C15_23 
REMARK    6  A    between atoms: C15_23  and  C16_24 
REMARK    7  A    between atoms: C16_24  and  C17_25 
REMARK    8  A    between atoms: C17_25  and  N4_26 
ROOT
HETATM    1  C2  UNL     1      26.951   7.425  49.102  1.00  0.00     0.103 A 
HETATM    2  C3  UNL     1      25.868   7.707  49.945  1.00  0.00     0.072 A 
HETATM    3  C4  UNL     1      25.053   6.695  50.411  1.00  0.00     0.075 A 
HETATM    4  N1  UNL     1      24.000   6.923  51.239  1.00  0.00    -0.241 NA
HETATM    5  C5  UNL     1      23.274   5.864  51.647  1.00  0.00     0.236 A 
HETATM    6  N2  UNL     1      23.558   4.609  51.261  1.00  0.00    -0.224 NA
HETATM    7  C6  UNL     1      24.606   4.336  50.429  1.00  0.00     0.142 A 
HETATM    8  C12 UNL     1      25.351   5.413  50.010  1.00  0.00     0.042 A 
HETATM    9  C13 UNL     1      26.402   5.084  49.184  1.00  0.00     0.057 A 
HETATM   10  C14 UNL     1      27.210   6.101  48.725  1.00  0.00     0.103 A 
ENDROOT
BRANCH   7  11
HETATM   11  N3  UNL     1      24.766   2.953  50.137  1.00  0.00    -0.339 N 
HETATM   12  H6  UNL     1      24.710   2.416  49.235  1.00  0.00     0.167 HD
BRANCH  11  13
HETATM   13  C7  UNL     1      25.057   2.097  51.265  1.00  0.00     0.048 A 
HETATM   14  C8  UNL     1      24.148   1.277  51.898  1.00  0.00     0.034 A 
HETATM   15  C9  UNL     1      24.417   0.462  52.944  1.00  0.00     0.046 A 
HETATM   16  C10 UNL     1      25.600   0.253  53.608  1.00  0.00     0.139 A 
HETATM   17  F1  UNL     1      25.713  -0.621  54.664  1.00  0.00    -0.204 F 
HETATM   18  C11 UNL     1      26.778   0.891  53.283  1.00  0.00     0.087 A 
HETATM   19 CL1  UNL     1      28.297   0.620  54.137  1.00  0.00    -0.079 Cl
HETATM   20  P1  UNL     1      26.671   2.002  51.950  1.00  0.00     0.024 P 
ENDBRANCH  11  13
ENDBRANCH   7  11
BRANCH  10  21
HETATM   21  O2  UNL     1      28.305   6.030  47.901  1.00  0.00    -0.348 OA
BRANCH  21  22
HETATM   22  C15 UNL     1      29.490   5.330  48.073  1.00  0.00     0.177 C 
BRANCH  22  23
HETATM   23  C16 UNL     1      30.596   6.278  48.523  1.00  0.00     0.057 C 
BRANCH  23  24
HETATM   24  C17 UNL     1      30.837   7.412  47.583  1.00  0.00     0.273 C 
BRANCH  24  25
HETATM   25  N4  UNL     1      31.739   8.415  48.169  1.00  0.00     0.080 N 
HETATM   26  C18 UNL     1      31.824   8.216  49.607  1.00  0.00     0.309 C 
HETATM   27  C19 UNL     1      33.065   8.089  47.617  1.00  0.00     0.309 C 
ENDBRANCH  24  25
ENDBRANCH  23  24
ENDBRANCH  22  23
ENDBRANCH  21  22
ENDBRANCH  10  21
BRANCH   1  28
HETATM   28  O1  UNL     1      27.715   8.520  48.685  1.00  0.00    -0.353 OA
HETATM   29  C1  UNL     1      28.264   9.367  49.676  1.00  0.00     0.210 C 
ENDBRANCH   1  28
TORSDOF 8
ENDMDL
MODEL 9
REMARK VINA RESULT:      -6.8      6.792      9.871
REMARK  8 active torsions:
REMARK  status: ('A' for Active; 'I' for Inactive)
REMARK    1  A    between atoms: O1_2  and  C2_3 
REMARK    2  A    between atoms: C6_9  and  N3_10 
REMARK    3  A    between atoms: N3_10  and  C7_11 
REMARK    4  A    between atoms: C14_21  and  O2_22 
REMARK    5  A    between atoms: O2_22  and  C15_23 
REMARK    6  A    between atoms: C15_23  and  C16_24 
REMARK    7  A    between atoms: C16_24  and  C17_25 
REMARK    8  A    between atoms: C17_25  and  N4_26 
ROOT
HETATM    1  C2  UNL     1      28.379   7.693  48.647  1.00  0.00     0.103 A 
HETATM    2  C3  UNL     1      27.266   8.231  49.306  1.00  0.00     0.072 A 
HETATM    3  C4  UNL     1      26.186   7.436  49.633  1.00  0.00     0.075 A 
HETATM    4  N1  UNL     1      25.093   7.915  50.281  1.00  0.00    -0.241 NA
HETATM    5  C5  UNL     1      24.096   7.053  50.565  1.00  0.00     0.236 A 
HETATM    6  N2  UNL     1      24.155   5.755  50.228  1.00  0.00    -0.224 NA
HETATM    7  C6  UNL     1      25.234   5.233  49.574  1.00  0.00     0.142 A 
HETATM    8  C12 UNL     1      26.255   6.108  49.282  1.00  0.00     0.042 A 
HETATM    9  C13 UNL     1      27.323   5.531  48.636  1.00  0.00     0.057 A 
HETATM   10  C14 UNL     1      28.397   6.332  48.314  1.00  0.00     0.103 A 
ENDROOT
BRANCH   7  11
HETATM   11  N3  UNL     1      25.130   3.839  49.309  1.00  0.00    -0.339 N 
HETATM   12  H6  UNL     1      24.921   3.307  48.427  1.00  0.00     0.167 HD
BRANCH  11  13
HETATM   13  C7  UNL     1      25.343   2.962  50.438  1.00  0.00     0.048 A 
HETATM   14  C8  UNL     1      26.566   2.671  51.001  1.00  0.00     0.034 A 
HETATM   15  C9  UNL     1      26.772   1.863  52.067  1.00  0.00     0.046 A 
HETATM   16  C10 UNL     1      25.863   1.163  52.821  1.00  0.00     0.139 A 
HETATM   17  F1  UNL     1      26.234   0.378  53.888  1.00  0.00    -0.204 F 
HETATM   18  C11 UNL     1      24.505   1.181  52.586  1.00  0.00     0.087 A 
HETATM   19 CL1  UNL     1      23.339   0.282  53.558  1.00  0.00    -0.079 Cl
HETATM   20  P1  UNL     1      24.001   2.166  51.245  1.00  0.00     0.024 P 
ENDBRANCH  11  13
ENDBRANCH   7  11
BRANCH  10  21
HETATM   21  O2  UNL     1      29.565   5.997  47.677  1.00  0.00    -0.348 OA
BRANCH  21  22
HETATM   22  C15 UNL     1      30.729   5.455  48.203  1.00  0.00     0.177 C 
BRANCH  22  23
HETATM   23  C16 UNL     1      31.485   4.693  47.120  1.00  0.00     0.057 C 
BRANCH  23  24
HETATM   24  C17 UNL     1      32.969   4.729  47.283  1.00  0.00     0.273 C 
BRANCH  24  25
HETATM   25  N4  UNL     1      33.602   3.531  46.712  1.00  0.00     0.080 N 
HETATM   26  C18 UNL     1      34.999   3.478  47.114  1.00  0.00     0.309 C 
HETATM   27  C19 UNL     1      32.928   2.402  47.375  1.00  0.00     0.309 C 
ENDBRANCH  24  25
ENDBRANCH  23  24
ENDBRANCH  22  23
ENDBRANCH  21  22
ENDBRANCH  10  21
BRANCH   1  28
HETATM   28  O1  UNL     1      29.421   8.581  48.361  1.00  0.00    -0.353 OA
HETATM   29  C1  UNL     1      29.851   9.457  49.384  1.00  0.00     0.210 C 
ENDBRANCH   1  28
TORSDOF 8
ENDMDL
