MODEL 1
REMARK VINA RESULT:      -8.4      0.000      0.000
REMARK  9 active torsions:
REMARK  status: ('A' for Active; 'I' for Inactive)
REMARK    1  A    between atoms: C3_3  and  C4_4 
REMARK    2  A    between atoms: C4_4  and  C5_5 
REMARK    3  A    between atoms: C6_6  and  N1_7 
REMARK    4  A    between atoms: C10_11  and  C11_12 
REMARK    5  A    between atoms: C12_13  and  N2_14 
REMARK    6  A    between atoms: N2_14  and  C13_15 
REMARK    7  A    between atoms: C17_21  and  O1_22 
REMARK    8  A    between atoms: C19_24  and  N5_25 
REMARK       I    between atoms: N5_25  and  C20_26 
REMARK    9  A    between atoms: C20_26  and  C21_28 
ROOT
HETATM    1  C13 UNL     1      22.955  -0.114  53.798  1.00  0.00     0.141 A 
HETATM    2  N3  UNL     1      22.485  -1.255  54.316  1.00  0.00    -0.224 NA
HETATM    3  C14 UNL     1      21.195  -1.573  54.158  1.00  0.00     0.236 A 
HETATM    4  N4  UNL     1      20.327  -0.792  53.495  1.00  0.00    -0.241 NA
HETATM    5  C15 UNL     1      20.746   0.389  52.943  1.00  0.00     0.075 A 
HETATM    6  C16 UNL     1      19.915   1.228  52.263  1.00  0.00     0.071 A 
HETATM    7  C17 UNL     1      20.462   2.396  51.756  1.00  0.00     0.097 A 
HETATM    8  C19 UNL     1      21.818   2.711  51.933  1.00  0.00     0.069 A 
HETATM    9  C23 UNL     1      22.646   1.845  52.626  1.00  0.00     0.050 A 
HETATM   10  C24 UNL     1      22.073   0.697  53.116  1.00  0.00     0.041 A 
ENDROOT
BRANCH   1  11
HETATM   11  N2  UNL     1      24.341   0.066  54.054  1.00  0.00    -0.350 N 
HETATM   12  H17 UNL     1      24.626   0.859  54.678  1.00  0.00     0.166 HD
BRANCH  11  13
HETATM   13  C12 UNL     1      25.236  -0.855  53.445  1.00  0.00     0.087 C 
HETATM   14  C11 UNL     1      26.512  -1.159  53.238  1.00  0.00     0.016 C 
BRANCH  14  15
HETATM   15  C10 UNL     1      27.664  -0.407  53.723  1.00  0.00     0.117 C 
HETATM   16  N1  UNL     1      27.797   0.931  53.158  1.00  0.00    -0.333 N 
HETATM   17  C7  UNL     1      28.980   1.353  53.923  1.00  0.00     0.133 C 
HETATM   18  C8  UNL     1      29.945   0.218  53.537  1.00  0.00     0.023 C 
HETATM   19  C9  UNL     1      29.011  -0.970  53.238  1.00  0.00     0.031 C 
BRANCH  16  20
HETATM   20  C6  UNL     1      27.144   1.704  52.206  1.00  0.00     0.009 C 
HETATM   21  C5  UNL     1      26.566   2.374  51.400  1.00  0.00    -0.080 C 
BRANCH  21  22
HETATM   22  C4  UNL     1      25.840   3.187  50.430  1.00  0.00     0.122 C 
BRANCH  22  23
HETATM   23  C3  UNL     1      26.786   3.735  49.379  1.00  0.00    -0.019 C 
HETATM   24  C2  UNL     1      27.182   4.945  49.038  1.00  0.00    -0.034 C 
HETATM   25  C1  UNL     1      27.958   5.885  48.226  1.00  0.00     0.036 C 
ENDBRANCH  22  23
ENDBRANCH  21  22
ENDBRANCH  16  20
ENDBRANCH  14  15
ENDBRANCH  11  13
ENDBRANCH   1  11
BRANCH   8  26
HETATM   26  N5  UNL     1      22.184   3.952  51.349  1.00  0.00    -0.325 N 
HETATM   27  C20 UNL     1      23.020   5.028  51.728  1.00  0.00     0.221 C 
HETATM   28  O2  UNL     1      23.680   5.101  52.784  1.00  0.00    -0.273 OA
HETATM   29  H23 UNL     1      21.604   3.838  50.477  1.00  0.00     0.169 HD
BRANCH  27  30
HETATM   30  C21 UNL     1      22.985   6.058  50.654  1.00  0.00     0.098 C 
HETATM   31  C22 UNL     1      24.172   6.984  50.770  1.00  0.00     0.014 C 
ENDBRANCH  27  30
ENDBRANCH   8  26
BRANCH   7  32
HETATM   32  O1  UNL     1      19.578   3.227  51.066  1.00  0.00    -0.354 OA
HETATM   33  C18 UNL     1      18.270   3.522  51.544  1.00  0.00     0.210 C 
ENDBRANCH   7  32
TORSDOF 9
ENDMDL
MODEL 2
REMARK VINA RESULT:      -8.1      3.555      8.123
REMARK  9 active torsions:
REMARK  status: ('A' for Active; 'I' for Inactive)
REMARK    1  A    between atoms: C3_3  and  C4_4 
REMARK    2  A    between atoms: C4_4  and  C5_5 
REMARK    3  A    between atoms: C6_6  and  N1_7 
REMARK    4  A    between atoms: C10_11  and  C11_12 
REMARK    5  A    between atoms: C12_13  and  N2_14 
REMARK    6  A    between atoms: N2_14  and  C13_15 
REMARK    7  A    between atoms: C17_21  and  O1_22 
REMARK    8  A    between atoms: C19_24  and  N5_25 
REMARK       I    between atoms: N5_25  and  C20_26 
REMARK    9  A    between atoms: C20_26  and  C21_28 
ROOT
HETATM    1  C13 UNL     1      26.121   4.500  49.328  1.00  0.00     0.141 A 
HETATM    2  N3  UNL     1      24.829   4.805  49.504  1.00  0.00    -0.224 NA
HETATM    3  C14 UNL     1      24.365   5.988  49.086  1.00  0.00     0.236 A 
HETATM    4  N4  UNL     1      25.140   6.907  48.489  1.00  0.00    -0.241 NA
HETATM    5  C15 UNL     1      26.471   6.657  48.282  1.00  0.00     0.075 A 
HETATM    6  C16 UNL     1      27.311   7.549  47.687  1.00  0.00     0.071 A 
HETATM    7  C17 UNL     1      28.637   7.175  47.540  1.00  0.00     0.097 A 
HETATM    8  C19 UNL     1      29.106   5.929  47.984  1.00  0.00     0.069 A 
HETATM    9  C23 UNL     1      28.235   5.037  48.585  1.00  0.00     0.050 A 
HETATM   10  C24 UNL     1      26.928   5.437  48.717  1.00  0.00     0.041 A 
ENDROOT
BRANCH   1  11
HETATM   11  N2  UNL     1      26.445   3.209  49.823  1.00  0.00    -0.350 N 
HETATM   12  H17 UNL     1      27.095   2.614  49.255  1.00  0.00     0.166 HD
BRANCH  11  13
HETATM   13  C12 UNL     1      25.864   2.828  51.063  1.00  0.00     0.087 C 
HETATM   14  C11 UNL     1      26.054   2.159  52.195  1.00  0.00     0.016 C 
BRANCH  14  15
HETATM   15  C10 UNL     1      27.259   1.428  52.569  1.00  0.00     0.117 C 
HETATM   16  N1  UNL     1      27.033   0.307  53.474  1.00  0.00    -0.333 N 
HETATM   17  C7  UNL     1      28.420  -0.178  53.540  1.00  0.00     0.133 C 
HETATM   18  C8  UNL     1      29.113   1.111  54.015  1.00  0.00     0.023 C 
HETATM   19  C9  UNL     1      28.208   2.234  53.472  1.00  0.00     0.031 C 
BRANCH  16  20
HETATM   20  C6  UNL     1      25.958  -0.250  54.156  1.00  0.00     0.009 C 
HETATM   21  C5  UNL     1      25.044  -0.729  54.761  1.00  0.00    -0.080 C 
BRANCH  21  22
HETATM   22  C4  UNL     1      23.945  -1.322  55.516  1.00  0.00     0.122 C 
BRANCH  22  23
HETATM   23  C3  UNL     1      22.642  -1.197  54.749  1.00  0.00    -0.019 C 
HETATM   24  C2  UNL     1      21.787  -0.216  54.541  1.00  0.00    -0.034 C 
HETATM   25  C1  UNL     1      20.564   0.352  53.968  1.00  0.00     0.036 C 
ENDBRANCH  22  23
ENDBRANCH  21  22
ENDBRANCH  16  20
ENDBRANCH  14  15
ENDBRANCH  11  13
ENDBRANCH   1  11
BRANCH   8  26
HETATM   26  N5  UNL     1      30.493   5.738  47.751  1.00  0.00    -0.325 N 
HETATM   27  C20 UNL     1      31.625   5.526  48.573  1.00  0.00     0.221 C 
HETATM   28  O2  UNL     1      31.620   5.461  49.817  1.00  0.00    -0.273 OA
HETATM   29  H23 UNL     1      30.438   5.806  46.702  1.00  0.00     0.169 HD
BRANCH  27  30
HETATM   30  C21 UNL     1      32.825   5.392  47.702  1.00  0.00     0.098 C 
HETATM   31  C22 UNL     1      32.720   4.154  46.844  1.00  0.00     0.014 C 
ENDBRANCH  27  30
ENDBRANCH   8  26
BRANCH   7  32
HETATM   32  O1  UNL     1      29.465   8.117  46.925  1.00  0.00    -0.354 OA
HETATM   33  C18 UNL     1      29.904   9.300  47.584  1.00  0.00     0.210 C 
ENDBRANCH   7  32
TORSDOF 9
ENDMDL
MODEL 3
REMARK VINA RESULT:      -8.0      1.627      2.177
REMARK  9 active torsions:
REMARK  status: ('A' for Active; 'I' for Inactive)
REMARK    1  A    between atoms: C3_3  and  C4_4 
REMARK    2  A    between atoms: C4_4  and  C5_5 
REMARK    3  A    between atoms: C6_6  and  N1_7 
REMARK    4  A    between atoms: C10_11  and  C11_12 
REMARK    5  A    between atoms: C12_13  and  N2_14 
REMARK    6  A    between atoms: N2_14  and  C13_15 
REMARK    7  A    between atoms: C17_21  and  O1_22 
REMARK    8  A    between atoms: C19_24  and  N5_25 
REMARK       I    between atoms: N5_25  and  C20_26 
REMARK    9  A    between atoms: C20_26  and  C21_28 
ROOT
HETATM    1  C13 UNL     1      22.812  -0.071  53.408  1.00  0.00     0.141 A 
HETATM    2  N3  UNL     1      22.387  -0.859  54.403  1.00  0.00    -0.224 NA
HETATM    3  C14 UNL     1      21.111  -1.262  54.429  1.00  0.00     0.236 A 
HETATM    4  N4  UNL     1      20.215  -0.911  53.494  1.00  0.00    -0.241 NA
HETATM    5  C15 UNL     1      20.588  -0.104  52.451  1.00  0.00     0.075 A 
HETATM    6  C16 UNL     1      19.726   0.292  51.473  1.00  0.00     0.071 A 
HETATM    7  C17 UNL     1      20.228   1.112  50.475  1.00  0.00     0.097 A 
HETATM    8  C19 UNL     1      21.569   1.524  50.465  1.00  0.00     0.069 A 
HETATM    9  C23 UNL     1      22.429   1.110  51.467  1.00  0.00     0.050 A 
HETATM   10  C24 UNL     1      21.900   0.299  52.442  1.00  0.00     0.041 A 
ENDROOT
BRANCH   1  11
HETATM   11  N2  UNL     1      24.188   0.260  53.531  1.00  0.00    -0.350 N 
HETATM   12  H17 UNL     1      24.435   1.208  53.906  1.00  0.00     0.166 HD
BRANCH  11  13
HETATM   13  C12 UNL     1      25.128  -0.732  53.140  1.00  0.00     0.087 C 
HETATM   14  C11 UNL     1      26.413  -1.071  53.129  1.00  0.00     0.016 C 
BRANCH  14  15
HETATM   15  C10 UNL     1      27.514  -0.285  53.673  1.00  0.00     0.117 C 
HETATM   16  N1  UNL     1      27.691   1.023  53.053  1.00  0.00    -0.333 N 
HETATM   17  C7  UNL     1      28.800   1.494  53.896  1.00  0.00     0.133 C 
HETATM   18  C8  UNL     1      29.799   0.349  53.656  1.00  0.00     0.023 C 
HETATM   19  C9  UNL     1      28.900  -0.861  53.339  1.00  0.00     0.031 C 
BRANCH  16  20
HETATM   20  C6  UNL     1      27.121   1.740  52.007  1.00  0.00     0.009 C 
HETATM   21  C5  UNL     1      26.650   2.360  51.099  1.00  0.00    -0.080 C 
BRANCH  21  22
HETATM   22  C4  UNL     1      26.098   3.128  49.988  1.00  0.00     0.122 C 
BRANCH  22  23
HETATM   23  C3  UNL     1      25.044   4.100  50.483  1.00  0.00    -0.019 C 
HETATM   24  C2  UNL     1      24.265   4.150  51.546  1.00  0.00    -0.034 C 
HETATM   25  C1  UNL     1      23.231   4.768  52.380  1.00  0.00     0.036 C 
ENDBRANCH  22  23
ENDBRANCH  21  22
ENDBRANCH  16  20
ENDBRANCH  14  15
ENDBRANCH  11  13
ENDBRANCH   1  11
BRANCH   8  26
HETATM   26  N5  UNL     1      21.887   2.366  49.367  1.00  0.00    -0.325 N 
HETATM   27  C20 UNL     1      21.593   3.705  49.016  1.00  0.00     0.221 C 
HETATM   28  O2  UNL     1      20.910   4.502  49.689  1.00  0.00    -0.273 OA
HETATM   29  H23 UNL     1      22.451   1.651  48.839  1.00  0.00     0.169 HD
BRANCH  27  30
HETATM   30  C21 UNL     1      22.237   4.005  47.708  1.00  0.00     0.098 C 
HETATM   31  C22 UNL     1      22.932   5.344  47.756  1.00  0.00     0.014 C 
ENDBRANCH  27  30
ENDBRANCH   8  26
BRANCH   7  32
HETATM   32  O1  UNL     1      19.313   1.495  49.492  1.00  0.00    -0.354 OA
HETATM   33  C18 UNL     1      18.018   1.996  49.801  1.00  0.00     0.210 C 
ENDBRANCH   7  32
TORSDOF 9
ENDMDL
MODEL 4
REMARK VINA RESULT:      -7.7      3.037      6.561
REMARK  9 active torsions:
REMARK  status: ('A' for Active; 'I' for Inactive)
REMARK    1  A    between atoms: C3_3  and  C4_4 
REMARK    2  A    between atoms: C4_4  and  C5_5 
REMARK    3  A    between atoms: C6_6  and  N1_7 
REMARK    4  A    between atoms: C10_11  and  C11_12 
REMARK    5  A    between atoms: C12_13  and  N2_14 
REMARK    6  A    between atoms: N2_14  and  C13_15 
REMARK    7  A    between atoms: C17_21  and  O1_22 
REMARK    8  A    between atoms: C19_24  and  N5_25 
REMARK       I    between atoms: N5_25  and  C20_26 
REMARK    9  A    between atoms: C20_26  and  C21_28 
ROOT
HETATM    1  C13 UNL     1      25.285   3.335  49.976  1.00  0.00     0.141 A 
HETATM    2  N3  UNL     1      24.023   2.902  50.084  1.00  0.00    -0.224 NA
HETATM    3  C14 UNL     1      23.022   3.656  49.615  1.00  0.00     0.236 A 
HETATM    4  N4  UNL     1      23.218   4.850  49.033  1.00  0.00    -0.241 NA
HETATM    5  C15 UNL     1      24.486   5.349  48.895  1.00  0.00     0.075 A 
HETATM    6  C16 UNL     1      24.752   6.555  48.319  1.00  0.00     0.071 A 
HETATM    7  C17 UNL     1      26.079   6.947  48.244  1.00  0.00     0.097 A 
HETATM    8  C19 UNL     1      27.115   6.141  48.741  1.00  0.00     0.069 A 
HETATM    9  C23 UNL     1      26.824   4.920  49.322  1.00  0.00     0.050 A 
HETATM   10  C24 UNL     1      25.499   4.560  49.382  1.00  0.00     0.041 A 
ENDROOT
BRANCH   1  11
HETATM   11  N2  UNL     1      26.221   2.414  50.518  1.00  0.00    -0.350 N 
HETATM   12  H17 UNL     1      26.616   1.681  49.880  1.00  0.00     0.166 HD
BRANCH  11  13
HETATM   13  C12 UNL     1      26.557   2.565  51.891  1.00  0.00     0.087 C 
HETATM   14  C11 UNL     1      27.211   2.033  52.918  1.00  0.00     0.016 C 
BRANCH  14  15
HETATM   15  C10 UNL     1      27.977   0.793  52.899  1.00  0.00     0.117 C 
HETATM   16  N1  UNL     1      27.277  -0.361  53.451  1.00  0.00    -0.333 N 
HETATM   17  C7  UNL     1      28.317  -1.368  53.190  1.00  0.00     0.133 C 
HETATM   18  C8  UNL     1      29.493  -0.710  53.933  1.00  0.00     0.023 C 
HETATM   19  C9  UNL     1      29.169   0.795  53.870  1.00  0.00     0.031 C 
BRANCH  16  20
HETATM   20  C6  UNL     1      26.058  -0.613  54.069  1.00  0.00     0.009 C 
HETATM   21  C5  UNL     1      25.019  -0.844  54.615  1.00  0.00    -0.080 C 
BRANCH  21  22
HETATM   22  C4  UNL     1      23.760  -1.147  55.288  1.00  0.00     0.122 C 
BRANCH  22  23
HETATM   23  C3  UNL     1      22.585  -0.878  54.368  1.00  0.00    -0.019 C 
HETATM   24  C2  UNL     1      22.457  -0.335  53.173  1.00  0.00    -0.034 C 
HETATM   25  C1  UNL     1      21.675   0.101  52.014  1.00  0.00     0.036 C 
ENDBRANCH  22  23
ENDBRANCH  21  22
ENDBRANCH  16  20
ENDBRANCH  14  15
ENDBRANCH  11  13
ENDBRANCH   1  11
BRANCH   8  26
HETATM   26  N5  UNL     1      28.400   6.721  48.578  1.00  0.00    -0.325 N 
HETATM   27  C20 UNL     1      29.691   6.224  48.283  1.00  0.00     0.221 C 
HETATM   28  O2  UNL     1      29.984   5.029  48.084  1.00  0.00    -0.273 OA
HETATM   29  H23 UNL     1      28.096   7.713  48.758  1.00  0.00     0.169 HD
BRANCH  27  30
HETATM   30  C21 UNL     1      30.643   7.368  48.244  1.00  0.00     0.098 C 
HETATM   31  C22 UNL     1      30.096   8.538  49.025  1.00  0.00     0.014 C 
ENDBRANCH  27  30
ENDBRANCH   8  26
BRANCH   7  32
HETATM   32  O1  UNL     1      26.308   8.188  47.646  1.00  0.00    -0.354 OA
HETATM   33  C18 UNL     1      26.043   8.439  46.270  1.00  0.00     0.210 C 
ENDBRANCH   7  32
TORSDOF 9
ENDMDL
MODEL 5
REMARK VINA RESULT:      -7.5      2.022      6.663
REMARK  9 active torsions:
REMARK  status: ('A' for Active; 'I' for Inactive)
REMARK    1  A    between atoms: C3_3  and  C4_4 
REMARK    2  A    between atoms: C4_4  and  C5_5 
REMARK    3  A    between atoms: C6_6  and  N1_7 
REMARK    4  A    between atoms: C10_11  and  C11_12 
REMARK    5  A    between atoms: C12_13  and  N2_14 
REMARK    6  A    between atoms: N2_14  and  C13_15 
REMARK    7  A    between atoms: C17_21  and  O1_22 
REMARK    8  A    between atoms: C19_24  and  N5_25 
REMARK       I    between atoms: N5_25  and  C20_26 
REMARK    9  A    between atoms: C20_26  and  C21_28 
ROOT
HETATM    1  C13 UNL     1      23.308  -0.662  53.871  1.00  0.00     0.141 A 
HETATM    2  N3  UNL     1      23.072  -1.390  54.969  1.00  0.00    -0.224 NA
HETATM    3  C14 UNL     1      24.039  -1.545  55.881  1.00  0.00     0.236 A 
HETATM    4  N4  UNL     1      25.259  -1.001  55.752  1.00  0.00    -0.241 NA
HETATM    5  C15 UNL     1      25.564  -0.248  54.649  1.00  0.00     0.075 A 
HETATM    6  C16 UNL     1      26.784   0.326  54.456  1.00  0.00     0.071 A 
HETATM    7  C17 UNL     1      26.966   1.062  53.295  1.00  0.00     0.097 A 
HETATM    8  C19 UNL     1      25.940   1.214  52.351  1.00  0.00     0.069 A 
HETATM    9  C23 UNL     1      24.707   0.623  52.567  1.00  0.00     0.050 A 
HETATM   10  C24 UNL     1      24.559  -0.100  53.725  1.00  0.00     0.041 A 
ENDROOT
BRANCH   1  11
HETATM   11  N2  UNL     1      22.179  -0.596  53.013  1.00  0.00    -0.350 N 
HETATM   12  H17 UNL     1      22.349  -0.547  51.979  1.00  0.00     0.166 HD
BRANCH  11  13
HETATM   13  C12 UNL     1      20.897  -0.611  53.628  1.00  0.00     0.087 C 
HETATM   14  C11 UNL     1      19.588  -0.528  53.420  1.00  0.00     0.016 C 
BRANCH  14  15
HETATM   15  C10 UNL     1      18.933  -0.348  52.129  1.00  0.00     0.117 C 
HETATM   16  N1  UNL     1      19.261   0.900  51.450  1.00  0.00    -0.333 N 
HETATM   17  C7  UNL     1      18.489   0.665  50.220  1.00  0.00     0.133 C 
HETATM   18  C8  UNL     1      17.101   0.427  50.838  1.00  0.00     0.023 C 
HETATM   19  C9  UNL     1      17.414  -0.131  52.240  1.00  0.00     0.031 C 
BRANCH  16  20
HETATM   20  C6  UNL     1      20.006   2.041  51.721  1.00  0.00     0.009 C 
HETATM   21  C5  UNL     1      20.653   3.016  51.974  1.00  0.00    -0.080 C 
BRANCH  21  22
HETATM   22  C4  UNL     1      21.438   4.200  52.305  1.00  0.00     0.122 C 
BRANCH  22  23
HETATM   23  C3  UNL     1      21.490   5.153  51.126  1.00  0.00    -0.019 C 
HETATM   24  C2  UNL     1      21.685   6.450  51.000  1.00  0.00    -0.034 C 
HETATM   25  C1  UNL     1      21.815   7.681  50.217  1.00  0.00     0.036 C 
ENDBRANCH  22  23
ENDBRANCH  21  22
ENDBRANCH  16  20
ENDBRANCH  14  15
ENDBRANCH  11  13
ENDBRANCH   1  11
BRANCH   8  26
HETATM   26  N5  UNL     1      26.324   1.993  51.229  1.00  0.00    -0.325 N 
HETATM   27  C20 UNL     1      25.849   3.183  50.627  1.00  0.00     0.221 C 
HETATM   28  O2  UNL     1      24.877   3.858  51.018  1.00  0.00    -0.273 OA
HETATM   29  H23 UNL     1      27.132   1.383  50.942  1.00  0.00     0.169 HD
BRANCH  27  30
HETATM   30  C21 UNL     1      26.706   3.495  49.451  1.00  0.00     0.098 C 
HETATM   31  C22 UNL     1      26.616   4.962  49.106  1.00  0.00     0.014 C 
ENDBRANCH  27  30
ENDBRANCH   8  26
BRANCH   7  32
HETATM   32  O1  UNL     1      28.230   1.634  53.135  1.00  0.00    -0.354 OA
HETATM   33  C18 UNL     1      29.383   1.152  53.816  1.00  0.00     0.210 C 
ENDBRANCH   7  32
TORSDOF 9
ENDMDL
MODEL 6
REMARK VINA RESULT:      -7.4      5.008     10.217
REMARK  9 active torsions:
REMARK  status: ('A' for Active; 'I' for Inactive)
REMARK    1  A    between atoms: C3_3  and  C4_4 
REMARK    2  A    between atoms: C4_4  and  C5_5 
REMARK    3  A    between atoms: C6_6  and  N1_7 
REMARK    4  A    between atoms: C10_11  and  C11_12 
REMARK    5  A    between atoms: C12_13  and  N2_14 
REMARK    6  A    between atoms: N2_14  and  C13_15 
REMARK    7  A    between atoms: C17_21  and  O1_22 
REMARK    8  A    between atoms: C19_24  and  N5_25 
REMARK       I    between atoms: N5_25  and  C20_26 
REMARK    9  A    between atoms: C20_26  and  C21_28 
ROOT
HETATM    1  C13 UNL     1      28.157   6.879  48.514  1.00  0.00     0.141 A 
HETATM    2  N3  UNL     1      27.511   7.976  48.929  1.00  0.00    -0.224 NA
HETATM    3  C14 UNL     1      28.209   9.041  49.338  1.00  0.00     0.236 A 
HETATM    4  N4  UNL     1      29.551   9.071  49.357  1.00  0.00    -0.241 NA
HETATM    5  C15 UNL     1      30.271   7.980  48.947  1.00  0.00     0.075 A 
HETATM    6  C16 UNL     1      31.632   7.945  48.946  1.00  0.00     0.071 A 
HETATM    7  C17 UNL     1      32.240   6.779  48.510  1.00  0.00     0.097 A 
HETATM    8  C19 UNL     1      31.490   5.672  48.084  1.00  0.00     0.069 A 
HETATM    9  C23 UNL     1      30.107   5.728  48.092  1.00  0.00     0.050 A 
HETATM   10  C24 UNL     1      29.535   6.897  48.531  1.00  0.00     0.041 A 
ENDROOT
BRANCH   1  11
HETATM   11  N2  UNL     1      27.268   5.847  48.113  1.00  0.00    -0.350 N 
HETATM   12  H17 UNL     1      26.645   6.028  47.288  1.00  0.00     0.166 HD
BRANCH  11  13
HETATM   13  C12 UNL     1      27.301   4.639  48.860  1.00  0.00     0.087 C 
HETATM   14  C11 UNL     1      26.646   3.878  49.731  1.00  0.00     0.016 C 
BRANCH  14  15
HETATM   15  C10 UNL     1      25.344   4.171  50.319  1.00  0.00     0.117 C 
HETATM   16  N1  UNL     1      24.851   3.152  51.239  1.00  0.00    -0.333 N 
HETATM   17  C7  UNL     1      23.611   3.833  51.642  1.00  0.00     0.133 C 
HETATM   18  C8  UNL     1      22.977   4.039  50.255  1.00  0.00     0.023 C 
HETATM   19  C9  UNL     1      24.188   4.112  49.306  1.00  0.00     0.031 C 
BRANCH  16  20
HETATM   20  C6  UNL     1      25.259   1.903  51.689  1.00  0.00     0.009 C 
HETATM   21  C5  UNL     1      25.622   0.836  52.091  1.00  0.00    -0.080 C 
BRANCH  21  22
HETATM   22  C4  UNL     1      26.085  -0.454  52.592  1.00  0.00     0.122 C 
BRANCH  22  23
HETATM   23  C3  UNL     1      27.362  -0.289  53.394  1.00  0.00    -0.019 C 
HETATM   24  C2  UNL     1      28.610  -0.677  53.226  1.00  0.00    -0.034 C 
HETATM   25  C1  UNL     1      30.015  -0.770  53.631  1.00  0.00     0.036 C 
ENDBRANCH  22  23
ENDBRANCH  21  22
ENDBRANCH  16  20
ENDBRANCH  14  15
ENDBRANCH  11  13
ENDBRANCH   1  11
BRANCH   8  26
HETATM   26  N5  UNL     1      32.294   4.572  47.684  1.00  0.00    -0.325 N 
HETATM   27  C20 UNL     1      32.806   4.104  46.451  1.00  0.00     0.221 C 
HETATM   28  O2  UNL     1      32.624   4.635  45.338  1.00  0.00    -0.273 OA
HETATM   29  H23 UNL     1      32.411   4.166  48.648  1.00  0.00     0.169 HD
BRANCH  27  30
HETATM   30  C21 UNL     1      33.602   2.872  46.705  1.00  0.00     0.098 C 
HETATM   31  C22 UNL     1      34.992   3.228  47.176  1.00  0.00     0.014 C 
ENDBRANCH  27  30
ENDBRANCH   8  26
BRANCH   7  32
HETATM   32  O1  UNL     1      33.636   6.784  48.524  1.00  0.00    -0.354 OA
HETATM   33  C18 UNL     1      34.404   7.918  48.138  1.00  0.00     0.210 C 
ENDBRANCH   7  32
TORSDOF 9
ENDMDL
MODEL 7
REMARK VINA RESULT:      -7.4      5.559     11.229
REMARK  9 active torsions:
REMARK  status: ('A' for Active; 'I' for Inactive)
REMARK    1  A    between atoms: C3_3  and  C4_4 
REMARK    2  A    between atoms: C4_4  and  C5_5 
REMARK    3  A    between atoms: C6_6  and  N1_7 
REMARK    4  A    between atoms: C10_11  and  C11_12 
REMARK    5  A    between atoms: C12_13  and  N2_14 
REMARK    6  A    between atoms: N2_14  and  C13_15 
REMARK    7  A    between atoms: C17_21  and  O1_22 
REMARK    8  A    between atoms: C19_24  and  N5_25 
REMARK       I    between atoms: N5_25  and  C20_26 
REMARK    9  A    between atoms: C20_26  and  C21_28 
ROOT
HETATM    1  C13 UNL     1      29.532   8.078  48.861  1.00  0.00     0.141 A 
HETATM    2  N3  UNL     1      29.345   9.401  48.947  1.00  0.00    -0.224 NA
HETATM    3  C14 UNL     1      30.388  10.227  48.812  1.00  0.00     0.236 A 
HETATM    4  N4  UNL     1      31.640   9.793  48.592  1.00  0.00    -0.241 NA
HETATM    5  C15 UNL     1      31.897   8.451  48.497  1.00  0.00     0.075 A 
HETATM    6  C16 UNL     1      33.144   7.947  48.280  1.00  0.00     0.071 A 
HETATM    7  C17 UNL     1      33.270   6.569  48.208  1.00  0.00     0.097 A 
HETATM    8  C19 UNL     1      32.163   5.718  48.352  1.00  0.00     0.069 A 
HETATM    9  C23 UNL     1      30.905   6.251  48.571  1.00  0.00     0.050 A 
HETATM   10  C24 UNL     1      30.813   7.620  48.638  1.00  0.00     0.041 A 
ENDROOT
BRANCH   1  11
HETATM   11  N2  UNL     1      28.323   7.349  49.023  1.00  0.00    -0.350 N 
HETATM   12  H17 UNL     1      28.289   6.613  49.770  1.00  0.00     0.166 HD
BRANCH  11  13
HETATM   13  C12 UNL     1      27.245   7.684  48.160  1.00  0.00     0.087 C 
HETATM   14  C11 UNL     1      25.952   7.982  48.097  1.00  0.00     0.016 C 
BRANCH  14  15
HETATM   15  C10 UNL     1      25.033   8.066  49.226  1.00  0.00     0.117 C 
HETATM   16  N1  UNL     1      24.924   6.842  50.012  1.00  0.00    -0.333 N 
HETATM   17  C7  UNL     1      24.002   7.349  51.041  1.00  0.00     0.133 C 
HETATM   18  C8  UNL     1      22.855   7.828  50.133  1.00  0.00     0.023 C 
HETATM   19  C9  UNL     1      23.558   8.176  48.807  1.00  0.00     0.031 C 
BRANCH  16  20
HETATM   20  C6  UNL     1      25.422   5.546  49.953  1.00  0.00     0.009 C 
HETATM   21  C5  UNL     1      25.864   4.436  49.887  1.00  0.00    -0.080 C 
BRANCH  21  22
HETATM   22  C4  UNL     1      26.409   3.087  49.783  1.00  0.00     0.122 C 
BRANCH  22  23
HETATM   23  C3  UNL     1      26.363   2.387  51.128  1.00  0.00    -0.019 C 
HETATM   24  C2  UNL     1      26.624   1.162  51.537  1.00  0.00    -0.034 C 
HETATM   25  C1  UNL     1      26.728   0.122  52.563  1.00  0.00     0.036 C 
ENDBRANCH  22  23
ENDBRANCH  21  22
ENDBRANCH  16  20
ENDBRANCH  14  15
ENDBRANCH  11  13
ENDBRANCH   1  11
BRANCH   8  26
HETATM   26  N5  UNL     1      32.500   4.343  48.255  1.00  0.00    -0.325 N 
HETATM   27  C20 UNL     1      32.578   3.404  47.200  1.00  0.00     0.221 C 
HETATM   28  O2  UNL     1      32.333   3.636  45.999  1.00  0.00    -0.273 OA
HETATM   29  H23 UNL     1      32.690   4.204  49.281  1.00  0.00     0.169 HD
BRANCH  27  30
HETATM   30  C21 UNL     1      33.004   2.093  47.761  1.00  0.00     0.098 C 
HETATM   31  C22 UNL     1      32.364   0.958  46.998  1.00  0.00     0.014 C 
ENDBRANCH  27  30
ENDBRANCH   8  26
BRANCH   7  32
HETATM   32  O1  UNL     1      34.564   6.093  47.985  1.00  0.00    -0.354 OA
HETATM   33  C18 UNL     1      35.691   6.558  48.719  1.00  0.00     0.210 C 
ENDBRANCH   7  32
TORSDOF 9
ENDMDL
MODEL 8
REMARK VINA RESULT:      -7.4      4.213      7.857
REMARK  9 active torsions:
REMARK  status: ('A' for Active; 'I' for Inactive)
REMARK    1  A    between atoms: C3_3  and  C4_4 
REMARK    2  A    between atoms: C4_4  and  C5_5 
REMARK    3  A    between atoms: C6_6  and  N1_7 
REMARK    4  A    between atoms: C10_11  and  C11_12 
REMARK    5  A    between atoms: C12_13  and  N2_14 
REMARK    6  A    between atoms: N2_14  and  C13_15 
REMARK    7  A    between atoms: C17_21  and  O1_22 
REMARK    8  A    between atoms: C19_24  and  N5_25 
REMARK       I    between atoms: N5_25  and  C20_26 
REMARK    9  A    between atoms: C20_26  and  C21_28 
ROOT
HETATM    1  C13 UNL     1      26.282   4.602  49.325  1.00  0.00     0.141 A 
HETATM    2  N3  UNL     1      25.469   5.540  48.824  1.00  0.00    -0.224 NA
HETATM    3  C14 UNL     1      24.234   5.679  49.319  1.00  0.00     0.236 A 
HETATM    4  N4  UNL     1      23.754   4.913  50.311  1.00  0.00    -0.241 NA
HETATM    5  C15 UNL     1      24.536   3.934  50.865  1.00  0.00     0.075 A 
HETATM    6  C16 UNL     1      24.107   3.120  51.870  1.00  0.00     0.071 A 
HETATM    7  C17 UNL     1      24.996   2.166  52.341  1.00  0.00     0.097 A 
HETATM    8  C19 UNL     1      26.287   2.036  51.808  1.00  0.00     0.069 A 
HETATM    9  C23 UNL     1      26.704   2.873  50.788  1.00  0.00     0.050 A 
HETATM   10  C24 UNL     1      25.800   3.807  50.343  1.00  0.00     0.041 A 
ENDROOT
BRANCH   1  11
HETATM   11  N2  UNL     1      27.553   4.592  48.691  1.00  0.00    -0.350 N 
HETATM   12  H17 UNL     1      28.016   3.665  48.533  1.00  0.00     0.166 HD
BRANCH  11  13
HETATM   13  C12 UNL     1      28.095   5.850  48.310  1.00  0.00     0.087 C 
HETATM   14  C11 UNL     1      29.204   6.574  48.215  1.00  0.00     0.016 C 
BRANCH  14  15
HETATM   15  C10 UNL     1      30.547   6.141  48.584  1.00  0.00     0.117 C 
HETATM   16  N1  UNL     1      31.539   7.209  48.625  1.00  0.00    -0.333 N 
HETATM   17  C7  UNL     1      32.681   6.403  49.085  1.00  0.00     0.133 C 
HETATM   18  C8  UNL     1      32.693   5.335  47.977  1.00  0.00     0.023 C 
HETATM   19  C9  UNL     1      31.226   5.270  47.514  1.00  0.00     0.031 C 
BRANCH  16  20
HETATM   20  C6  UNL     1      31.584   8.569  48.343  1.00  0.00     0.009 C 
HETATM   21  C5  UNL     1      31.628   9.736  48.080  1.00  0.00    -0.080 C 
BRANCH  21  22
HETATM   22  C4  UNL     1      31.698  11.153  47.742  1.00  0.00     0.122 C 
BRANCH  22  23
HETATM   23  C3  UNL     1      32.828  11.414  46.764  1.00  0.00    -0.019 C 
HETATM   24  C2  UNL     1      33.153  10.928  45.583  1.00  0.00    -0.034 C 
HETATM   25  C1  UNL     1      34.005  10.844  44.395  1.00  0.00     0.036 C 
ENDBRANCH  22  23
ENDBRANCH  21  22
ENDBRANCH  16  20
ENDBRANCH  14  15
ENDBRANCH  11  13
ENDBRANCH   1  11
BRANCH   8  26
HETATM   26  N5  UNL     1      27.040   0.997  52.417  1.00  0.00    -0.325 N 
HETATM   27  C20 UNL     1      27.960   0.925  53.489  1.00  0.00     0.221 C 
HETATM   28  O2  UNL     1      28.333   1.883  54.194  1.00  0.00    -0.273 OA
HETATM   29  H23 UNL     1      26.693   0.227  51.789  1.00  0.00     0.169 HD
BRANCH  27  30
HETATM   30  C21 UNL     1      28.405  -0.487  53.639  1.00  0.00     0.098 C 
HETATM   31  C22 UNL     1      29.908  -0.581  53.539  1.00  0.00     0.014 C 
ENDBRANCH  27  30
ENDBRANCH   8  26
BRANCH   7  32
HETATM   32  O1  UNL     1      24.518   1.353  53.371  1.00  0.00    -0.354 OA
HETATM   33  C18 UNL     1      23.470   0.409  53.180  1.00  0.00     0.210 C 
ENDBRANCH   7  32
TORSDOF 9
ENDMDL
MODEL 9
REMARK VINA RESULT:      -7.4      4.460      9.166
REMARK  9 active torsions:
REMARK  status: ('A' for Active; 'I' for Inactive)
REMARK    1  A    between atoms: C3_3  and  C4_4 
REMARK    2  A    between atoms: C4_4  and  C5_5 
REMARK    3  A    between atoms: C6_6  and  N1_7 
REMARK    4  A    between atoms: C10_11  and  C11_12 
REMARK    5  A    between atoms: C12_13  and  N2_14 
REMARK    6  A    between atoms: N2_14  and  C13_15 
REMARK    7  A    between atoms: C17_21  and  O1_22 
REMARK    8  A    between atoms: C19_24  and  N5_25 
REMARK       I    between atoms: N5_25  and  C20_26 
REMARK    9  A    between atoms: C20_26  and  C21_28 
ROOT
HETATM    1  C13 UNL     1      27.234   5.320  48.608  1.00  0.00     0.141 A 
HETATM    2  N3  UNL     1      26.022   5.885  48.556  1.00  0.00    -0.224 NA
HETATM    3  C14 UNL     1      25.895   7.139  48.105  1.00  0.00     0.236 A 
HETATM    4  N4  UNL     1      26.938   7.876  47.694  1.00  0.00    -0.241 NA
HETATM    5  C15 UNL     1      28.205   7.355  47.725  1.00  0.00     0.075 A 
HETATM    6  C16 UNL     1      29.305   8.053  47.327  1.00  0.00     0.071 A 
HETATM    7  C17 UNL     1      30.531   7.412  47.410  1.00  0.00     0.097 A 
HETATM    8  C19 UNL     1      30.644   6.097  47.886  1.00  0.00     0.069 A 
HETATM    9  C23 UNL     1      29.514   5.405  48.285  1.00  0.00     0.050 A 
HETATM   10  C24 UNL     1      28.314   6.068  48.190  1.00  0.00     0.041 A 
ENDROOT
BRANCH   1  11
HETATM   11  N2  UNL     1      27.190   3.990  49.105  1.00  0.00    -0.350 N 
HETATM   12  H17 UNL     1      27.857   3.290  48.698  1.00  0.00     0.166 HD
BRANCH  11  13
HETATM   13  C12 UNL     1      26.245   3.715  50.130  1.00  0.00     0.087 C 
HETATM   14  C11 UNL     1      25.954   2.930  51.162  1.00  0.00     0.016 C 
BRANCH  14  15
HETATM   15  C10 UNL     1      26.766   1.823  51.656  1.00  0.00     0.117 C 
HETATM   16  N1  UNL     1      26.006   0.738  52.265  1.00  0.00    -0.333 N 
HETATM   17  C7  UNL     1      27.136  -0.160  52.549  1.00  0.00     0.133 C 
HETATM   18  C8  UNL     1      28.002   0.789  53.395  1.00  0.00     0.023 C 
HETATM   19  C9  UNL     1      27.620   2.190  52.880  1.00  0.00     0.031 C 
BRANCH  16  20
HETATM   20  C6  UNL     1      24.678   0.473  52.574  1.00  0.00     0.009 C 
HETATM   21  C5  UNL     1      23.539   0.243  52.861  1.00  0.00    -0.080 C 
BRANCH  21  22
HETATM   22  C4  UNL     1      22.158  -0.047  53.232  1.00  0.00     0.122 C 
BRANCH  22  23
HETATM   23  C3  UNL     1      21.222   0.241  52.074  1.00  0.00    -0.019 C 
HETATM   24  C2  UNL     1      21.395   0.627  50.825  1.00  0.00    -0.034 C 
HETATM   25  C1  UNL     1      20.911   0.996  49.493  1.00  0.00     0.036 C 
ENDBRANCH  22  23
ENDBRANCH  21  22
ENDBRANCH  16  20
ENDBRANCH  14  15
ENDBRANCH  11  13
ENDBRANCH   1  11
BRANCH   8  26
HETATM   26  N5  UNL     1      31.982   5.622  47.904  1.00  0.00    -0.325 N 
HETATM   27  C20 UNL     1      32.842   5.021  46.955  1.00  0.00     0.221 C 
HETATM   28  O2  UNL     1      32.552   4.759  45.771  1.00  0.00    -0.273 OA
HETATM   29  H23 UNL     1      32.171   5.862  48.911  1.00  0.00     0.169 HD
BRANCH  27  30
HETATM   30  C21 UNL     1      34.155   4.757  47.605  1.00  0.00     0.098 C 
HETATM   31  C22 UNL     1      34.712   3.429  47.151  1.00  0.00     0.014 C 
ENDBRANCH  27  30
ENDBRANCH   8  26
BRANCH   7  32
HETATM   32  O1  UNL     1      31.633   8.161  46.993  1.00  0.00    -0.354 OA
HETATM   33  C18 UNL     1      32.188   9.213  47.775  1.00  0.00     0.210 C 
ENDBRANCH   7  32
TORSDOF 9
ENDMDL
