MODEL 1
REMARK VINA RESULT:      -8.4      0.000      0.000
REMARK  6 active torsions:
REMARK  status: ('A' for Active; 'I' for Inactive)
REMARK    1  A    between atoms: C5_7  and  N3_8 
REMARK    2  A    between atoms: N3_8  and  C6_9 
REMARK    3  A    between atoms: C10_16  and  C11_17 
REMARK    4  A    between atoms: C11_17  and  O1_18 
REMARK    5  A    between atoms: O1_18  and  C12_19 
REMARK    6  A    between atoms: C12_19  and  C13_20 
ROOT
HETATM    1  C6  UNL     1      23.734   3.826  51.532  1.00  0.00     0.156 A 
HETATM    2  N4  UNL     1      22.547   4.363  51.227  1.00  0.00    -0.221 NA
HETATM    3  C7  UNL     1      21.419   3.719  51.517  1.00  0.00     0.258 A 
HETATM    4  N5  UNL     1      21.465   2.524  52.122  1.00  0.00    -0.161 NA
HETATM    5  N6  UNL     1      22.689   2.055  52.394  1.00  0.00    -0.240 N 
HETATM    6  C8  UNL     1      22.820   0.852  53.033  1.00  0.00     0.119 A 
HETATM    7  C9  UNL     1      24.179   0.704  53.158  1.00  0.00     0.031 A 
HETATM    8  C10 UNL     1      24.916   1.763  52.622  1.00  0.00    -0.001 A 
HETATM    9  C17 UNL     1      23.896   2.601  52.152  1.00  0.00     0.112 A 
ENDROOT
BRANCH   8  10
HETATM   10  C11 UNL     1      26.308   2.114  52.458  1.00  0.00     0.208 C 
BRANCH  10  11
HETATM   11  O1  UNL     1      27.038   2.289  53.580  1.00  0.00    -0.384 OA
BRANCH  11  12
HETATM   12  C12 UNL     1      28.355   2.191  53.632  1.00  0.00     0.201 C 
BRANCH  12  13
HETATM   13  C13 UNL     1      29.099   1.015  54.160  1.00  0.00     0.166 C 
HETATM   14  C14 UNL     1      28.139   0.129  54.976  1.00  0.00     0.207 C 
HETATM   15  N7  UNL     1      27.415  -0.665  54.035  1.00  0.00    -0.196 NA
HETATM   16  N8  UNL     1      27.890  -1.603  53.347  1.00  0.00    -0.196 NA
HETATM   17  C15 UNL     1      29.238  -2.060  53.365  1.00  0.00     0.199 C 
HETATM   18  C16 UNL     1      30.184  -0.893  53.627  1.00  0.00     0.192 C 
HETATM   19  O2  UNL     1      29.657   0.284  53.125  1.00  0.00    -0.380 OA
ENDBRANCH  12  13
ENDBRANCH  11  12
ENDBRANCH  10  11
ENDBRANCH   8  10
BRANCH   1  20
HETATM   20  N3  UNL     1      24.895   4.653  51.259  1.00  0.00    -0.347 N 
HETATM   21  H8  UNL     1      25.599   5.135  51.846  1.00  0.00     0.163 HD
BRANCH  20  22
HETATM   22  C5  UNL     1      25.199   4.956  49.875  1.00  0.00     0.226 A 
HETATM   23  N1  UNL     1      25.566   6.356  49.673  1.00  0.00    -0.283 N 
HETATM   24  C1  UNL     1      24.515   7.211  50.212  1.00  0.00     0.176 C 
HETATM   25  N2  UNL     1      26.745   6.842  49.057  1.00  0.00    -0.188 NA
HETATM   26  C2  UNL     1      27.638   5.987  48.613  1.00  0.00     0.138 A 
HETATM   27  C3  UNL     1      27.387   4.558  48.766  1.00  0.00     0.021 A 
HETATM   28  C4  UNL     1      26.289   4.092  49.336  1.00  0.00     0.022 A 
ENDBRANCH  20  22
ENDBRANCH   1  20
TORSDOF 6
ENDMDL
MODEL 2
REMARK VINA RESULT:      -8.3      1.637      1.849
REMARK  6 active torsions:
REMARK  status: ('A' for Active; 'I' for Inactive)
REMARK    1  A    between atoms: C5_7  and  N3_8 
REMARK    2  A    between atoms: N3_8  and  C6_9 
REMARK    3  A    between atoms: C10_16  and  C11_17 
REMARK    4  A    between atoms: C11_17  and  O1_18 
REMARK    5  A    between atoms: O1_18  and  C12_19 
REMARK    6  A    between atoms: C12_19  and  C13_20 
ROOT
HETATM    1  C6  UNL     1      22.889   2.459  50.302  1.00  0.00     0.156 A 
HETATM    2  N4  UNL     1      22.223   2.179  49.176  1.00  0.00    -0.221 NA
HETATM    3  C7  UNL     1      21.413   1.125  49.113  1.00  0.00     0.258 A 
HETATM    4  N5  UNL     1      21.258   0.333  50.184  1.00  0.00    -0.161 NA
HETATM    5  N6  UNL     1      21.959   0.679  51.271  1.00  0.00    -0.240 N 
HETATM    6  C8  UNL     1      21.835  -0.064  52.413  1.00  0.00     0.119 A 
HETATM    7  C9  UNL     1      22.662   0.577  53.301  1.00  0.00     0.031 A 
HETATM    8  C10 UNL     1      23.307   1.696  52.769  1.00  0.00    -0.001 A 
HETATM    9  C17 UNL     1      22.805   1.709  51.460  1.00  0.00     0.112 A 
ENDROOT
BRANCH   8  10
HETATM   10  C11 UNL     1      24.259   2.688  53.215  1.00  0.00     0.208 C 
BRANCH  10  11
HETATM   11  O1  UNL     1      25.492   2.652  52.668  1.00  0.00    -0.384 OA
BRANCH  11  12
HETATM   12  C12 UNL     1      26.268   1.582  52.655  1.00  0.00     0.201 C 
BRANCH  12  13
HETATM   13  C13 UNL     1      27.341   1.299  53.648  1.00  0.00     0.166 C 
HETATM   14  C14 UNL     1      26.942   0.078  54.496  1.00  0.00     0.207 C 
HETATM   15  N7  UNL     1      27.260  -1.079  53.722  1.00  0.00    -0.196 NA
HETATM   16  N8  UNL     1      28.418  -1.490  53.455  1.00  0.00    -0.196 NA
HETATM   17  C15 UNL     1      29.639  -0.886  53.868  1.00  0.00     0.199 C 
HETATM   18  C16 UNL     1      29.479   0.629  53.937  1.00  0.00     0.192 C 
HETATM   19  O2  UNL     1      28.547   1.063  53.010  1.00  0.00    -0.380 OA
ENDBRANCH  12  13
ENDBRANCH  11  12
ENDBRANCH  10  11
ENDBRANCH   8  10
BRANCH   1  20
HETATM   20  N3  UNL     1      23.668   3.684  50.293  1.00  0.00    -0.347 N 
HETATM   21  H8  UNL     1      23.762   4.491  50.934  1.00  0.00     0.163 HD
BRANCH  20  22
HETATM   22  C5  UNL     1      24.515   3.937  49.145  1.00  0.00     0.226 A 
HETATM   23  N1  UNL     1      24.535   5.348  48.761  1.00  0.00    -0.283 N 
HETATM   24  C1  UNL     1      23.167   5.810  48.557  1.00  0.00     0.176 C 
HETATM   25  N2  UNL     1      25.680   6.166  48.603  1.00  0.00    -0.188 NA
HETATM   26  C2  UNL     1      26.870   5.655  48.822  1.00  0.00     0.138 A 
HETATM   27  C3  UNL     1      26.978   4.256  49.220  1.00  0.00     0.021 A 
HETATM   28  C4  UNL     1      25.917   3.481  49.367  1.00  0.00     0.022 A 
ENDBRANCH  20  22
ENDBRANCH   1  20
TORSDOF 6
ENDMDL
MODEL 3
REMARK VINA RESULT:      -8.1      3.482      4.753
REMARK  6 active torsions:
REMARK  status: ('A' for Active; 'I' for Inactive)
REMARK    1  A    between atoms: C5_7  and  N3_8 
REMARK    2  A    between atoms: N3_8  and  C6_9 
REMARK    3  A    between atoms: C10_16  and  C11_17 
REMARK    4  A    between atoms: C11_17  and  O1_18 
REMARK    5  A    between atoms: O1_18  and  C12_19 
REMARK    6  A    between atoms: C12_19  and  C13_20 
ROOT
HETATM    1  C6  UNL     1      20.361   0.379  52.281  1.00  0.00     0.156 A 
HETATM    2  N4  UNL     1      19.104  -0.071  52.368  1.00  0.00    -0.221 NA
HETATM    3  C7  UNL     1      18.791  -1.044  53.221  1.00  0.00     0.258 A 
HETATM    4  N5  UNL     1      19.739  -1.581  54.003  1.00  0.00    -0.161 NA
HETATM    5  N6  UNL     1      20.970  -1.078  53.855  1.00  0.00    -0.240 N 
HETATM    6  C8  UNL     1      21.988  -1.555  54.635  1.00  0.00     0.119 A 
HETATM    7  C9  UNL     1      23.072  -0.816  54.232  1.00  0.00     0.031 A 
HETATM    8  C10 UNL     1      22.785   0.111  53.227  1.00  0.00    -0.001 A 
HETATM    9  C17 UNL     1      21.413  -0.105  53.035  1.00  0.00     0.112 A 
ENDROOT
BRANCH   8  10
HETATM   10  C11 UNL     1      23.504   1.090  52.445  1.00  0.00     0.208 C 
BRANCH  10  11
HETATM   11  O1  UNL     1      23.993   2.165  53.097  1.00  0.00    -0.384 OA
BRANCH  11  12
HETATM   12  C12 UNL     1      25.257   2.305  53.457  1.00  0.00     0.201 C 
BRANCH  12  13
HETATM   13  C13 UNL     1      26.347   1.349  53.118  1.00  0.00     0.166 C 
HETATM   14  C14 UNL     1      27.614   2.135  52.733  1.00  0.00     0.207 C 
HETATM   15  N7  UNL     1      28.242   2.523  53.955  1.00  0.00    -0.196 NA
HETATM   16  N8  UNL     1      28.819   1.751  54.762  1.00  0.00    -0.196 NA
HETATM   17  C15 UNL     1      28.961   0.342  54.622  1.00  0.00     0.199 C 
HETATM   18  C16 UNL     1      27.742  -0.240  53.913  1.00  0.00     0.192 C 
HETATM   19  O2  UNL     1      26.614   0.511  54.188  1.00  0.00    -0.380 OA
ENDBRANCH  12  13
ENDBRANCH  11  12
ENDBRANCH  10  11
ENDBRANCH   8  10
BRANCH   1  20
HETATM   20  N3  UNL     1      20.573   1.505  51.390  1.00  0.00    -0.347 N 
HETATM   21  H8  UNL     1      20.862   2.490  51.520  1.00  0.00     0.163 HD
BRANCH  20  22
HETATM   22  C5  UNL     1      20.311   1.309  49.978  1.00  0.00     0.226 A 
HETATM   23  N1  UNL     1      19.690   2.475  49.354  1.00  0.00    -0.283 N 
HETATM   24  C1  UNL     1      18.489   2.836  50.098  1.00  0.00     0.176 C 
HETATM   25  N2  UNL     1      20.152   3.170  48.210  1.00  0.00    -0.188 NA
HETATM   26  C2  UNL     1      21.254   2.771  47.617  1.00  0.00     0.138 A 
HETATM   27  C3  UNL     1      21.970   1.619  48.155  1.00  0.00     0.021 A 
HETATM   28  C4  UNL     1      21.547   0.960  49.219  1.00  0.00     0.022 A 
ENDBRANCH  20  22
ENDBRANCH   1  20
TORSDOF 6
ENDMDL
MODEL 4
REMARK VINA RESULT:      -8.1      2.222      6.792
REMARK  6 active torsions:
REMARK  status: ('A' for Active; 'I' for Inactive)
REMARK    1  A    between atoms: C5_7  and  N3_8 
REMARK    2  A    between atoms: N3_8  and  C6_9 
REMARK    3  A    between atoms: C10_16  and  C11_17 
REMARK    4  A    between atoms: C11_17  and  O1_18 
REMARK    5  A    between atoms: O1_18  and  C12_19 
REMARK    6  A    between atoms: C12_19  and  C13_20 
ROOT
HETATM    1  C6  UNL     1      25.306   0.121  54.138  1.00  0.00     0.156 A 
HETATM    2  N4  UNL     1      25.549  -0.608  55.234  1.00  0.00    -0.221 NA
HETATM    3  C7  UNL     1      24.586  -1.345  55.784  1.00  0.00     0.258 A 
HETATM    4  N5  UNL     1      23.362  -1.363  55.239  1.00  0.00    -0.161 NA
HETATM    5  N6  UNL     1      23.198  -0.608  54.147  1.00  0.00    -0.240 N 
HETATM    6  C8  UNL     1      21.983  -0.592  53.518  1.00  0.00     0.119 A 
HETATM    7  C9  UNL     1      22.185   0.254  52.455  1.00  0.00     0.031 A 
HETATM    8  C10 UNL     1      23.478   0.777  52.385  1.00  0.00    -0.001 A 
HETATM    9  C17 UNL     1      24.081   0.178  53.500  1.00  0.00     0.112 A 
ENDROOT
BRANCH   8  10
HETATM   10  C11 UNL     1      24.213   1.689  51.538  1.00  0.00     0.208 C 
BRANCH  10  11
HETATM   11  O1  UNL     1      24.544   2.888  52.061  1.00  0.00    -0.384 OA
BRANCH  11  12
HETATM   12  C12 UNL     1      24.079   4.044  51.623  1.00  0.00     0.201 C 
BRANCH  12  13
HETATM   13  C13 UNL     1      24.392   4.636  50.293  1.00  0.00     0.166 C 
HETATM   14  C14 UNL     1      23.722   6.018  50.180  1.00  0.00     0.207 C 
HETATM   15  N7  UNL     1      24.568   6.941  50.866  1.00  0.00    -0.196 NA
HETATM   16  N8  UNL     1      25.702   7.325  50.482  1.00  0.00    -0.196 NA
HETATM   17  C15 UNL     1      26.368   6.917  49.291  1.00  0.00     0.199 C 
HETATM   18  C16 UNL     1      26.018   5.469  48.964  1.00  0.00     0.192 C 
HETATM   19  O2  UNL     1      25.761   4.756  50.121  1.00  0.00    -0.380 OA
ENDBRANCH  12  13
ENDBRANCH  11  12
ENDBRANCH  10  11
ENDBRANCH   8  10
BRANCH   1  20
HETATM   20  N3  UNL     1      26.447   0.810  53.567  1.00  0.00    -0.347 N 
HETATM   21  H8  UNL     1      26.785   1.789  53.574  1.00  0.00     0.163 HD
BRANCH  20  22
HETATM   22  C5  UNL     1      27.365   0.039  52.753  1.00  0.00     0.226 A 
HETATM   23  N1  UNL     1      28.587  -0.321  53.470  1.00  0.00    -0.283 N 
HETATM   24  C1  UNL     1      29.201   0.886  54.009  1.00  0.00     0.176 C 
HETATM   25  N2  UNL     1      29.119  -1.622  53.636  1.00  0.00    -0.188 NA
HETATM   26  C2  UNL     1      28.482  -2.648  53.119  1.00  0.00     0.138 A 
HETATM   27  C3  UNL     1      27.242  -2.415  52.385  1.00  0.00     0.021 A 
HETATM   28  C4  UNL     1      26.737  -1.205  52.221  1.00  0.00     0.022 A 
ENDBRANCH  20  22
ENDBRANCH   1  20
TORSDOF 6
ENDMDL
MODEL 5
REMARK VINA RESULT:      -8.0      1.767      2.611
REMARK  6 active torsions:
REMARK  status: ('A' for Active; 'I' for Inactive)
REMARK    1  A    between atoms: C5_7  and  N3_8 
REMARK    2  A    between atoms: N3_8  and  C6_9 
REMARK    3  A    between atoms: C10_16  and  C11_17 
REMARK    4  A    between atoms: C11_17  and  O1_18 
REMARK    5  A    between atoms: O1_18  and  C12_19 
REMARK    6  A    between atoms: C12_19  and  C13_20 
ROOT
HETATM    1  C6  UNL     1      21.477   3.291  51.742  1.00  0.00     0.156 A 
HETATM    2  N4  UNL     1      20.433   4.076  51.454  1.00  0.00    -0.221 NA
HETATM    3  C7  UNL     1      19.190   3.605  51.533  1.00  0.00     0.258 A 
HETATM    4  N5  UNL     1      18.976   2.335  51.904  1.00  0.00    -0.161 NA
HETATM    5  N6  UNL     1      20.071   1.614  52.174  1.00  0.00    -0.240 N 
HETATM    6  C8  UNL     1      19.936   0.316  52.584  1.00  0.00     0.119 A 
HETATM    7  C9  UNL     1      21.231  -0.093  52.780  1.00  0.00     0.031 A 
HETATM    8  C10 UNL     1      22.184   0.892  52.510  1.00  0.00    -0.001 A 
HETATM    9  C17 UNL     1      21.370   1.969  52.130  1.00  0.00     0.112 A 
ENDROOT
BRANCH   8  10
HETATM   10  C11 UNL     1      23.624   1.011  52.521  1.00  0.00     0.208 C 
BRANCH  10  11
HETATM   11  O1  UNL     1      24.167   1.869  53.409  1.00  0.00    -0.384 OA
BRANCH  11  12
HETATM   12  C12 UNL     1      25.434   2.247  53.399  1.00  0.00     0.201 C 
BRANCH  12  13
HETATM   13  C13 UNL     1      26.574   1.383  52.990  1.00  0.00     0.166 C 
HETATM   14  C14 UNL     1      27.834   2.250  52.812  1.00  0.00     0.207 C 
HETATM   15  N7  UNL     1      28.373   2.463  54.116  1.00  0.00    -0.196 NA
HETATM   16  N8  UNL     1      28.928   1.591  54.833  1.00  0.00    -0.196 NA
HETATM   17  C15 UNL     1      29.127   0.224  54.491  1.00  0.00     0.199 C 
HETATM   18  C16 UNL     1      27.974  -0.273  53.624  1.00  0.00     0.192 C 
HETATM   19  O2  UNL     1      26.805   0.398  53.937  1.00  0.00    -0.380 OA
ENDBRANCH  12  13
ENDBRANCH  11  12
ENDBRANCH  10  11
ENDBRANCH   8  10
BRANCH   1  20
HETATM   20  N3  UNL     1      22.779   3.930  51.718  1.00  0.00    -0.347 N 
HETATM   21  H8  UNL     1      23.441   4.261  52.442  1.00  0.00     0.163 HD
BRANCH  20  22
HETATM   22  C5  UNL     1      23.352   4.250  50.425  1.00  0.00     0.226 A 
HETATM   23  N1  UNL     1      24.060   5.528  50.424  1.00  0.00    -0.283 N 
HETATM   24  C1  UNL     1      23.168   6.572  50.911  1.00  0.00     0.176 C 
HETATM   25  N2  UNL     1      25.399   5.754  50.022  1.00  0.00    -0.188 NA
HETATM   26  C2  UNL     1      26.125   4.740  49.608  1.00  0.00     0.138 A 
HETATM   27  C3  UNL     1      25.529   3.409  49.572  1.00  0.00     0.021 A 
HETATM   28  C4  UNL     1      24.279   3.187  49.942  1.00  0.00     0.022 A 
ENDBRANCH  20  22
ENDBRANCH   1  20
TORSDOF 6
ENDMDL
MODEL 6
REMARK VINA RESULT:      -7.9      1.425      4.754
REMARK  6 active torsions:
REMARK  status: ('A' for Active; 'I' for Inactive)
REMARK    1  A    between atoms: C5_7  and  N3_8 
REMARK    2  A    between atoms: N3_8  and  C6_9 
REMARK    3  A    between atoms: C10_16  and  C11_17 
REMARK    4  A    between atoms: C11_17  and  O1_18 
REMARK    5  A    between atoms: O1_18  and  C12_19 
REMARK    6  A    between atoms: C12_19  and  C13_20 
ROOT
HETATM    1  C6  UNL     1      23.694   3.245  52.064  1.00  0.00     0.156 A 
HETATM    2  N4  UNL     1      22.627   4.051  52.094  1.00  0.00    -0.221 NA
HETATM    3  C7  UNL     1      22.552   5.107  51.287  1.00  0.00     0.258 A 
HETATM    4  N5  UNL     1      23.553   5.370  50.434  1.00  0.00    -0.161 NA
HETATM    5  N6  UNL     1      24.585   4.520  50.465  1.00  0.00    -0.240 N 
HETATM    6  C8  UNL     1      25.635   4.706  49.607  1.00  0.00     0.119 A 
HETATM    7  C9  UNL     1      26.476   3.663  49.902  1.00  0.00     0.031 A 
HETATM    8  C10 UNL     1      26.006   2.823  50.914  1.00  0.00    -0.001 A 
HETATM    9  C17 UNL     1      24.780   3.427  51.228  1.00  0.00     0.112 A 
ENDROOT
BRANCH   8  10
HETATM   10  C11 UNL     1      26.459   1.643  51.614  1.00  0.00     0.208 C 
BRANCH  10  11
HETATM   11  O1  UNL     1      26.645   1.748  52.947  1.00  0.00    -0.384 OA
BRANCH  11  12
HETATM   12  C12 UNL     1      27.787   2.100  53.513  1.00  0.00     0.201 C 
BRANCH  12  13
HETATM   13  C13 UNL     1      28.801   1.148  54.041  1.00  0.00     0.166 C 
HETATM   14  C14 UNL     1      28.113   0.137  54.977  1.00  0.00     0.207 C 
HETATM   15  N7  UNL     1      27.517  -0.856  54.140  1.00  0.00    -0.196 NA
HETATM   16  N8  UNL     1      28.137  -1.717  53.466  1.00  0.00    -0.196 NA
HETATM   17  C15 UNL     1      29.550  -1.875  53.400  1.00  0.00     0.199 C 
HETATM   18  C16 UNL     1      30.236  -0.518  53.523  1.00  0.00     0.192 C 
HETATM   19  O2  UNL     1      29.434   0.482  53.004  1.00  0.00    -0.380 OA
ENDBRANCH  12  13
ENDBRANCH  11  12
ENDBRANCH  10  11
ENDBRANCH   8  10
BRANCH   1  20
HETATM   20  N3  UNL     1      23.630   2.071  52.915  1.00  0.00    -0.347 N 
HETATM   21  H8  UNL     1      23.994   1.833  53.854  1.00  0.00     0.163 HD
BRANCH  20  22
HETATM   22  C5  UNL     1      22.947   0.901  52.401  1.00  0.00     0.226 A 
HETATM   23  N1  UNL     1      22.763  -0.133  53.417  1.00  0.00    -0.283 N 
HETATM   24  C1  UNL     1      24.053  -0.458  54.013  1.00  0.00     0.176 C 
HETATM   25  N2  UNL     1      21.541  -0.745  53.791  1.00  0.00    -0.188 NA
HETATM   26  C2  UNL     1      20.429  -0.372  53.199  1.00  0.00     0.138 A 
HETATM   27  C3  UNL     1      20.485   0.661  52.171  1.00  0.00     0.021 A 
HETATM   28  C4  UNL     1      21.619   1.237  51.812  1.00  0.00     0.022 A 
ENDBRANCH  20  22
ENDBRANCH   1  20
TORSDOF 6
ENDMDL
MODEL 7
REMARK VINA RESULT:      -7.8      2.438      3.674
REMARK  6 active torsions:
REMARK  status: ('A' for Active; 'I' for Inactive)
REMARK    1  A    between atoms: C5_7  and  N3_8 
REMARK    2  A    between atoms: N3_8  and  C6_9 
REMARK    3  A    between atoms: C10_16  and  C11_17 
REMARK    4  A    between atoms: C11_17  and  O1_18 
REMARK    5  A    between atoms: O1_18  and  C12_19 
REMARK    6  A    between atoms: C12_19  and  C13_20 
ROOT
HETATM    1  C6  UNL     1      21.156   0.942  52.061  1.00  0.00     0.156 A 
HETATM    2  N4  UNL     1      19.963   1.296  51.571  1.00  0.00    -0.221 NA
HETATM    3  C7  UNL     1      18.859   0.653  51.946  1.00  0.00     0.258 A 
HETATM    4  N5  UNL     1      18.938  -0.359  52.821  1.00  0.00    -0.161 NA
HETATM    5  N6  UNL     1      20.166  -0.654  53.263  1.00  0.00    -0.240 N 
HETATM    6  C8  UNL     1      20.326  -1.658  54.179  1.00  0.00     0.119 A 
HETATM    7  C9  UNL     1      21.680  -1.666  54.409  1.00  0.00     0.031 A 
HETATM    8  C10 UNL     1      22.385  -0.709  53.676  1.00  0.00    -0.001 A 
HETATM    9  C17 UNL     1      21.350  -0.087  52.963  1.00  0.00     0.112 A 
ENDROOT
BRANCH   8  10
HETATM   10  C11 UNL     1      23.760  -0.298  53.508  1.00  0.00     0.208 C 
BRANCH  10  11
HETATM   11  O1  UNL     1      24.672  -0.830  54.349  1.00  0.00    -0.384 OA
BRANCH  11  12
HETATM   12  C12 UNL     1      25.767  -0.207  54.750  1.00  0.00     0.201 C 
BRANCH  12  13
HETATM   13  C13 UNL     1      27.052  -0.182  53.999  1.00  0.00     0.166 C 
HETATM   14  C14 UNL     1      27.077   1.047  53.071  1.00  0.00     0.207 C 
HETATM   15  N7  UNL     1      27.449   2.163  53.881  1.00  0.00    -0.196 NA
HETATM   16  N8  UNL     1      28.586   2.363  54.378  1.00  0.00    -0.196 NA
HETATM   17  C15 UNL     1      29.726   1.521  54.236  1.00  0.00     0.199 C 
HETATM   18  C16 UNL     1      29.292   0.061  54.153  1.00  0.00     0.192 C 
HETATM   19  O2  UNL     1      28.127  -0.142  54.871  1.00  0.00    -0.380 OA
ENDBRANCH  12  13
ENDBRANCH  11  12
ENDBRANCH  10  11
ENDBRANCH   8  10
BRANCH   1  20
HETATM   20  N3  UNL     1      22.279   1.770  51.661  1.00  0.00    -0.347 N 
HETATM   21  H8  UNL     1      23.271   1.837  51.949  1.00  0.00     0.163 HD
BRANCH  20  22
HETATM   22  C5  UNL     1      22.045   2.787  50.656  1.00  0.00     0.226 A 
HETATM   23  N1  UNL     1      22.628   4.078  51.017  1.00  0.00    -0.283 N 
HETATM   24  C1  UNL     1      22.143   4.473  52.333  1.00  0.00     0.176 C 
HETATM   25  N2  UNL     1      23.525   4.849  50.237  1.00  0.00    -0.188 NA
HETATM   26  C2  UNL     1      23.910   4.397  49.066  1.00  0.00     0.138 A 
HETATM   27  C3  UNL     1      23.401   3.112  48.600  1.00  0.00     0.021 A 
HETATM   28  C4  UNL     1      22.562   2.385  49.316  1.00  0.00     0.022 A 
ENDBRANCH  20  22
ENDBRANCH   1  20
TORSDOF 6
ENDMDL
MODEL 8
REMARK VINA RESULT:      -7.7      2.684      6.998
REMARK  6 active torsions:
REMARK  status: ('A' for Active; 'I' for Inactive)
REMARK    1  A    between atoms: C5_7  and  N3_8 
REMARK    2  A    between atoms: N3_8  and  C6_9 
REMARK    3  A    between atoms: C10_16  and  C11_17 
REMARK    4  A    between atoms: C11_17  and  O1_18 
REMARK    5  A    between atoms: O1_18  and  C12_19 
REMARK    6  A    between atoms: C12_19  and  C13_20 
ROOT
HETATM    1  C6  UNL     1      25.259   0.078  54.173  1.00  0.00     0.156 A 
HETATM    2  N4  UNL     1      25.644  -0.555  55.288  1.00  0.00    -0.221 NA
HETATM    3  C7  UNL     1      24.790  -1.323  55.960  1.00  0.00     0.258 A 
HETATM    4  N5  UNL     1      23.532  -1.469  55.522  1.00  0.00    -0.161 NA
HETATM    5  N6  UNL     1      23.223  -0.804  54.402  1.00  0.00    -0.240 N 
HETATM    6  C8  UNL     1      21.965  -0.921  53.877  1.00  0.00     0.119 A 
HETATM    7  C9  UNL     1      22.016  -0.136  52.751  1.00  0.00     0.031 A 
HETATM    8  C10 UNL     1      23.253   0.476  52.542  1.00  0.00    -0.001 A 
HETATM    9  C17 UNL     1      23.987  -0.000  53.637  1.00  0.00     0.112 A 
ENDROOT
BRANCH   8  10
HETATM   10  C11 UNL     1      23.844   1.380  51.582  1.00  0.00     0.208 C 
BRANCH  10  11
HETATM   11  O1  UNL     1      24.175   2.614  52.017  1.00  0.00    -0.384 OA
BRANCH  11  12
HETATM   12  C12 UNL     1      24.822   3.510  51.292  1.00  0.00     0.201 C 
BRANCH  12  13
HETATM   13  C13 UNL     1      24.255   4.812  50.848  1.00  0.00     0.166 C 
HETATM   14  C14 UNL     1      23.975   4.757  49.335  1.00  0.00     0.207 C 
HETATM   15  N7  UNL     1      22.727   4.082  49.174  1.00  0.00    -0.196 NA
HETATM   16  N8  UNL     1      21.599   4.537  49.489  1.00  0.00    -0.196 NA
HETATM   17  C15 UNL     1      21.339   5.811  50.069  1.00  0.00     0.199 C 
HETATM   18  C16 UNL     1      22.490   6.216  50.984  1.00  0.00     0.192 C 
HETATM   19  O2  UNL     1      23.089   5.098  51.538  1.00  0.00    -0.380 OA
ENDBRANCH  12  13
ENDBRANCH  11  12
ENDBRANCH  10  11
ENDBRANCH   8  10
BRANCH   1  20
HETATM   20  N3  UNL     1      26.294   0.810  53.467  1.00  0.00    -0.347 N 
HETATM   21  H8  UNL     1      26.528   1.812  53.355  1.00  0.00     0.163 HD
BRANCH  20  22
HETATM   22  C5  UNL     1      27.245   0.049  52.682  1.00  0.00     0.226 A 
HETATM   23  N1  UNL     1      28.471  -0.250  53.420  1.00  0.00    -0.283 N 
HETATM   24  C1  UNL     1      29.038   0.991  53.932  1.00  0.00     0.176 C 
HETATM   25  N2  UNL     1      29.045  -1.528  53.625  1.00  0.00    -0.188 NA
HETATM   26  C2  UNL     1      28.448  -2.588  53.130  1.00  0.00     0.138 A 
HETATM   27  C3  UNL     1      27.209  -2.417  52.379  1.00  0.00     0.021 A 
HETATM   28  C4  UNL     1      26.665  -1.229  52.179  1.00  0.00     0.022 A 
ENDBRANCH  20  22
ENDBRANCH   1  20
TORSDOF 6
ENDMDL
MODEL 9
REMARK VINA RESULT:      -7.7      1.737      4.793
REMARK  6 active torsions:
REMARK  status: ('A' for Active; 'I' for Inactive)
REMARK    1  A    between atoms: C5_7  and  N3_8 
REMARK    2  A    between atoms: N3_8  and  C6_9 
REMARK    3  A    between atoms: C10_16  and  C11_17 
REMARK    4  A    between atoms: C11_17  and  O1_18 
REMARK    5  A    between atoms: O1_18  and  C12_19 
REMARK    6  A    between atoms: C12_19  and  C13_20 
ROOT
HETATM    1  C6  UNL     1      23.503   4.500  49.093  1.00  0.00     0.156 A 
HETATM    2  N4  UNL     1      22.409   5.223  48.829  1.00  0.00    -0.221 NA
HETATM    3  C7  UNL     1      22.513   6.496  48.455  1.00  0.00     0.258 A 
HETATM    4  N5  UNL     1      23.722   7.064  48.339  1.00  0.00    -0.161 NA
HETATM    5  N6  UNL     1      24.766   6.277  48.622  1.00  0.00    -0.240 N 
HETATM    6  C8  UNL     1      26.034   6.775  48.503  1.00  0.00     0.119 A 
HETATM    7  C9  UNL     1      26.829   5.710  48.847  1.00  0.00     0.031 A 
HETATM    8  C10 UNL     1      26.117   4.555  49.181  1.00  0.00    -0.001 A 
HETATM    9  C17 UNL     1      24.794   4.987  49.009  1.00  0.00     0.112 A 
ENDROOT
BRANCH   8  10
HETATM   10  C11 UNL     1      26.414   3.211  49.620  1.00  0.00     0.208 C 
BRANCH  10  11
HETATM   11  O1  UNL     1      27.051   3.074  50.802  1.00  0.00    -0.384 OA
BRANCH  11  12
HETATM   12  C12 UNL     1      26.730   2.178  51.720  1.00  0.00     0.201 C 
BRANCH  12  13
HETATM   13  C13 UNL     1      27.361   2.076  53.064  1.00  0.00     0.166 C 
HETATM   14  C14 UNL     1      26.493   1.182  53.968  1.00  0.00     0.207 C 
HETATM   15  N7  UNL     1      26.816  -0.170  53.639  1.00  0.00    -0.196 NA
HETATM   16  N8  UNL     1      27.900  -0.750  53.899  1.00  0.00    -0.196 NA
HETATM   17  C15 UNL     1      29.019  -0.180  54.570  1.00  0.00     0.199 C 
HETATM   18  C16 UNL     1      29.132   1.304  54.234  1.00  0.00     0.192 C 
HETATM   19  O2  UNL     1      28.640   1.554  52.966  1.00  0.00    -0.380 OA
ENDBRANCH  12  13
ENDBRANCH  11  12
ENDBRANCH  10  11
ENDBRANCH   8  10
BRANCH   1  20
HETATM   20  N3  UNL     1      23.281   3.099  49.399  1.00  0.00    -0.347 N 
HETATM   21  H8  UNL     1      23.605   2.205  48.990  1.00  0.00     0.163 HD
BRANCH  20  22
HETATM   22  C5  UNL     1      22.385   2.779  50.492  1.00  0.00     0.226 A 
HETATM   23  N1  UNL     1      21.766   1.463  50.345  1.00  0.00    -0.283 N 
HETATM   24  C1  UNL     1      21.110   1.383  49.046  1.00  0.00     0.176 C 
HETATM   25  N2  UNL     1      21.781   0.410  51.291  1.00  0.00    -0.188 NA
HETATM   26  C2  UNL     1      22.412   0.579  52.432  1.00  0.00     0.138 A 
HETATM   27  C3  UNL     1      23.078   1.851  52.690  1.00  0.00     0.021 A 
HETATM   28  C4  UNL     1      23.067   2.842  51.816  1.00  0.00     0.022 A 
ENDBRANCH  20  22
ENDBRANCH   1  20
TORSDOF 6
ENDMDL
