MODEL 1
REMARK VINA RESULT:      -9.1      0.000      0.000
REMARK  4 active torsions:
REMARK  status: ('A' for Active; 'I' for Inactive)
REMARK    1  A    between atoms: N1_5  and  O1_6 
REMARK    2  A    between atoms: O1_6  and  C5_7 
REMARK    3  A    between atoms: C16_21  and  C17_22 
REMARK    4  A    between atoms: C17_22  and  C18_23 
ROOT
HETATM    1  C5  UNL     1      22.600   3.160  50.946  1.00  0.00     0.078 C 
HETATM    2  C6  UNL     1      23.506   3.987  50.382  1.00  0.00     0.036 C 
HETATM    3  C7  UNL     1      24.928   4.238  50.164  1.00  0.00     0.020 C 
HETATM    4  C8  UNL     1      26.079   3.687  50.460  1.00  0.00     0.090 C 
HETATM    5  N2  UNL     1      26.793   2.644  51.077  1.00  0.00    -0.350 N 
HETATM    6  C9  UNL     1      27.245   2.107  52.303  1.00  0.00     0.141 A 
HETATM    7  N3  UNL     1      28.422   2.390  52.852  1.00  0.00    -0.224 NA
HETATM    8  C10 UNL     1      28.739   1.784  54.034  1.00  0.00     0.235 A 
HETATM    9  N4  UNL     1      27.952   0.920  54.686  1.00  0.00    -0.246 NA
HETATM   10  C11 UNL     1      26.760   0.613  54.161  1.00  0.00     0.046 A 
HETATM   11  C12 UNL     1      25.681  -0.309  54.630  1.00  0.00     0.071 C 
HETATM   12  C13 UNL     1      26.429   1.220  52.972  1.00  0.00     0.034 A 
HETATM   13  C14 UNL     1      25.137   0.973  52.351  1.00  0.00     0.014 C 
HETATM   14  C15 UNL     1      23.960   1.495  52.112  1.00  0.00    -0.014 C 
HETATM   15  C16 UNL     1      22.589   1.914  51.752  1.00  0.00     0.071 C 
HETATM   16  H10 UNL     1      27.221   1.852  50.501  1.00  0.00     0.166 HD
ENDROOT
BRANCH   1  17
HETATM   17  O1  UNL     1      21.216   3.409  50.836  1.00  0.00    -0.262 OA
BRANCH  17  18
HETATM   18  N1  UNL     1      20.764   4.023  49.706  1.00  0.00    -0.150 NA
HETATM   19  C4  UNL     1      19.846   5.108  49.994  1.00  0.00     0.152 C 
HETATM   20  C3  UNL     1      18.486   4.493  49.892  1.00  0.00    -0.004 C 
HETATM   21  C2  UNL     1      18.604   3.330  49.274  1.00  0.00    -0.037 C 
HETATM   22  C1  UNL     1      17.481   2.380  48.961  1.00  0.00     0.048 C 
HETATM   23  C24 UNL     1      20.030   3.074  48.914  1.00  0.00     0.299 C 
HETATM   24  F1  UNL     1      20.230   3.403  47.581  1.00  0.00    -0.226 F 
ENDBRANCH  17  18
ENDBRANCH   1  17
BRANCH  15  25
HETATM   25  C17 UNL     1      21.848   0.792  51.045  1.00  0.00     0.053 C 
BRANCH  25  26
HETATM   26  C18 UNL     1      20.796   0.172  51.889  1.00  0.00    -0.057 A 
HETATM   27  C19 UNL     1      19.518   0.255  51.332  1.00  0.00     0.007 A 
HETATM   28  C20 UNL     1      18.414  -0.262  51.955  1.00  0.00     0.001 A 
HETATM   29  C21 UNL     1      18.535  -0.893  53.179  1.00  0.00     0.000 A 
HETATM   30  C22 UNL     1      19.807  -0.973  53.733  1.00  0.00     0.001 A 
HETATM   31  C23 UNL     1      20.923  -0.455  53.108  1.00  0.00     0.007 A 
ENDBRANCH  25  26
ENDBRANCH  15  25
TORSDOF 4
ENDMDL
MODEL 2
REMARK VINA RESULT:      -8.9      2.878      7.071
REMARK  4 active torsions:
REMARK  status: ('A' for Active; 'I' for Inactive)
REMARK    1  A    between atoms: N1_5  and  O1_6 
REMARK    2  A    between atoms: O1_6  and  C5_7 
REMARK    3  A    between atoms: C16_21  and  C17_22 
REMARK    4  A    between atoms: C17_22  and  C18_23 
ROOT
HETATM    1  C5  UNL     1      25.662   1.771  51.388  1.00  0.00     0.078 C 
HETATM    2  C6  UNL     1      26.417   2.685  50.743  1.00  0.00     0.036 C 
HETATM    3  C7  UNL     1      26.397   3.873  49.894  1.00  0.00     0.020 C 
HETATM    4  C8  UNL     1      25.516   4.664  49.333  1.00  0.00     0.090 C 
HETATM    5  N2  UNL     1      24.169   4.997  49.101  1.00  0.00    -0.350 N 
HETATM    6  C9  UNL     1      22.994   4.671  48.389  1.00  0.00     0.141 A 
HETATM    7  N3  UNL     1      22.667   5.192  47.211  1.00  0.00    -0.224 NA
HETATM    8  C10 UNL     1      21.489   4.801  46.642  1.00  0.00     0.235 A 
HETATM    9  N4  UNL     1      20.630   3.930  47.184  1.00  0.00    -0.246 NA
HETATM   10  C11 UNL     1      20.927   3.387  48.371  1.00  0.00     0.046 A 
HETATM   11  C12 UNL     1      20.184   2.414  49.227  1.00  0.00     0.071 C 
HETATM   12  C13 UNL     1      22.114   3.771  48.952  1.00  0.00     0.034 A 
HETATM   13  C14 UNL     1      22.533   3.201  50.222  1.00  0.00     0.014 C 
HETATM   14  C15 UNL     1      23.367   2.360  50.782  1.00  0.00    -0.014 C 
HETATM   15  C16 UNL     1      24.223   1.463  51.584  1.00  0.00     0.071 C 
HETATM   16  H10 UNL     1      23.705   5.809  49.620  1.00  0.00     0.166 HD
ENDROOT
BRANCH   1  17
HETATM   17  O1  UNL     1      26.253   0.734  52.141  1.00  0.00    -0.262 OA
BRANCH  17  18
HETATM   18  N1  UNL     1      26.662   1.019  53.410  1.00  0.00    -0.150 NA
HETATM   19  C4  UNL     1      27.646   2.084  53.449  1.00  0.00     0.152 C 
HETATM   20  C3  UNL     1      28.967   1.382  53.457  1.00  0.00    -0.004 C 
HETATM   21  C2  UNL     1      28.758   0.111  53.756  1.00  0.00    -0.037 C 
HETATM   22  C1  UNL     1      29.814  -0.953  53.872  1.00  0.00     0.048 C 
HETATM   23  C24 UNL     1      27.302  -0.140  53.971  1.00  0.00     0.299 C 
HETATM   24  F1  UNL     1      27.036  -0.143  55.333  1.00  0.00    -0.226 F 
ENDBRANCH  17  18
ENDBRANCH   1  17
BRANCH  15  25
HETATM   25  C17 UNL     1      23.832   1.509  53.051  1.00  0.00     0.053 C 
BRANCH  25  26
HETATM   26  C18 UNL     1      22.729   0.572  53.385  1.00  0.00    -0.057 A 
HETATM   27  C19 UNL     1      23.156  -0.559  54.084  1.00  0.00     0.007 A 
HETATM   28  C20 UNL     1      22.289  -1.539  54.487  1.00  0.00     0.001 A 
HETATM   29  C21 UNL     1      20.940  -1.435  54.208  1.00  0.00     0.000 A 
HETATM   30  C22 UNL     1      20.517  -0.309  53.511  1.00  0.00     0.001 A 
HETATM   31  C23 UNL     1      21.386   0.682  53.103  1.00  0.00     0.007 A 
ENDBRANCH  25  26
ENDBRANCH  15  25
TORSDOF 4
ENDMDL
MODEL 3
REMARK VINA RESULT:      -8.9      2.869      8.349
REMARK  4 active torsions:
REMARK  status: ('A' for Active; 'I' for Inactive)
REMARK    1  A    between atoms: N1_5  and  O1_6 
REMARK    2  A    between atoms: O1_6  and  C5_7 
REMARK    3  A    between atoms: C16_21  and  C17_22 
REMARK    4  A    between atoms: C17_22  and  C18_23 
ROOT
HETATM    1  C5  UNL     1      24.268   0.912  52.893  1.00  0.00     0.078 C 
HETATM    2  C6  UNL     1      23.420  -0.082  53.233  1.00  0.00     0.036 C 
HETATM    3  C7  UNL     1      22.071  -0.616  53.068  1.00  0.00     0.020 C 
HETATM    4  C8  UNL     1      20.969  -0.319  52.426  1.00  0.00     0.090 C 
HETATM    5  N2  UNL     1      20.276   0.541  51.554  1.00  0.00    -0.350 N 
HETATM    6  C9  UNL     1      19.621   1.785  51.422  1.00  0.00     0.141 A 
HETATM    7  N3  UNL     1      18.319   1.967  51.621  1.00  0.00    -0.224 NA
HETATM    8  C10 UNL     1      17.813   3.223  51.439  1.00  0.00     0.235 A 
HETATM    9  N4  UNL     1      18.530   4.291  51.072  1.00  0.00    -0.246 NA
HETATM   10  C11 UNL     1      19.844   4.143  50.863  1.00  0.00     0.046 A 
HETATM   11  C12 UNL     1      20.894   5.118  50.439  1.00  0.00     0.071 C 
HETATM   12  C13 UNL     1      20.365   2.883  51.046  1.00  0.00     0.034 A 
HETATM   13  C14 UNL     1      21.790   2.641  50.878  1.00  0.00     0.014 C 
HETATM   14  C15 UNL     1      22.908   2.410  51.520  1.00  0.00    -0.014 C 
HETATM   15  C16 UNL     1      24.254   2.145  52.066  1.00  0.00     0.071 C 
HETATM   16  H10 UNL     1      20.111   0.275  50.532  1.00  0.00     0.166 HD
ENDROOT
BRANCH   1  17
HETATM   17  O1  UNL     1      25.591   0.943  53.381  1.00  0.00    -0.262 OA
BRANCH  17  18
HETATM   18  N1  UNL     1      26.129  -0.220  53.846  1.00  0.00    -0.150 NA
HETATM   19  C4  UNL     1      26.641  -0.094  55.196  1.00  0.00     0.152 C 
HETATM   20  C3  UNL     1      28.097   0.207  55.023  1.00  0.00    -0.004 C 
HETATM   21  C2  UNL     1      28.432  -0.076  53.777  1.00  0.00    -0.037 C 
HETATM   22  C1  UNL     1      29.802   0.078  53.175  1.00  0.00     0.048 C 
HETATM   23  C24 UNL     1      27.249  -0.585  53.022  1.00  0.00     0.299 C 
HETATM   24  F1  UNL     1      27.298  -1.971  52.977  1.00  0.00    -0.226 F 
ENDBRANCH  17  18
ENDBRANCH   1  17
BRANCH  15  25
HETATM   25  C17 UNL     1      25.289   2.090  50.955  1.00  0.00     0.053 C 
BRANCH  25  26
HETATM   26  C18 UNL     1      25.580   3.422  50.370  1.00  0.00    -0.057 A 
HETATM   27  C19 UNL     1      26.697   3.427  49.531  1.00  0.00     0.007 A 
HETATM   28  C20 UNL     1      27.126   4.559  48.892  1.00  0.00     0.001 A 
HETATM   29  C21 UNL     1      26.452   5.754  49.062  1.00  0.00     0.000 A 
HETATM   30  C22 UNL     1      25.342   5.748  49.897  1.00  0.00     0.001 A 
HETATM   31  C23 UNL     1      24.905   4.610  50.543  1.00  0.00     0.007 A 
ENDBRANCH  25  26
ENDBRANCH  15  25
TORSDOF 4
ENDMDL
MODEL 4
REMARK VINA RESULT:      -8.7      2.756      5.118
REMARK  4 active torsions:
REMARK  status: ('A' for Active; 'I' for Inactive)
REMARK    1  A    between atoms: N1_5  and  O1_6 
REMARK    2  A    between atoms: O1_6  and  C5_7 
REMARK    3  A    between atoms: C16_21  and  C17_22 
REMARK    4  A    between atoms: C17_22  and  C18_23 
ROOT
HETATM    1  C5  UNL     1      20.332   0.301  52.930  1.00  0.00     0.078 C 
HETATM    2  C6  UNL     1      20.518  -0.741  53.769  1.00  0.00     0.036 C 
HETATM    3  C7  UNL     1      21.489  -1.467  54.583  1.00  0.00     0.020 C 
HETATM    4  C8  UNL     1      22.760  -1.397  54.888  1.00  0.00     0.090 C 
HETATM    5  N2  UNL     1      24.000  -0.745  54.754  1.00  0.00    -0.350 N 
HETATM    6  C9  UNL     1      25.115  -0.523  53.916  1.00  0.00     0.141 A 
HETATM    7  N3  UNL     1      26.221  -1.261  53.937  1.00  0.00    -0.224 NA
HETATM    8  C10 UNL     1      27.232  -0.922  53.083  1.00  0.00     0.235 A 
HETATM    9  N4  UNL     1      27.196   0.102  52.224  1.00  0.00    -0.246 NA
HETATM   10  C11 UNL     1      26.098   0.866  52.177  1.00  0.00     0.046 A 
HETATM   11  C12 UNL     1      25.763   2.067  51.354  1.00  0.00     0.071 C 
HETATM   12  C13 UNL     1      25.072   0.533  53.031  1.00  0.00     0.034 A 
HETATM   13  C14 UNL     1      23.827   1.286  53.019  1.00  0.00     0.014 C 
HETATM   14  C15 UNL     1      22.570   1.248  52.654  1.00  0.00    -0.014 C 
HETATM   15  C16 UNL     1      21.138   1.387  52.318  1.00  0.00     0.071 C 
HETATM   16  H10 UNL     1      24.375  -0.110  55.528  1.00  0.00     0.166 HD
ENDROOT
BRANCH   1  17
HETATM   17  O1  UNL     1      19.064   0.580  52.380  1.00  0.00    -0.262 OA
BRANCH  17  18
HETATM   18  N1  UNL     1      18.348  -0.460  51.865  1.00  0.00    -0.150 NA
HETATM   19  C4  UNL     1      17.754  -0.142  50.581  1.00  0.00     0.152 C 
HETATM   20  C3  UNL     1      16.366   0.313  50.907  1.00  0.00    -0.004 C 
HETATM   21  C2  UNL     1      16.093  -0.047  52.148  1.00  0.00    -0.037 C 
HETATM   22  C1  UNL     1      14.805   0.212  52.879  1.00  0.00     0.048 C 
HETATM   23  C24 UNL     1      17.256  -0.765  52.749  1.00  0.00     0.299 C 
HETATM   24  F1  UNL     1      17.034  -2.133  52.678  1.00  0.00    -0.226 F 
ENDBRANCH  17  18
ENDBRANCH   1  17
BRANCH  15  25
HETATM   25  C17 UNL     1      20.621   2.761  52.708  1.00  0.00     0.053 C 
BRANCH  25  26
HETATM   26  C18 UNL     1      21.266   3.859  51.945  1.00  0.00    -0.057 A 
HETATM   27  C19 UNL     1      20.731   4.036  50.667  1.00  0.00     0.007 A 
HETATM   28  C20 UNL     1      21.187   5.001  49.810  1.00  0.00     0.001 A 
HETATM   29  C21 UNL     1      22.213   5.845  50.193  1.00  0.00     0.000 A 
HETATM   30  C22 UNL     1      22.745   5.667  51.465  1.00  0.00     0.001 A 
HETATM   31  C23 UNL     1      22.288   4.697  52.332  1.00  0.00     0.007 A 
ENDBRANCH  25  26
ENDBRANCH  15  25
TORSDOF 4
ENDMDL
MODEL 5
REMARK VINA RESULT:      -8.6      2.271      4.801
REMARK  4 active torsions:
REMARK  status: ('A' for Active; 'I' for Inactive)
REMARK    1  A    between atoms: N1_5  and  O1_6 
REMARK    2  A    between atoms: O1_6  and  C5_7 
REMARK    3  A    between atoms: C16_21  and  C17_22 
REMARK    4  A    between atoms: C17_22  and  C18_23 
ROOT
HETATM    1  C5  UNL     1      21.921  -0.065  52.731  1.00  0.00     0.078 C 
HETATM    2  C6  UNL     1      22.086  -0.948  53.740  1.00  0.00     0.036 C 
HETATM    3  C7  UNL     1      22.972  -1.392  54.812  1.00  0.00     0.020 C 
HETATM    4  C8  UNL     1      24.136  -1.071  55.320  1.00  0.00     0.090 C 
HETATM    5  N2  UNL     1      25.271  -0.240  55.303  1.00  0.00    -0.350 N 
HETATM    6  C9  UNL     1      26.486   0.061  54.648  1.00  0.00     0.141 A 
HETATM    7  N3  UNL     1      27.660  -0.471  54.974  1.00  0.00    -0.224 NA
HETATM    8  C10 UNL     1      28.760  -0.076  54.267  1.00  0.00     0.235 A 
HETATM    9  N4  UNL     1      28.747   0.812  53.267  1.00  0.00    -0.246 NA
HETATM   10  C11 UNL     1      27.582   1.368  52.913  1.00  0.00     0.046 A 
HETATM   11  C12 UNL     1      27.247   2.383  51.869  1.00  0.00     0.071 C 
HETATM   12  C13 UNL     1      26.467   0.975  53.616  1.00  0.00     0.034 A 
HETATM   13  C14 UNL     1      25.154   1.499  53.273  1.00  0.00     0.014 C 
HETATM   14  C15 UNL     1      24.012   1.204  52.705  1.00  0.00    -0.014 C 
HETATM   15  C16 UNL     1      22.668   1.056  52.108  1.00  0.00     0.071 C 
HETATM   16  H10 UNL     1      25.394   0.541  56.023  1.00  0.00     0.166 HD
ENDROOT
BRANCH   1  17
HETATM   17  O1  UNL     1      20.758  -0.076  51.933  1.00  0.00    -0.262 OA
BRANCH  17  18
HETATM   18  N1  UNL     1      19.621   0.468  52.452  1.00  0.00    -0.150 NA
HETATM   19  C4  UNL     1      18.800  -0.513  53.136  1.00  0.00     0.152 C 
HETATM   20  C3  UNL     1      17.808  -0.960  52.109  1.00  0.00    -0.004 C 
HETATM   21  C2  UNL     1      17.827  -0.093  51.112  1.00  0.00    -0.037 C 
HETATM   22  C1  UNL     1      16.983  -0.161  49.868  1.00  0.00     0.048 C 
HETATM   23  C24 UNL     1      18.816   0.991  51.383  1.00  0.00     0.299 C 
HETATM   24  F1  UNL     1      18.149   2.106  51.872  1.00  0.00    -0.226 F 
ENDBRANCH  17  18
ENDBRANCH   1  17
BRANCH  15  25
HETATM   25  C17 UNL     1      21.894   2.361  52.186  1.00  0.00     0.053 C 
BRANCH  25  26
HETATM   26  C18 UNL     1      22.534   3.459  51.419  1.00  0.00    -0.057 A 
HETATM   27  C19 UNL     1      22.818   4.585  52.196  1.00  0.00     0.007 A 
HETATM   28  C20 UNL     1      23.412   5.702  51.674  1.00  0.00     0.001 A 
HETATM   29  C21 UNL     1      23.754   5.749  50.335  1.00  0.00     0.000 A 
HETATM   30  C22 UNL     1      23.470   4.629  49.563  1.00  0.00     0.001 A 
HETATM   31  C23 UNL     1      22.872   3.500  50.085  1.00  0.00     0.007 A 
ENDBRANCH  25  26
ENDBRANCH  15  25
TORSDOF 4
ENDMDL
MODEL 6
REMARK VINA RESULT:      -8.5      3.092      8.782
REMARK  4 active torsions:
REMARK  status: ('A' for Active; 'I' for Inactive)
REMARK    1  A    between atoms: N1_5  and  O1_6 
REMARK    2  A    between atoms: O1_6  and  C5_7 
REMARK    3  A    between atoms: C16_21  and  C17_22 
REMARK    4  A    between atoms: C17_22  and  C18_23 
ROOT
HETATM    1  C5  UNL     1      23.835   2.649  50.633  1.00  0.00     0.078 C 
HETATM    2  C6  UNL     1      22.845   1.734  50.565  1.00  0.00     0.036 C 
HETATM    3  C7  UNL     1      21.676   1.287  49.813  1.00  0.00     0.020 C 
HETATM    4  C8  UNL     1      21.010   1.629  48.738  1.00  0.00     0.090 C 
HETATM    5  N2  UNL     1      20.858   2.492  47.637  1.00  0.00    -0.350 N 
HETATM    6  C9  UNL     1      20.440   3.770  47.207  1.00  0.00     0.141 A 
HETATM    7  N3  UNL     1      19.209   4.052  46.792  1.00  0.00    -0.224 NA
HETATM    8  C10 UNL     1      18.946   5.329  46.386  1.00  0.00     0.235 A 
HETATM    9  N4  UNL     1      19.839   6.325  46.371  1.00  0.00    -0.246 NA
HETATM   10  C11 UNL     1      21.088   6.077  46.782  1.00  0.00     0.046 A 
HETATM   11  C12 UNL     1      22.294   6.955  46.868  1.00  0.00     0.071 C 
HETATM   12  C13 UNL     1      21.364   4.794  47.196  1.00  0.00     0.034 A 
HETATM   13  C14 UNL     1      22.685   4.446  47.694  1.00  0.00     0.014 C 
HETATM   14  C15 UNL     1      23.370   4.170  48.775  1.00  0.00    -0.014 C 
HETATM   15  C16 UNL     1      24.299   3.838  49.876  1.00  0.00     0.071 C 
HETATM   16  H10 UNL     1      21.150   2.188  46.654  1.00  0.00     0.166 HD
ENDROOT
BRANCH   1  17
HETATM   17  O1  UNL     1      24.794   2.612  51.668  1.00  0.00    -0.262 OA
BRANCH  17  18
HETATM   18  N1  UNL     1      25.253   1.393  52.070  1.00  0.00    -0.150 NA
HETATM   19  C4  UNL     1      24.985   1.135  53.472  1.00  0.00     0.152 C 
HETATM   20  C3  UNL     1      26.236   1.552  54.181  1.00  0.00    -0.004 C 
HETATM   21  C2  UNL     1      27.198   1.675  53.284  1.00  0.00    -0.037 C 
HETATM   22  C1  UNL     1      28.620   2.077  53.565  1.00  0.00     0.048 C 
HETATM   23  C24 UNL     1      26.683   1.354  51.920  1.00  0.00     0.299 C 
HETATM   24  F1  UNL     1      27.030   0.050  51.596  1.00  0.00    -0.226 F 
ENDBRANCH  17  18
ENDBRANCH   1  17
BRANCH  15  25
HETATM   25  C17 UNL     1      25.714   3.658  49.354  1.00  0.00     0.053 C 
BRANCH  25  26
HETATM   26  C18 UNL     1      26.373   4.943  49.014  1.00  0.00    -0.057 A 
HETATM   27  C19 UNL     1      27.705   4.796  48.618  1.00  0.00     0.007 A 
HETATM   28  C20 UNL     1      28.483   5.863  48.259  1.00  0.00     0.001 A 
HETATM   29  C21 UNL     1      27.963   7.144  48.279  1.00  0.00     0.000 A 
HETATM   30  C22 UNL     1      26.639   7.289  48.675  1.00  0.00     0.001 A 
HETATM   31  C23 UNL     1      25.850   6.217  49.037  1.00  0.00     0.007 A 
ENDBRANCH  25  26
ENDBRANCH  15  25
TORSDOF 4
ENDMDL
MODEL 7
REMARK VINA RESULT:      -8.4      2.773      4.815
REMARK  4 active torsions:
REMARK  status: ('A' for Active; 'I' for Inactive)
REMARK    1  A    between atoms: N1_5  and  O1_6 
REMARK    2  A    between atoms: O1_6  and  C5_7 
REMARK    3  A    between atoms: C16_21  and  C17_22 
REMARK    4  A    between atoms: C17_22  and  C18_23 
ROOT
HETATM    1  C5  UNL     1      24.904   3.274  50.754  1.00  0.00     0.078 C 
HETATM    2  C6  UNL     1      26.138   2.906  51.159  1.00  0.00     0.036 C 
HETATM    3  C7  UNL     1      26.915   1.893  51.867  1.00  0.00     0.020 C 
HETATM    4  C8  UNL     1      26.713   0.756  52.486  1.00  0.00     0.090 C 
HETATM    5  N2  UNL     1      25.819  -0.244  52.910  1.00  0.00    -0.350 N 
HETATM    6  C9  UNL     1      24.820  -0.594  53.844  1.00  0.00     0.141 A 
HETATM    7  N3  UNL     1      25.061  -1.206  54.999  1.00  0.00    -0.224 NA
HETATM    8  C10 UNL     1      23.996  -1.503  55.801  1.00  0.00     0.235 A 
HETATM    9  N4  UNL     1      22.720  -1.225  55.511  1.00  0.00    -0.246 NA
HETATM   10  C11 UNL     1      22.441  -0.610  54.355  1.00  0.00     0.046 A 
HETATM   11  C12 UNL     1      21.143  -0.187  53.748  1.00  0.00     0.071 C 
HETATM   12  C13 UNL     1      23.506  -0.304  53.541  1.00  0.00     0.034 A 
HETATM   13  C14 UNL     1      23.298   0.399  52.284  1.00  0.00     0.014 C 
HETATM   14  C15 UNL     1      23.435   1.553  51.681  1.00  0.00    -0.014 C 
HETATM   15  C16 UNL     1      23.512   2.767  50.843  1.00  0.00     0.071 C 
HETATM   16  H10 UNL     1      25.755  -1.180  52.396  1.00  0.00     0.166 HD
ENDROOT
BRANCH   1  17
HETATM   17  O1  UNL     1      24.699   4.465  50.024  1.00  0.00    -0.262 OA
BRANCH  17  18
HETATM   18  N1  UNL     1      25.044   5.644  50.615  1.00  0.00    -0.150 NA
HETATM   19  C4  UNL     1      23.952   6.225  51.373  1.00  0.00     0.152 C 
HETATM   20  C3  UNL     1      23.304   7.187  50.427  1.00  0.00    -0.004 C 
HETATM   21  C2  UNL     1      24.131   7.393  49.417  1.00  0.00    -0.037 C 
HETATM   22  C1  UNL     1      23.876   8.293  48.239  1.00  0.00     0.048 C 
HETATM   23  C24 UNL     1      25.383   6.601  49.598  1.00  0.00     0.299 C 
HETATM   24  F1  UNL     1      26.373   7.425  50.115  1.00  0.00    -0.226 F 
ENDBRANCH  17  18
ENDBRANCH   1  17
BRANCH  15  25
HETATM   25  C17 UNL     1      22.915   2.515  49.469  1.00  0.00     0.053 C 
BRANCH  25  26
HETATM   26  C18 UNL     1      21.455   2.775  49.417  1.00  0.00    -0.057 A 
HETATM   27  C19 UNL     1      21.096   4.028  49.919  1.00  0.00     0.007 A 
HETATM   28  C20 UNL     1      19.797   4.457  49.953  1.00  0.00     0.001 A 
HETATM   29  C21 UNL     1      18.781   3.646  49.483  1.00  0.00     0.000 A 
HETATM   30  C22 UNL     1      19.140   2.399  48.984  1.00  0.00     0.001 A 
HETATM   31  C23 UNL     1      20.448   1.962  48.947  1.00  0.00     0.007 A 
ENDBRANCH  25  26
ENDBRANCH  15  25
TORSDOF 4
ENDMDL
MODEL 8
REMARK VINA RESULT:      -8.3      3.400      7.761
REMARK  4 active torsions:
REMARK  status: ('A' for Active; 'I' for Inactive)
REMARK    1  A    between atoms: N1_5  and  O1_6 
REMARK    2  A    between atoms: O1_6  and  C5_7 
REMARK    3  A    between atoms: C16_21  and  C17_22 
REMARK    4  A    between atoms: C17_22  and  C18_23 
ROOT
HETATM    1  C5  UNL     1      19.764   1.081  50.699  1.00  0.00     0.078 C 
HETATM    2  C6  UNL     1      18.777   1.536  49.898  1.00  0.00     0.036 C 
HETATM    3  C7  UNL     1      17.343   1.506  49.627  1.00  0.00     0.020 C 
HETATM    4  C8  UNL     1      16.262   0.957  50.122  1.00  0.00     0.090 C 
HETATM    5  N2  UNL     1      15.664   0.130  51.091  1.00  0.00    -0.350 N 
HETATM    6  C9  UNL     1      15.444  -1.199  51.513  1.00  0.00     0.141 A 
HETATM    7  N3  UNL     1      14.393  -1.931  51.156  1.00  0.00    -0.224 NA
HETATM    8  C10 UNL     1      14.296  -3.199  51.655  1.00  0.00     0.235 A 
HETATM    9  N4  UNL     1      15.182  -3.765  52.482  1.00  0.00    -0.246 NA
HETATM   10  C11 UNL     1      16.252  -3.057  52.863  1.00  0.00     0.046 A 
HETATM   11  C12 UNL     1      17.390  -3.394  53.771  1.00  0.00     0.071 C 
HETATM   12  C13 UNL     1      16.362  -1.779  52.365  1.00  0.00     0.034 A 
HETATM   13  C14 UNL     1      17.512  -0.952  52.696  1.00  0.00     0.014 C 
HETATM   14  C15 UNL     1      18.629  -0.456  52.226  1.00  0.00    -0.014 C 
HETATM   15  C16 UNL     1      19.912   0.187  51.875  1.00  0.00     0.071 C 
HETATM   16  H10 UNL     1      15.128   0.547  51.917  1.00  0.00     0.166 HD
ENDROOT
BRANCH   1  17
HETATM   17  O1  UNL     1      21.106   1.466  50.497  1.00  0.00    -0.262 OA
BRANCH  17  18
HETATM   18  N1  UNL     1      21.346   2.723  50.027  1.00  0.00    -0.150 NA
HETATM   19  C4  UNL     1      22.604   2.816  49.311  1.00  0.00     0.152 C 
HETATM   20  C3  UNL     1      23.589   3.290  50.334  1.00  0.00    -0.004 C 
HETATM   21  C2  UNL     1      22.916   3.752  51.373  1.00  0.00    -0.037 C 
HETATM   22  C1  UNL     1      23.515   4.326  52.627  1.00  0.00     0.048 C 
HETATM   23  C24 UNL     1      21.447   3.631  51.138  1.00  0.00     0.299 C 
HETATM   24  F1  UNL     1      20.950   4.857  50.718  1.00  0.00    -0.226 F 
ENDBRANCH  17  18
ENDBRANCH   1  17
BRANCH  15  25
HETATM   25  C17 UNL     1      20.496   0.920  53.070  1.00  0.00     0.053 C 
BRANCH  25  26
HETATM   26  C18 UNL     1      21.632   0.196  53.694  1.00  0.00    -0.057 A 
HETATM   27  C19 UNL     1      22.867   0.502  53.119  1.00  0.00     0.007 A 
HETATM   28  C20 UNL     1      24.037  -0.059  53.558  1.00  0.00     0.001 A 
HETATM   29  C21 UNL     1      24.027  -0.963  54.603  1.00  0.00     0.000 A 
HETATM   30  C22 UNL     1      22.797  -1.267  55.174  1.00  0.00     0.001 A 
HETATM   31  C23 UNL     1      21.616  -0.704  54.736  1.00  0.00     0.007 A 
ENDBRANCH  25  26
ENDBRANCH  15  25
TORSDOF 4
ENDMDL
MODEL 9
REMARK VINA RESULT:      -8.0      3.512      8.540
REMARK  4 active torsions:
REMARK  status: ('A' for Active; 'I' for Inactive)
REMARK    1  A    between atoms: N1_5  and  O1_6 
REMARK    2  A    between atoms: O1_6  and  C5_7 
REMARK    3  A    between atoms: C16_21  and  C17_22 
REMARK    4  A    between atoms: C17_22  and  C18_23 
ROOT
HETATM    1  C5  UNL     1      20.880   0.009  52.161  1.00  0.00     0.078 C 
HETATM    2  C6  UNL     1      20.367  -0.883  53.036  1.00  0.00     0.036 C 
HETATM    3  C7  UNL     1      19.142  -1.482  53.557  1.00  0.00     0.020 C 
HETATM    4  C8  UNL     1      17.850  -1.399  53.364  1.00  0.00     0.090 C 
HETATM    5  N2  UNL     1      16.768  -0.824  52.672  1.00  0.00    -0.350 N 
HETATM    6  C9  UNL     1      15.952   0.320  52.529  1.00  0.00     0.141 A 
HETATM    7  N3  UNL     1      14.813   0.510  53.188  1.00  0.00    -0.224 NA
HETATM    8  C10 UNL     1      14.112   1.656  52.938  1.00  0.00     0.235 A 
HETATM    9  N4  UNL     1      14.486   2.608  52.076  1.00  0.00    -0.246 NA
HETATM   10  C11 UNL     1      15.628   2.449  51.396  1.00  0.00     0.046 A 
HETATM   11  C12 UNL     1      16.296   3.306  50.371  1.00  0.00     0.071 C 
HETATM   12  C13 UNL     1      16.343   1.299  51.641  1.00  0.00     0.034 A 
HETATM   13  C14 UNL     1      17.614   1.063  50.974  1.00  0.00     0.014 C 
HETATM   14  C15 UNL     1      18.912   1.046  51.145  1.00  0.00    -0.014 C 
HETATM   15  C16 UNL     1      20.388   0.975  51.148  1.00  0.00     0.071 C 
HETATM   16  H10 UNL     1      16.263  -1.358  51.896  1.00  0.00     0.166 HD
ENDROOT
BRANCH   1  17
HETATM   17  O1  UNL     1      22.273   0.208  52.053  1.00  0.00    -0.262 OA
BRANCH  17  18
HETATM   18  N1  UNL     1      22.962   0.533  53.184  1.00  0.00    -0.150 NA
HETATM   19  C4  UNL     1      23.645   1.808  53.070  1.00  0.00     0.152 C 
HETATM   20  C3  UNL     1      25.033   1.457  52.635  1.00  0.00    -0.004 C 
HETATM   21  C2  UNL     1      25.215   0.163  52.836  1.00  0.00    -0.037 C 
HETATM   22  C1  UNL     1      26.471  -0.608  52.537  1.00  0.00     0.048 C 
HETATM   23  C24 UNL     1      23.983  -0.452  53.414  1.00  0.00     0.299 C 
HETATM   24  F1  UNL     1      24.137  -0.577  54.788  1.00  0.00    -0.226 F 
ENDBRANCH  17  18
ENDBRANCH   1  17
BRANCH  15  25
HETATM   25  C17 UNL     1      20.918   0.657  49.761  1.00  0.00     0.053 C 
BRANCH  25  26
HETATM   26  C18 UNL     1      21.549   1.826  49.100  1.00  0.00    -0.057 A 
HETATM   27  C19 UNL     1      20.812   2.317  48.020  1.00  0.00     0.007 A 
HETATM   28  C20 UNL     1      21.225   3.395  47.283  1.00  0.00     0.001 A 
HETATM   29  C21 UNL     1      22.407   4.040  47.593  1.00  0.00     0.000 A 
HETATM   30  C22 UNL     1      23.140   3.549  48.668  1.00  0.00     0.001 A 
HETATM   31  C23 UNL     1      22.728   2.465  49.414  1.00  0.00     0.007 A 
ENDBRANCH  25  26
ENDBRANCH  15  25
TORSDOF 4
ENDMDL
