MODEL 1
REMARK VINA RESULT:      -7.5      0.000      0.000
REMARK  4 active torsions:
REMARK  status: ('A' for Active; 'I' for Inactive)
REMARK    1  A    between atoms: N1_1  and  C1_2 
REMARK    2  A    between atoms: C6_9  and  C7_10 
REMARK    3  A    between atoms: C7_10  and  N2_11 
REMARK    4  A    between atoms: N2_11  and  C8_12 
ROOT
HETATM    1  C1  UNL     1      28.047  -1.730  53.207  1.00  0.00     0.027 C 
HETATM    2  C2  UNL     1      29.268  -1.212  53.420  1.00  0.00     0.026 C 
HETATM    3  C3  UNL     1      30.224  -0.164  53.757  1.00  0.00     0.214 C 
HETATM    4  O1  UNL     1      29.573   1.092  54.072  1.00  0.00    -0.314 OA
HETATM    5  S1  UNL     1      27.989   1.038  53.491  1.00  0.00     0.032 SA
HETATM    6  C4  UNL     1      26.636   0.967  52.978  1.00  0.00     0.245 A 
HETATM    7  C5  UNL     1      25.335   0.875  52.477  1.00  0.00     0.221 A 
HETATM    8  C6  UNL     1      25.665   2.121  52.493  1.00  0.00     0.098 A 
HETATM    9  N3  UNL     1      25.982  -0.426  52.735  1.00  0.00    -0.027 N 
HETATM   10  C13 UNL     1      26.586  -1.670  52.992  1.00  0.00     0.294 C 
HETATM   11  H13 UNL     1      26.693  -0.421  51.865  1.00  0.00     0.283 HD
ENDROOT
BRANCH   8  12
HETATM   12  C7  UNL     1      24.506   2.875  51.952  1.00  0.00     0.130 C 
BRANCH  12  13
HETATM   13  N2  UNL     1      24.376   2.700  50.526  1.00  0.00    -0.389 N 
HETATM   14  H9  UNL     1      23.797   2.080  49.969  1.00  0.00     0.159 HD
BRANCH  13  15
HETATM   15  C8  UNL     1      25.276   3.649  49.986  1.00  0.00     0.035 A 
HETATM   16  C9  UNL     1      24.563   4.776  50.296  1.00  0.00     0.076 A 
HETATM   17  S2  UNL     1      24.907   6.505  50.007  1.00  0.00    -0.113 SA
HETATM   18  C10 UNL     1      26.561   6.472  49.213  1.00  0.00     0.192 A 
HETATM   19 CL1  UNL     1      26.398   7.241  47.613  1.00  0.00    -0.107 Cl
HETATM   20  C11 UNL     1      26.960   5.080  49.066  1.00  0.00     0.042 A 
HETATM   21 CL2  UNL     1      28.506   5.091  48.287  1.00  0.00    -0.086 Cl
HETATM   22  C12 UNL     1      26.547   3.870  49.326  1.00  0.00     0.051 A 
ENDBRANCH  13  15
ENDBRANCH  12  13
ENDBRANCH   8  12
BRANCH   1  23
HETATM   23  N1  UNL     1      28.231  -3.153  52.862  1.00  0.00    -0.401 N 
HETATM   24  H1  UNL     1      28.429  -4.157  52.868  1.00  0.00     0.156 HD
HETATM   25  H2  UNL     1      28.224  -4.011  52.254  1.00  0.00     0.156 HD
ENDBRANCH   1  23
TORSDOF 4
ENDMDL
MODEL 2
REMARK VINA RESULT:      -7.4      5.430      6.481
REMARK  4 active torsions:
REMARK  status: ('A' for Active; 'I' for Inactive)
REMARK    1  A    between atoms: N1_1  and  C1_2 
REMARK    2  A    between atoms: C6_9  and  C7_10 
REMARK    3  A    between atoms: C7_10  and  N2_11 
REMARK    4  A    between atoms: N2_11  and  C8_12 
ROOT
HETATM    1  C1  UNL     1      28.594   1.315  53.607  1.00  0.00     0.027 C 
HETATM    2  C2  UNL     1      29.367   0.224  53.739  1.00  0.00     0.026 C 
HETATM    3  C3  UNL     1      29.678  -1.199  53.664  1.00  0.00     0.214 C 
HETATM    4  O1  UNL     1      28.569  -1.975  53.148  1.00  0.00    -0.314 OA
HETATM    5  S1  UNL     1      27.164  -1.046  53.256  1.00  0.00     0.032 SA
HETATM    6  C4  UNL     1      25.972  -0.229  53.365  1.00  0.00     0.245 A 
HETATM    7  C5  UNL     1      24.838   0.578  53.477  1.00  0.00     0.221 A 
HETATM    8  C6  UNL     1      24.454  -0.652  53.526  1.00  0.00     0.098 A 
HETATM    9  N3  UNL     1      26.112   1.321  53.443  1.00  0.00    -0.027 N 
HETATM   10  C13 UNL     1      27.322   2.037  53.397  1.00  0.00     0.294 C 
HETATM   11  H13 UNL     1      26.466   1.068  54.479  1.00  0.00     0.283 HD
ENDROOT
BRANCH   8  12
HETATM   12  C7  UNL     1      22.980  -0.631  53.699  1.00  0.00     0.130 C 
BRANCH  12  13
HETATM   13  N2  UNL     1      22.411   0.623  53.269  1.00  0.00    -0.389 N 
HETATM   14  H9  UNL     1      22.808   1.553  53.183  1.00  0.00     0.159 HD
BRANCH  13  15
HETATM   15  C8  UNL     1      21.074   0.293  52.944  1.00  0.00     0.035 A 
HETATM   16  C9  UNL     1      21.036   0.882  51.708  1.00  0.00     0.076 A 
HETATM   17  S2  UNL     1      19.727   0.993  50.497  1.00  0.00    -0.113 SA
HETATM   18  C10 UNL     1      18.367   0.031  51.264  1.00  0.00     0.192 A 
HETATM   19 CL1  UNL     1      16.972   1.128  51.437  1.00  0.00    -0.107 Cl
HETATM   20  C11 UNL     1      18.819  -0.420  52.572  1.00  0.00     0.042 A 
HETATM   21 CL2  UNL     1      17.501  -1.294  53.275  1.00  0.00    -0.086 Cl
HETATM   22  C12 UNL     1      19.862  -0.385  53.356  1.00  0.00     0.051 A 
ENDBRANCH  13  15
ENDBRANCH  12  13
ENDBRANCH   8  12
BRANCH   1  23
HETATM   23  N1  UNL     1      29.405   2.476  54.023  1.00  0.00    -0.401 N 
HETATM   24  H1  UNL     1      29.871   3.225  54.543  1.00  0.00     0.156 HD
HETATM   25  H2  UNL     1      30.069   3.283  53.912  1.00  0.00     0.156 HD
ENDBRANCH   1  23
TORSDOF 4
ENDMDL
MODEL 3
REMARK VINA RESULT:      -7.2      2.057      2.530
REMARK  4 active torsions:
REMARK  status: ('A' for Active; 'I' for Inactive)
REMARK    1  A    between atoms: N1_1  and  C1_2 
REMARK    2  A    between atoms: C6_9  and  C7_10 
REMARK    3  A    between atoms: C7_10  and  N2_11 
REMARK    4  A    between atoms: N2_11  and  C8_12 
ROOT
HETATM    1  C1  UNL     1      26.085   0.114  54.424  1.00  0.00     0.027 C 
HETATM    2  C2  UNL     1      27.370   0.147  54.816  1.00  0.00     0.026 C 
HETATM    3  C3  UNL     1      28.720   0.692  54.892  1.00  0.00     0.214 C 
HETATM    4  O1  UNL     1      28.855   1.928  54.147  1.00  0.00    -0.314 OA
HETATM    5  S1  UNL     1      27.554   2.058  53.080  1.00  0.00     0.032 SA
HETATM    6  C4  UNL     1      26.429   2.143  52.170  1.00  0.00     0.245 A 
HETATM    7  C5  UNL     1      25.336   2.204  51.303  1.00  0.00     0.221 A 
HETATM    8  C6  UNL     1      26.300   2.875  50.771  1.00  0.00     0.098 A 
HETATM    9  N3  UNL     1      25.131   1.340  52.481  1.00  0.00    -0.027 N 
HETATM   10  C13 UNL     1      24.922   0.525  53.609  1.00  0.00     0.294 C 
HETATM   11  H13 UNL     1      25.785   0.484  52.160  1.00  0.00     0.283 HD
ENDROOT
BRANCH   8  12
HETATM   12  C7  UNL     1      25.796   3.385  49.471  1.00  0.00     0.130 C 
BRANCH  12  13
HETATM   13  N2  UNL     1      25.588   4.811  49.503  1.00  0.00    -0.389 N 
HETATM   14  H9  UNL     1      24.805   5.375  49.817  1.00  0.00     0.159 HD
BRANCH  13  15
HETATM   15  C8  UNL     1      26.791   5.341  48.979  1.00  0.00     0.035 A 
HETATM   16  C9  UNL     1      26.432   6.662  48.995  1.00  0.00     0.076 A 
HETATM   17  S2  UNL     1      27.325   8.131  48.508  1.00  0.00    -0.113 SA
HETATM   18  C10 UNL     1      28.964   7.476  48.008  1.00  0.00     0.192 A 
HETATM   19 CL1  UNL     1      29.223   7.935  46.306  1.00  0.00    -0.107 Cl
HETATM   20  C11 UNL     1      28.925   6.027  48.140  1.00  0.00     0.042 A 
HETATM   21 CL2  UNL     1      30.474   5.445  47.630  1.00  0.00    -0.086 Cl
HETATM   22  C12 UNL     1      28.132   5.058  48.509  1.00  0.00     0.051 A 
ENDBRANCH  13  15
ENDBRANCH  12  13
ENDBRANCH   8  12
BRANCH   1  23
HETATM   23  N1  UNL     1      25.472  -1.080  55.038  1.00  0.00    -0.401 N 
HETATM   24  H1  UNL     1      24.894  -1.896  55.259  1.00  0.00     0.156 HD
HETATM   25  H2  UNL     1      25.342  -1.847  55.745  1.00  0.00     0.156 HD
ENDBRANCH   1  23
TORSDOF 4
ENDMDL
MODEL 4
REMARK VINA RESULT:      -7.0      3.706      4.293
REMARK  4 active torsions:
REMARK  status: ('A' for Active; 'I' for Inactive)
REMARK    1  A    between atoms: N1_1  and  C1_2 
REMARK    2  A    between atoms: C6_9  and  C7_10 
REMARK    3  A    between atoms: C7_10  and  N2_11 
REMARK    4  A    between atoms: N2_11  and  C8_12 
ROOT
HETATM    1  C1  UNL     1      28.712   1.219  53.804  1.00  0.00     0.027 C 
HETATM    2  C2  UNL     1      29.298   0.010  53.839  1.00  0.00     0.026 C 
HETATM    3  C3  UNL     1      29.385  -1.429  53.617  1.00  0.00     0.214 C 
HETATM    4  O1  UNL     1      28.194  -1.959  52.984  1.00  0.00    -0.314 OA
HETATM    5  S1  UNL     1      26.949  -0.832  53.150  1.00  0.00     0.032 SA
HETATM    6  C4  UNL     1      25.896   0.150  53.310  1.00  0.00     0.245 A 
HETATM    7  C5  UNL     1      24.898   1.113  53.475  1.00  0.00     0.221 A 
HETATM    8  C6  UNL     1      24.325  -0.037  53.376  1.00  0.00     0.098 A 
HETATM    9  N3  UNL     1      26.273   1.641  53.563  1.00  0.00    -0.027 N 
HETATM   10  C13 UNL     1      27.581   2.154  53.635  1.00  0.00     0.294 C 
HETATM   11  H13 UNL     1      26.532   1.228  54.576  1.00  0.00     0.283 HD
ENDROOT
BRANCH   8  12
HETATM   12  C7  UNL     1      22.865   0.202  53.503  1.00  0.00     0.130 C 
BRANCH  12  13
HETATM   13  N2  UNL     1      22.146  -0.260  52.341  1.00  0.00    -0.389 N 
HETATM   14  H9  UNL     1      21.761  -1.168  52.100  1.00  0.00     0.159 HD
BRANCH  13  15
HETATM   15  C8  UNL     1      22.049   0.890  51.523  1.00  0.00     0.035 A 
HETATM   16  C9  UNL     1      21.126   1.570  52.271  1.00  0.00     0.076 A 
HETATM   17  S2  UNL     1      20.364   3.168  52.033  1.00  0.00    -0.113 SA
HETATM   18  C10 UNL     1      21.174   3.793  50.510  1.00  0.00     0.192 A 
HETATM   19 CL1  UNL     1      19.891   4.088  49.308  1.00  0.00    -0.107 Cl
HETATM   20  C11 UNL     1      22.085   2.763  50.033  1.00  0.00     0.042 A 
HETATM   21 CL2  UNL     1      22.804   3.376  48.583  1.00  0.00    -0.086 Cl
HETATM   22  C12 UNL     1      22.525   1.572  50.337  1.00  0.00     0.051 A 
ENDBRANCH  13  15
ENDBRANCH  12  13
ENDBRANCH   8  12
BRANCH   1  23
HETATM   23  N1  UNL     1      29.673   2.185  54.371  1.00  0.00    -0.401 N 
HETATM   24  H1  UNL     1      30.206   3.022  54.623  1.00  0.00     0.156 HD
HETATM   25  H2  UNL     1      30.479   2.519  54.958  1.00  0.00     0.156 HD
ENDBRANCH   1  23
TORSDOF 4
ENDMDL
MODEL 5
REMARK VINA RESULT:      -6.9      2.061      2.437
REMARK  4 active torsions:
REMARK  status: ('A' for Active; 'I' for Inactive)
REMARK    1  A    between atoms: N1_1  and  C1_2 
REMARK    2  A    between atoms: C6_9  and  C7_10 
REMARK    3  A    between atoms: C7_10  and  N2_11 
REMARK    4  A    between atoms: N2_11  and  C8_12 
ROOT
HETATM    1  C1  UNL     1      27.150  -0.858  53.309  1.00  0.00     0.027 C 
HETATM    2  C2  UNL     1      28.375  -0.339  53.494  1.00  0.00     0.026 C 
HETATM    3  C3  UNL     1      29.337   0.692  53.864  1.00  0.00     0.214 C 
HETATM    4  O1  UNL     1      28.691   1.904  54.325  1.00  0.00    -0.314 OA
HETATM    5  S1  UNL     1      27.077   1.874  53.835  1.00  0.00     0.032 SA
HETATM    6  C4  UNL     1      25.696   1.824  53.398  1.00  0.00     0.245 A 
HETATM    7  C5  UNL     1      24.369   1.754  52.969  1.00  0.00     0.221 A 
HETATM    8  C6  UNL     1      24.684   2.999  53.074  1.00  0.00     0.098 A 
HETATM    9  N3  UNL     1      25.045   0.447  53.074  1.00  0.00    -0.027 N 
HETATM   10  C13 UNL     1      25.678  -0.805  53.185  1.00  0.00     0.294 C 
HETATM   11  H13 UNL     1      25.702   0.539  52.167  1.00  0.00     0.283 HD
ENDROOT
BRANCH   8  12
HETATM   12  C7  UNL     1      23.486   3.777  52.669  1.00  0.00     0.130 C 
BRANCH  12  13
HETATM   13  N2  UNL     1      23.700   5.196  52.810  1.00  0.00    -0.389 N 
HETATM   14  H9  UNL     1      23.802   5.789  53.628  1.00  0.00     0.159 HD
BRANCH  13  15
HETATM   15  C8  UNL     1      23.762   5.663  51.476  1.00  0.00     0.035 A 
HETATM   16  C9  UNL     1      22.415   5.699  51.231  1.00  0.00     0.076 A 
HETATM   17  S2  UNL     1      21.495   6.175  49.776  1.00  0.00    -0.113 SA
HETATM   18  C10 UNL     1      22.807   6.710  48.610  1.00  0.00     0.192 A 
HETATM   19 CL1  UNL     1      22.682   5.682  47.160  1.00  0.00    -0.107 Cl
HETATM   20  C11 UNL     1      24.093   6.511  49.262  1.00  0.00     0.042 A 
HETATM   21 CL2  UNL     1      25.302   6.997  48.123  1.00  0.00    -0.086 Cl
HETATM   22  C12 UNL     1      24.612   6.104  50.388  1.00  0.00     0.051 A 
ENDBRANCH  13  15
ENDBRANCH  12  13
ENDBRANCH   8  12
BRANCH   1  23
HETATM   23  N1  UNL     1      27.330  -2.243  52.830  1.00  0.00    -0.401 N 
HETATM   24  H1  UNL     1      27.632  -3.094  52.349  1.00  0.00     0.156 HD
HETATM   25  H2  UNL     1      27.164  -3.279  52.780  1.00  0.00     0.156 HD
ENDBRANCH   1  23
TORSDOF 4
ENDMDL
MODEL 6
REMARK VINA RESULT:      -6.9      4.133      8.132
REMARK  4 active torsions:
REMARK  status: ('A' for Active; 'I' for Inactive)
REMARK    1  A    between atoms: N1_1  and  C1_2 
REMARK    2  A    between atoms: C6_9  and  C7_10 
REMARK    3  A    between atoms: C7_10  and  N2_11 
REMARK    4  A    between atoms: N2_11  and  C8_12 
ROOT
HETATM    1  C1  UNL     1      25.238   8.149  48.200  1.00  0.00     0.027 C 
HETATM    2  C2  UNL     1      26.424   8.772  48.102  1.00  0.00     0.026 C 
HETATM    3  C3  UNL     1      27.875   8.851  47.983  1.00  0.00     0.214 C 
HETATM    4  O1  UNL     1      28.492   7.541  47.917  1.00  0.00    -0.314 OA
HETATM    5  S1  UNL     1      27.382   6.395  48.466  1.00  0.00     0.032 SA
HETATM    6  C4  UNL     1      26.412   5.432  48.947  1.00  0.00     0.245 A 
HETATM    7  C5  UNL     1      25.459   4.521  49.411  1.00  0.00     0.221 A 
HETATM    8  C6  UNL     1      26.626   4.025  49.642  1.00  0.00     0.098 A 
HETATM    9  N3  UNL     1      24.895   5.788  48.907  1.00  0.00    -0.027 N 
HETATM   10  C13 UNL     1      24.349   6.987  48.414  1.00  0.00     0.294 C 
HETATM   11  H13 UNL     1      25.200   6.446  49.765  1.00  0.00     0.283 HD
ENDROOT
BRANCH   8  12
HETATM   12  C7  UNL     1      26.407   2.719  50.314  1.00  0.00     0.130 C 
BRANCH  12  13
HETATM   13  N2  UNL     1      26.401   2.853  51.750  1.00  0.00    -0.389 N 
HETATM   14  H9  UNL     1      26.129   3.619  52.358  1.00  0.00     0.159 HD
BRANCH  13  15
HETATM   15  C8  UNL     1      26.873   1.600  52.208  1.00  0.00     0.035 A 
HETATM   16  C9  UNL     1      27.813   2.068  53.087  1.00  0.00     0.076 A 
HETATM   17  S2  UNL     1      28.947   1.209  54.168  1.00  0.00    -0.113 SA
HETATM   18  C10 UNL     1      28.524  -0.555  53.896  1.00  0.00     0.192 A 
HETATM   19 CL1  UNL     1      29.996  -1.371  53.309  1.00  0.00    -0.107 Cl
HETATM   20  C11 UNL     1      27.477  -0.615  52.887  1.00  0.00     0.042 A 
HETATM   21 CL2  UNL     1      27.129  -2.292  52.637  1.00  0.00    -0.086 Cl
HETATM   22  C12 UNL     1      26.738   0.159  52.139  1.00  0.00     0.051 A 
ENDBRANCH  13  15
ENDBRANCH  12  13
ENDBRANCH   8  12
BRANCH   1  23
HETATM   23  N1  UNL     1      24.199   9.195  48.261  1.00  0.00    -0.401 N 
HETATM   24  H1  UNL     1      23.389   9.799  48.096  1.00  0.00     0.156 HD
HETATM   25  H2  UNL     1      23.693  10.037  48.635  1.00  0.00     0.156 HD
ENDBRANCH   1  23
TORSDOF 4
ENDMDL
MODEL 7
REMARK VINA RESULT:      -6.8      2.589      3.224
REMARK  4 active torsions:
REMARK  status: ('A' for Active; 'I' for Inactive)
REMARK    1  A    between atoms: N1_1  and  C1_2 
REMARK    2  A    between atoms: C6_9  and  C7_10 
REMARK    3  A    between atoms: C7_10  and  N2_11 
REMARK    4  A    between atoms: N2_11  and  C8_12 
ROOT
HETATM    1  C1  UNL     1      26.039   0.131  54.324  1.00  0.00     0.027 C 
HETATM    2  C2  UNL     1      27.296   0.044  54.789  1.00  0.00     0.026 C 
HETATM    3  C3  UNL     1      28.679   0.472  54.961  1.00  0.00     0.214 C 
HETATM    4  O1  UNL     1      28.958   1.715  54.272  1.00  0.00    -0.314 OA
HETATM    5  S1  UNL     1      27.738   1.988  53.138  1.00  0.00     0.032 SA
HETATM    6  C4  UNL     1      26.680   2.196  52.170  1.00  0.00     0.245 A 
HETATM    7  C5  UNL     1      25.649   2.377  51.245  1.00  0.00     0.221 A 
HETATM    8  C6  UNL     1      26.694   2.982  50.794  1.00  0.00     0.098 A 
HETATM    9  N3  UNL     1      25.305   1.495  52.377  1.00  0.00    -0.027 N 
HETATM   10  C13 UNL     1      24.964   0.664  53.460  1.00  0.00     0.294 C 
HETATM   11  H13 UNL     1      25.905   0.598  52.062  1.00  0.00     0.283 HD
ENDROOT
BRANCH   8  12
HETATM   12  C7  UNL     1      26.312   3.573  49.488  1.00  0.00     0.130 C 
BRANCH  12  13
HETATM   13  N2  UNL     1      26.567   4.993  49.450  1.00  0.00    -0.389 N 
HETATM   14  H9  UNL     1      27.427   5.529  49.510  1.00  0.00     0.159 HD
BRANCH  13  15
HETATM   15  C8  UNL     1      25.282   5.563  49.286  1.00  0.00     0.035 A 
HETATM   16  C9  UNL     1      25.462   6.655  50.091  1.00  0.00     0.076 A 
HETATM   17  S2  UNL     1      24.363   7.998  50.518  1.00  0.00    -0.113 SA
HETATM   18  C10 UNL     1      22.857   7.631  49.536  1.00  0.00     0.192 A 
HETATM   19 CL1  UNL     1      21.505   7.453  50.683  1.00  0.00    -0.107 Cl
HETATM   20  C11 UNL     1      23.082   6.383  48.822  1.00  0.00     0.042 A 
HETATM   21 CL2  UNL     1      21.632   6.056  47.935  1.00  0.00    -0.086 Cl
HETATM   22  C12 UNL     1      23.991   5.465  48.636  1.00  0.00     0.051 A 
ENDBRANCH  13  15
ENDBRANCH  12  13
ENDBRANCH   8  12
BRANCH   1  23
HETATM   23  N1  UNL     1      25.295  -1.027  54.857  1.00  0.00    -0.401 N 
HETATM   24  H1  UNL     1      25.014  -1.932  55.244  1.00  0.00     0.156 HD
HETATM   25  H2  UNL     1      24.458  -1.579  55.171  1.00  0.00     0.156 HD
ENDBRANCH   1  23
TORSDOF 4
ENDMDL
MODEL 8
REMARK VINA RESULT:      -6.7      4.632      7.736
REMARK  4 active torsions:
REMARK  status: ('A' for Active; 'I' for Inactive)
REMARK    1  A    between atoms: N1_1  and  C1_2 
REMARK    2  A    between atoms: C6_9  and  C7_10 
REMARK    3  A    between atoms: C7_10  and  N2_11 
REMARK    4  A    between atoms: N2_11  and  C8_12 
ROOT
HETATM    1  C1  UNL     1      29.769   8.782  49.071  1.00  0.00     0.027 C 
HETATM    2  C2  UNL     1      30.911   8.246  48.610  1.00  0.00     0.026 C 
HETATM    3  C3  UNL     1      31.724   7.268  47.895  1.00  0.00     0.214 C 
HETATM    4  O1  UNL     1      30.920   6.232  47.279  1.00  0.00    -0.314 OA
HETATM    5  S1  UNL     1      29.387   6.249  47.985  1.00  0.00     0.032 SA
HETATM    6  C4  UNL     1      28.080   6.282  48.610  1.00  0.00     0.245 A 
HETATM    7  C5  UNL     1      26.827   6.334  49.226  1.00  0.00     0.221 A 
HETATM    8  C6  UNL     1      27.014   5.128  48.812  1.00  0.00     0.098 A 
HETATM    9  N3  UNL     1      27.600   7.588  49.311  1.00  0.00    -0.027 N 
HETATM   10  C13 UNL     1      28.324   8.792  49.384  1.00  0.00     0.294 C 
HETATM   11  H13 UNL     1      28.353   7.254  50.075  1.00  0.00     0.283 HD
ENDROOT
BRANCH   8  12
HETATM   12  C7  UNL     1      25.810   4.353  49.202  1.00  0.00     0.130 C 
BRANCH  12  13
HETATM   13  N2  UNL     1      25.489   4.534  50.597  1.00  0.00    -0.389 N 
HETATM   14  H9  UNL     1      25.264   5.363  51.138  1.00  0.00     0.159 HD
BRANCH  13  15
HETATM   15  C8  UNL     1      25.531   3.223  51.127  1.00  0.00     0.035 A 
HETATM   16  C9  UNL     1      24.306   3.233  51.738  1.00  0.00     0.076 A 
HETATM   17  S2  UNL     1      23.454   1.983  52.689  1.00  0.00    -0.113 SA
HETATM   18  C10 UNL     1      24.603   0.554  52.622  1.00  0.00     0.192 A 
HETATM   19 CL1  UNL     1      25.040   0.144  54.300  1.00  0.00    -0.107 Cl
HETATM   20  C11 UNL     1      25.785   0.964  51.878  1.00  0.00     0.042 A 
HETATM   21 CL2  UNL     1      26.854  -0.396  51.864  1.00  0.00    -0.086 Cl
HETATM   22  C12 UNL     1      26.280   1.987  51.236  1.00  0.00     0.051 A 
ENDBRANCH  13  15
ENDBRANCH  12  13
ENDBRANCH   8  12
BRANCH   1  23
HETATM   23  N1  UNL     1      30.130  10.010  49.806  1.00  0.00    -0.401 N 
HETATM   24  H1  UNL     1      30.306  10.975  50.099  1.00  0.00     0.156 HD
HETATM   25  H2  UNL     1      30.465  10.591  50.616  1.00  0.00     0.156 HD
ENDBRANCH   1  23
TORSDOF 4
ENDMDL
MODEL 9
REMARK VINA RESULT:      -6.7      3.013      3.796
REMARK  4 active torsions:
REMARK  status: ('A' for Active; 'I' for Inactive)
REMARK    1  A    between atoms: N1_1  and  C1_2 
REMARK    2  A    between atoms: C6_9  and  C7_10 
REMARK    3  A    between atoms: C7_10  and  N2_11 
REMARK    4  A    between atoms: N2_11  and  C8_12 
ROOT
HETATM    1  C1  UNL     1      24.029  -1.011  54.871  1.00  0.00     0.027 C 
HETATM    2  C2  UNL     1      22.698  -0.890  55.000  1.00  0.00     0.026 C 
HETATM    3  C3  UNL     1      21.349  -0.541  54.569  1.00  0.00     0.214 C 
HETATM    4  O1  UNL     1      21.324  -0.018  53.218  1.00  0.00    -0.314 OA
HETATM    5  S1  UNL     1      22.890   0.442  52.789  1.00  0.00     0.032 SA
HETATM    6  C4  UNL     1      24.243   0.833  52.448  1.00  0.00     0.245 A 
HETATM    7  C5  UNL     1      25.555   1.200  52.141  1.00  0.00     0.221 A 
HETATM    8  C6  UNL     1      24.764   1.936  51.437  1.00  0.00     0.098 A 
HETATM    9  N3  UNL     1      25.440   0.194  53.214  1.00  0.00    -0.027 N 
HETATM   10  C13 UNL     1      25.340  -0.776  54.228  1.00  0.00     0.294 C 
HETATM   11  H13 UNL     1      25.066   0.876  54.025  1.00  0.00     0.283 HD
ENDROOT
BRANCH   8  12
HETATM   12  C7  UNL     1      25.626   2.845  50.641  1.00  0.00     0.130 C 
BRANCH  12  13
HETATM   13  N2  UNL     1      24.946   4.076  50.318  1.00  0.00    -0.389 N 
HETATM   14  H9  UNL     1      23.998   4.393  50.492  1.00  0.00     0.159 HD
BRANCH  13  15
HETATM   15  C8  UNL     1      25.936   4.847  49.663  1.00  0.00     0.035 A 
HETATM   16  C9  UNL     1      25.374   6.079  49.867  1.00  0.00     0.076 A 
HETATM   17  S2  UNL     1      25.915   7.713  49.391  1.00  0.00    -0.113 SA
HETATM   18  C10 UNL     1      27.525   7.397  48.571  1.00  0.00     0.192 A 
HETATM   19 CL1  UNL     1      27.403   8.013  46.903  1.00  0.00    -0.107 Cl
HETATM   20  C11 UNL     1      27.748   5.958  48.563  1.00  0.00     0.042 A 
HETATM   21 CL2  UNL     1      29.257   5.699  47.756  1.00  0.00    -0.086 Cl
HETATM   22  C12 UNL     1      27.202   4.841  48.958  1.00  0.00     0.051 A 
ENDBRANCH  13  15
ENDBRANCH  12  13
ENDBRANCH   8  12
BRANCH   1  23
HETATM   23  N1  UNL     1      24.537  -1.602  56.124  1.00  0.00    -0.401 N 
HETATM   24  H1  UNL     1      24.721  -1.851  57.100  1.00  0.00     0.156 HD
HETATM   25  H2  UNL     1      25.117  -2.234  56.732  1.00  0.00     0.156 HD
ENDBRANCH   1  23
TORSDOF 4
ENDMDL
