MODEL 1
REMARK VINA RESULT:      -7.8      0.000      0.000
REMARK  8 active torsions:
REMARK  status: ('A' for Active; 'I' for Inactive)
REMARK    1  A    between atoms: O1_1  and  N1_2 
REMARK    2  A    between atoms: N1_2  and  C1_3 
REMARK    3  A    between atoms: N1_2  and  C14_20 
REMARK    4  A    between atoms: C1_3  and  N2_4 
REMARK    5  A    between atoms: C2_5  and  C3_6 
REMARK    6  A    between atoms: C3_6  and  C4_7 
REMARK    7  A    between atoms: C7_11  and  N4_12 
REMARK    8  A    between atoms: N4_12  and  C8_13 
ROOT
HETATM    1  C4  UNL     1      24.256   3.468  50.689  1.00  0.00     0.059 A 
HETATM    2  C5  UNL     1      25.051   3.577  49.549  1.00  0.00     0.048 A 
HETATM    3  C6  UNL     1      26.379   3.238  49.663  1.00  0.00     0.138 A 
HETATM    4  N3  UNL     1      26.896   2.814  50.834  1.00  0.00    -0.075 NA
HETATM    5  C7  UNL     1      26.125   2.709  51.935  1.00  0.00     0.727 A 
HETATM    6  N5  UNL     1      24.835   3.039  51.827  1.00  0.00    -0.067 NA
ENDROOT
BRANCH   1   7
HETATM    7  C3  UNL     1      22.803   3.830  50.600  1.00  0.00     0.106 C 
BRANCH   7   8
HETATM    8  C2  UNL     1      22.294   4.249  51.950  1.00  0.00     0.091 C 
HETATM    9  N2  UNL     1      21.189   3.755  52.368  1.00  0.00    -0.283 NA
BRANCH   9  10
HETATM   10  C1  UNL     1      20.516   2.826  51.504  1.00  0.00     0.303 C 
BRANCH  10  11
HETATM   11  N1  UNL     1      20.289   1.556  52.177  1.00  0.00    -0.241 N 
BRANCH  11  12
HETATM   12  O1  UNL     1      18.993   1.184  51.938  1.00  0.00    -0.286 OA
HETATM   13  H1  UNL     1      18.564   1.877  51.349  1.00  0.00     0.245 HD
ENDBRANCH  11  12
BRANCH  11  14
HETATM   14  C14 UNL     1      21.124   0.717  52.970  1.00  0.00     0.059 A 
HETATM   15  C15 UNL     1      20.682   0.284  54.215  1.00  0.00     0.031 A 
HETATM   16  C16 UNL     1      21.585  -0.520  54.877  1.00  0.00     0.002 A 
HETATM   17  C17 UNL     1      22.822  -0.931  54.468  1.00  0.00     0.000 A 
HETATM   18  C18 UNL     1      23.202  -0.459  53.208  1.00  0.00     0.002 A 
HETATM   19  C19 UNL     1      22.357   0.356  52.470  1.00  0.00     0.031 A 
ENDBRANCH  11  14
ENDBRANCH  10  11
ENDBRANCH   9  10
ENDBRANCH   7   8
ENDBRANCH   1   7
BRANCH   5  20
HETATM   20  N4  UNL     1      26.691   2.260  53.162  1.00  0.00    -0.188 N 
HETATM   21  H9  UNL     1      26.483   2.880  54.000  1.00  0.00     0.184 HD
BRANCH  20  22
HETATM   22  C8  UNL     1      27.457   1.085  53.216  1.00  0.00     0.049 A 
HETATM   23  C9  UNL     1      28.763   1.220  53.638  1.00  0.00     0.030 A 
HETATM   24  C10 UNL     1      29.534   0.061  53.696  1.00  0.00     0.002 A 
HETATM   25  C11 UNL     1      28.995  -1.173  53.341  1.00  0.00     0.000 A 
HETATM   26  C12 UNL     1      27.672  -1.258  52.922  1.00  0.00     0.002 A 
HETATM   27  C13 UNL     1      26.877  -0.116  52.854  1.00  0.00     0.030 A 
ENDBRANCH  20  22
ENDBRANCH   5  20
TORSDOF 8
ENDMDL
MODEL 2
REMARK VINA RESULT:      -7.7      2.168      5.031
REMARK  8 active torsions:
REMARK  status: ('A' for Active; 'I' for Inactive)
REMARK    1  A    between atoms: O1_1  and  N1_2 
REMARK    2  A    between atoms: N1_2  and  C1_3 
REMARK    3  A    between atoms: N1_2  and  C14_20 
REMARK    4  A    between atoms: C1_3  and  N2_4 
REMARK    5  A    between atoms: C2_5  and  C3_6 
REMARK    6  A    between atoms: C3_6  and  C4_7 
REMARK    7  A    between atoms: C7_11  and  N4_12 
REMARK    8  A    between atoms: N4_12  and  C8_13 
ROOT
HETATM    1  C4  UNL     1      22.845   1.274  52.150  1.00  0.00     0.059 A 
HETATM    2  C5  UNL     1      22.349   0.473  53.176  1.00  0.00     0.048 A 
HETATM    3  C6  UNL     1      23.221  -0.403  53.779  1.00  0.00     0.138 A 
HETATM    4  N3  UNL     1      24.510  -0.486  53.393  1.00  0.00    -0.075 NA
HETATM    5  C7  UNL     1      24.988   0.291  52.399  1.00  0.00     0.727 A 
HETATM    6  N5  UNL     1      24.142   1.142  51.812  1.00  0.00    -0.067 NA
ENDROOT
BRANCH   1   7
HETATM    7  C3  UNL     1      21.921   2.241  51.470  1.00  0.00     0.106 C 
BRANCH   7   8
HETATM    8  C2  UNL     1      21.563   3.358  52.408  1.00  0.00     0.091 C 
HETATM    9  N2  UNL     1      21.872   4.556  52.080  1.00  0.00    -0.283 NA
BRANCH   9  10
HETATM   10  C1  UNL     1      22.547   4.741  50.825  1.00  0.00     0.303 C 
BRANCH  10  11
HETATM   11  N1  UNL     1      23.916   5.190  51.029  1.00  0.00    -0.241 N 
BRANCH  11  12
HETATM   12  O1  UNL     1      23.973   5.810  52.248  1.00  0.00    -0.286 OA
HETATM   13  H1  UNL     1      24.795   5.493  52.731  1.00  0.00     0.245 HD
ENDBRANCH  11  12
BRANCH  11  14
HETATM   14  C14 UNL     1      25.095   5.095  50.235  1.00  0.00     0.059 A 
HETATM   15  C15 UNL     1      25.598   6.230  49.609  1.00  0.00     0.031 A 
HETATM   16  C16 UNL     1      26.741   5.999  48.874  1.00  0.00     0.002 A 
HETATM   17  C17 UNL     1      27.417   4.827  48.693  1.00  0.00     0.000 A 
HETATM   18  C18 UNL     1      26.857   3.727  49.351  1.00  0.00     0.002 A 
HETATM   19  C19 UNL     1      25.707   3.866  50.113  1.00  0.00     0.031 A 
ENDBRANCH  11  14
ENDBRANCH  10  11
ENDBRANCH   9  10
ENDBRANCH   7   8
ENDBRANCH   1   7
BRANCH   5  20
HETATM   20  N4  UNL     1      26.352   0.187  52.008  1.00  0.00    -0.188 N 
HETATM   21  H9  UNL     1      26.510  -0.282  51.066  1.00  0.00     0.184 HD
BRANCH  20  22
HETATM   22  C8  UNL     1      27.380   0.679  52.829  1.00  0.00     0.049 A 
HETATM   23  C9  UNL     1      28.070  -0.252  53.576  1.00  0.00     0.030 A 
HETATM   24  C10 UNL     1      29.092   0.224  54.395  1.00  0.00     0.002 A 
HETATM   25  C11 UNL     1      29.391   1.583  54.445  1.00  0.00     0.000 A 
HETATM   26  C12 UNL     1      28.666   2.483  53.673  1.00  0.00     0.002 A 
HETATM   27  C13 UNL     1      27.639   2.036  52.844  1.00  0.00     0.030 A 
ENDBRANCH  20  22
ENDBRANCH   5  20
TORSDOF 8
ENDMDL
MODEL 3
REMARK VINA RESULT:      -7.6      2.152      5.827
REMARK  8 active torsions:
REMARK  status: ('A' for Active; 'I' for Inactive)
REMARK    1  A    between atoms: O1_1  and  N1_2 
REMARK    2  A    between atoms: N1_2  and  C1_3 
REMARK    3  A    between atoms: N1_2  and  C14_20 
REMARK    4  A    between atoms: C1_3  and  N2_4 
REMARK    5  A    between atoms: C2_5  and  C3_6 
REMARK    6  A    between atoms: C3_6  and  C4_7 
REMARK    7  A    between atoms: C7_11  and  N4_12 
REMARK    8  A    between atoms: N4_12  and  C8_13 
ROOT
HETATM    1  C4  UNL     1      23.875   3.233  50.191  1.00  0.00     0.059 A 
HETATM    2  C5  UNL     1      23.473   2.931  48.892  1.00  0.00     0.048 A 
HETATM    3  C6  UNL     1      22.305   2.222  48.736  1.00  0.00     0.138 A 
HETATM    4  N3  UNL     1      21.575   1.830  49.799  1.00  0.00    -0.075 NA
HETATM    5  C7  UNL     1      21.967   2.123  51.055  1.00  0.00     0.727 A 
HETATM    6  N5  UNL     1      23.101   2.812  51.210  1.00  0.00    -0.067 NA
ENDROOT
BRANCH   1   7
HETATM    7  C3  UNL     1      25.145   4.006  50.399  1.00  0.00     0.106 C 
BRANCH   7   8
HETATM    8  C2  UNL     1      26.324   3.188  49.955  1.00  0.00     0.091 C 
HETATM    9  N2  UNL     1      26.972   2.520  50.833  1.00  0.00    -0.283 NA
BRANCH   9  10
HETATM   10  C1  UNL     1      26.515   2.605  52.193  1.00  0.00     0.303 C 
BRANCH  10  11
HETATM   11  N1  UNL     1      27.448   1.954  53.099  1.00  0.00    -0.241 N 
BRANCH  11  12
HETATM   12  O1  UNL     1      27.820   2.872  54.044  1.00  0.00    -0.286 OA
HETATM   13  H1  UNL     1      28.245   3.656  53.579  1.00  0.00     0.245 HD
ENDBRANCH  11  12
BRANCH  11  14
HETATM   14  C14 UNL     1      27.986   0.635  53.155  1.00  0.00     0.059 A 
HETATM   15  C15 UNL     1      27.182  -0.451  52.828  1.00  0.00     0.031 A 
HETATM   16  C16 UNL     1      27.825  -1.667  52.923  1.00  0.00     0.002 A 
HETATM   17  C17 UNL     1      29.115  -1.924  53.287  1.00  0.00     0.000 A 
HETATM   18  C18 UNL     1      29.866  -0.787  53.602  1.00  0.00     0.002 A 
HETATM   19  C19 UNL     1      29.302   0.478  53.535  1.00  0.00     0.031 A 
ENDBRANCH  11  14
ENDBRANCH  10  11
ENDBRANCH   9  10
ENDBRANCH   7   8
ENDBRANCH   1   7
BRANCH   5  20
HETATM   20  N4  UNL     1      21.181   1.700  52.164  1.00  0.00    -0.188 N 
HETATM   21  H9  UNL     1      20.236   2.180  52.248  1.00  0.00     0.184 HD
BRANCH  20  22
HETATM   22  C8  UNL     1      21.653   0.721  53.054  1.00  0.00     0.049 A 
HETATM   23  C9  UNL     1      22.943   0.278  52.854  1.00  0.00     0.030 A 
HETATM   24  C10 UNL     1      23.424  -0.693  53.730  1.00  0.00     0.002 A 
HETATM   25  C11 UNL     1      22.623  -1.184  54.758  1.00  0.00     0.000 A 
HETATM   26  C12 UNL     1      21.328  -0.706  54.919  1.00  0.00     0.002 A 
HETATM   27  C13 UNL     1      20.821   0.265  54.058  1.00  0.00     0.030 A 
ENDBRANCH  20  22
ENDBRANCH   5  20
TORSDOF 8
ENDMDL
MODEL 4
REMARK VINA RESULT:      -7.6      2.751      5.482
REMARK  8 active torsions:
REMARK  status: ('A' for Active; 'I' for Inactive)
REMARK    1  A    between atoms: O1_1  and  N1_2 
REMARK    2  A    between atoms: N1_2  and  C1_3 
REMARK    3  A    between atoms: N1_2  and  C14_20 
REMARK    4  A    between atoms: C1_3  and  N2_4 
REMARK    5  A    between atoms: C2_5  and  C3_6 
REMARK    6  A    between atoms: C3_6  and  C4_7 
REMARK    7  A    between atoms: C7_11  and  N4_12 
REMARK    8  A    between atoms: N4_12  and  C8_13 
ROOT
HETATM    1  C4  UNL     1      25.590   2.519  52.120  1.00  0.00     0.059 A 
HETATM    2  C5  UNL     1      24.601   3.037  52.954  1.00  0.00     0.048 A 
HETATM    3  C6  UNL     1      23.845   4.080  52.473  1.00  0.00     0.138 A 
HETATM    4  N3  UNL     1      24.050   4.585  51.240  1.00  0.00    -0.075 NA
HETATM    5  C7  UNL     1      25.008   4.082  50.436  1.00  0.00     0.727 A 
HETATM    6  N5  UNL     1      25.744   3.069  50.901  1.00  0.00    -0.067 NA
ENDROOT
BRANCH   1   7
HETATM    7  C3  UNL     1      26.435   1.381  52.613  1.00  0.00     0.106 C 
BRANCH   7   8
HETATM    8  C2  UNL     1      26.755   1.570  54.069  1.00  0.00     0.091 C 
HETATM    9  N2  UNL     1      26.566   0.589  54.870  1.00  0.00    -0.283 NA
BRANCH   9  10
HETATM   10  C1  UNL     1      26.057  -0.630  54.307  1.00  0.00     0.303 C 
BRANCH  10  11
HETATM   11  N1  UNL     1      24.745  -0.949  54.851  1.00  0.00    -0.241 N 
BRANCH  11  12
HETATM   12  O1  UNL     1      24.929  -1.449  56.112  1.00  0.00    -0.286 OA
HETATM   13  H1  UNL     1      24.033  -1.712  56.487  1.00  0.00     0.245 HD
ENDBRANCH  11  12
BRANCH  11  14
HETATM   14  C14 UNL     1      23.425  -0.834  54.328  1.00  0.00     0.059 A 
HETATM   15  C15 UNL     1      23.210  -0.135  53.146  1.00  0.00     0.031 A 
HETATM   16  C16 UNL     1      21.890  -0.100  52.752  1.00  0.00     0.002 A 
HETATM   17  C17 UNL     1      20.801  -0.652  53.365  1.00  0.00     0.000 A 
HETATM   18  C18 UNL     1      21.090  -1.340  54.548  1.00  0.00     0.002 A 
HETATM   19  C19 UNL     1      22.390  -1.427  55.020  1.00  0.00     0.031 A 
ENDBRANCH  11  14
ENDBRANCH  10  11
ENDBRANCH   9  10
ENDBRANCH   7   8
ENDBRANCH   1   7
BRANCH   5  20
HETATM   20  N4  UNL     1      25.208   4.630  49.137  1.00  0.00    -0.188 N 
HETATM   21  H9  UNL     1      24.436   4.412  48.439  1.00  0.00     0.184 HD
BRANCH  20  22
HETATM   22  C8  UNL     1      26.349   5.393  48.842  1.00  0.00     0.049 A 
HETATM   23  C9  UNL     1      26.173   6.758  48.761  1.00  0.00     0.030 A 
HETATM   24  C10 UNL     1      27.297   7.527  48.469  1.00  0.00     0.002 A 
HETATM   25  C11 UNL     1      28.538   6.928  48.271  1.00  0.00     0.000 A 
HETATM   26  C12 UNL     1      28.666   5.548  48.364  1.00  0.00     0.002 A 
HETATM   27  C13 UNL     1      27.559   4.753  48.655  1.00  0.00     0.030 A 
ENDBRANCH  20  22
ENDBRANCH   5  20
TORSDOF 8
ENDMDL
MODEL 5
REMARK VINA RESULT:      -7.5      2.557      5.660
REMARK  8 active torsions:
REMARK  status: ('A' for Active; 'I' for Inactive)
REMARK    1  A    between atoms: O1_1  and  N1_2 
REMARK    2  A    between atoms: N1_2  and  C1_3 
REMARK    3  A    between atoms: N1_2  and  C14_20 
REMARK    4  A    between atoms: C1_3  and  N2_4 
REMARK    5  A    between atoms: C2_5  and  C3_6 
REMARK    6  A    between atoms: C3_6  and  C4_7 
REMARK    7  A    between atoms: C7_11  and  N4_12 
REMARK    8  A    between atoms: N4_12  and  C8_13 
ROOT
HETATM    1  C4  UNL     1      23.058   1.154  52.002  1.00  0.00     0.059 A 
HETATM    2  C5  UNL     1      22.245   0.180  52.578  1.00  0.00     0.048 A 
HETATM    3  C6  UNL     1      22.795  -0.607  53.563  1.00  0.00     0.138 A 
HETATM    4  N3  UNL     1      24.073  -0.443  53.960  1.00  0.00    -0.075 NA
HETATM    5  C7  UNL     1      24.857   0.501  53.400  1.00  0.00     0.727 A 
HETATM    6  N5  UNL     1      24.326   1.265  52.443  1.00  0.00    -0.067 NA
ENDROOT
BRANCH   1   7
HETATM    7  C3  UNL     1      22.491   2.030  50.924  1.00  0.00     0.106 C 
BRANCH   7   8
HETATM    8  C2  UNL     1      22.391   3.448  51.411  1.00  0.00     0.091 C 
HETATM    9  N2  UNL     1      23.109   4.343  50.843  1.00  0.00    -0.283 NA
BRANCH   9  10
HETATM   10  C1  UNL     1      23.965   3.916  49.771  1.00  0.00     0.303 C 
BRANCH  10  11
HETATM   11  N1  UNL     1      25.349   4.283  50.030  1.00  0.00    -0.241 N 
BRANCH  11  12
HETATM   12  O1  UNL     1      25.741   3.647  51.177  1.00  0.00    -0.286 OA
HETATM   13  H1  UNL     1      26.338   4.265  51.700  1.00  0.00     0.245 HD
ENDBRANCH  11  12
BRANCH  11  14
HETATM   14  C14 UNL     1      26.274   5.121  49.343  1.00  0.00     0.059 A 
HETATM   15  C15 UNL     1      25.955   6.454  49.109  1.00  0.00     0.031 A 
HETATM   16  C16 UNL     1      26.936   7.151  48.437  1.00  0.00     0.002 A 
HETATM   17  C17 UNL     1      28.145   6.704  47.988  1.00  0.00     0.000 A 
HETATM   18  C18 UNL     1      28.401   5.355  48.257  1.00  0.00     0.002 A 
HETATM   19  C19 UNL     1      27.472   4.577  48.929  1.00  0.00     0.031 A 
ENDBRANCH  11  14
ENDBRANCH  10  11
ENDBRANCH   9  10
ENDBRANCH   7   8
ENDBRANCH   1   7
BRANCH   5  20
HETATM   20  N4  UNL     1      26.204   0.656  53.834  1.00  0.00    -0.188 N 
HETATM   21  H9  UNL     1      26.400   1.560  54.359  1.00  0.00     0.184 HD
BRANCH  20  22
HETATM   22  C8  UNL     1      27.167  -0.330  53.570  1.00  0.00     0.049 A 
HETATM   23  C9  UNL     1      28.443  -0.086  54.032  1.00  0.00     0.030 A 
HETATM   24  C10 UNL     1      29.408  -1.057  53.776  1.00  0.00     0.002 A 
HETATM   25  C11 UNL     1      29.083  -2.220  53.082  1.00  0.00     0.000 A 
HETATM   26  C12 UNL     1      27.782  -2.421  52.636  1.00  0.00     0.002 A 
HETATM   27  C13 UNL     1      26.796  -1.467  52.877  1.00  0.00     0.030 A 
ENDBRANCH  20  22
ENDBRANCH   5  20
TORSDOF 8
ENDMDL
MODEL 6
REMARK VINA RESULT:      -7.5      2.514      5.090
REMARK  8 active torsions:
REMARK  status: ('A' for Active; 'I' for Inactive)
REMARK    1  A    between atoms: O1_1  and  N1_2 
REMARK    2  A    between atoms: N1_2  and  C1_3 
REMARK    3  A    between atoms: N1_2  and  C14_20 
REMARK    4  A    between atoms: C1_3  and  N2_4 
REMARK    5  A    between atoms: C2_5  and  C3_6 
REMARK    6  A    between atoms: C3_6  and  C4_7 
REMARK    7  A    between atoms: C7_11  and  N4_12 
REMARK    8  A    between atoms: N4_12  and  C8_13 
ROOT
HETATM    1  C4  UNL     1      21.912   1.317  50.109  1.00  0.00     0.059 A 
HETATM    2  C5  UNL     1      21.709   1.263  48.732  1.00  0.00     0.048 A 
HETATM    3  C6  UNL     1      22.315   2.226  47.960  1.00  0.00     0.138 A 
HETATM    4  N3  UNL     1      23.078   3.190  48.513  1.00  0.00    -0.075 NA
HETATM    5  C7  UNL     1      23.273   3.240  49.847  1.00  0.00     0.727 A 
HETATM    6  N5  UNL     1      22.685   2.306  50.598  1.00  0.00    -0.067 NA
ENDROOT
BRANCH   1   7
HETATM    7  C3  UNL     1      21.266   0.282  50.982  1.00  0.00     0.106 C 
BRANCH   7   8
HETATM    8  C2  UNL     1      20.894   0.884  52.307  1.00  0.00     0.091 C 
HETATM    9  N2  UNL     1      21.343   0.338  53.375  1.00  0.00    -0.283 NA
BRANCH   9  10
HETATM   10  C1  UNL     1      22.176  -0.821  53.220  1.00  0.00     0.303 C 
BRANCH  10  11
HETATM   11  N1  UNL     1      23.499  -0.592  53.781  1.00  0.00    -0.241 N 
BRANCH  11  12
HETATM   12  O1  UNL     1      23.516  -1.130  55.040  1.00  0.00    -0.286 OA
HETATM   13  H1  UNL     1      24.313  -1.737  55.119  1.00  0.00     0.245 HD
ENDBRANCH  11  12
BRANCH  11  14
HETATM   14  C14 UNL     1      24.670   0.043  53.274  1.00  0.00     0.059 A 
HETATM   15  C15 UNL     1      24.721   1.430  53.193  1.00  0.00     0.031 A 
HETATM   16  C16 UNL     1      25.908   1.914  52.687  1.00  0.00     0.002 A 
HETATM   17  C17 UNL     1      27.006   1.217  52.269  1.00  0.00     0.000 A 
HETATM   18  C18 UNL     1      26.885  -0.172  52.379  1.00  0.00     0.002 A 
HETATM   19  C19 UNL     1      25.727  -0.748  52.877  1.00  0.00     0.031 A 
ENDBRANCH  11  14
ENDBRANCH  10  11
ENDBRANCH   9  10
ENDBRANCH   7   8
ENDBRANCH   1   7
BRANCH   5  20
HETATM   20  N4  UNL     1      24.083   4.267  50.410  1.00  0.00    -0.188 N 
HETATM   21  H9  UNL     1      23.751   4.626  51.355  1.00  0.00     0.184 HD
BRANCH  20  22
HETATM   22  C8  UNL     1      25.222   4.739  49.739  1.00  0.00     0.049 A 
HETATM   23  C9  UNL     1      25.166   6.032  49.265  1.00  0.00     0.030 A 
HETATM   24  C10 UNL     1      26.290   6.513  48.597  1.00  0.00     0.002 A 
HETATM   25  C11 UNL     1      27.414   5.709  48.424  1.00  0.00     0.000 A 
HETATM   26  C12 UNL     1      27.423   4.411  48.920  1.00  0.00     0.002 A 
HETATM   27  C13 UNL     1      26.313   3.904  49.592  1.00  0.00     0.030 A 
ENDBRANCH  20  22
ENDBRANCH   5  20
TORSDOF 8
ENDMDL
MODEL 7
REMARK VINA RESULT:      -7.4      2.527      5.018
REMARK  8 active torsions:
REMARK  status: ('A' for Active; 'I' for Inactive)
REMARK    1  A    between atoms: O1_1  and  N1_2 
REMARK    2  A    between atoms: N1_2  and  C1_3 
REMARK    3  A    between atoms: N1_2  and  C14_20 
REMARK    4  A    between atoms: C1_3  and  N2_4 
REMARK    5  A    between atoms: C2_5  and  C3_6 
REMARK    6  A    between atoms: C3_6  and  C4_7 
REMARK    7  A    between atoms: C7_11  and  N4_12 
REMARK    8  A    between atoms: N4_12  and  C8_13 
ROOT
HETATM    1  C4  UNL     1      24.939   1.528  52.544  1.00  0.00     0.059 A 
HETATM    2  C5  UNL     1      25.994   1.574  53.453  1.00  0.00     0.048 A 
HETATM    3  C6  UNL     1      27.187   2.100  53.016  1.00  0.00     0.138 A 
HETATM    4  N3  UNL     1      27.334   2.556  51.756  1.00  0.00    -0.075 NA
HETATM    5  C7  UNL     1      26.311   2.510  50.879  1.00  0.00     0.727 A 
HETATM    6  N5  UNL     1      25.151   1.999  51.300  1.00  0.00    -0.067 NA
ENDROOT
BRANCH   1   7
HETATM    7  C3  UNL     1      23.622   0.960  52.986  1.00  0.00     0.106 C 
BRANCH   7   8
HETATM    8  C2  UNL     1      23.836  -0.350  53.689  1.00  0.00     0.091 C 
HETATM    9  N2  UNL     1      22.897  -0.810  54.428  1.00  0.00    -0.283 NA
BRANCH   9  10
HETATM   10  C1  UNL     1      21.697  -0.026  54.529  1.00  0.00     0.303 C 
BRANCH  10  11
HETATM   11  N1  UNL     1      20.557  -0.746  53.982  1.00  0.00    -0.241 N 
BRANCH  11  12
HETATM   12  O1  UNL     1      20.425  -1.913  54.684  1.00  0.00    -0.286 OA
HETATM   13  H1  UNL     1      20.181  -1.690  55.634  1.00  0.00     0.245 HD
ENDBRANCH  11  12
BRANCH  11  14
HETATM   14  C14 UNL     1      19.641  -0.454  52.930  1.00  0.00     0.059 A 
HETATM   15  C15 UNL     1      18.337  -0.931  52.999  1.00  0.00     0.031 A 
HETATM   16  C16 UNL     1      17.558  -0.577  51.919  1.00  0.00     0.002 A 
HETATM   17  C17 UNL     1      17.901   0.162  50.823  1.00  0.00     0.000 A 
HETATM   18  C18 UNL     1      19.227   0.609  50.819  1.00  0.00     0.002 A 
HETATM   19  C19 UNL     1      20.084   0.301  51.864  1.00  0.00     0.031 A 
ENDBRANCH  11  14
ENDBRANCH  10  11
ENDBRANCH   9  10
ENDBRANCH   7   8
ENDBRANCH   1   7
BRANCH   5  20
HETATM   20  N4  UNL     1      26.487   2.996  49.553  1.00  0.00    -0.188 N 
HETATM   21  H9  UNL     1      26.483   2.244  48.800  1.00  0.00     0.184 HD
BRANCH  20  22
HETATM   22  C8  UNL     1      26.650   4.367  49.301  1.00  0.00     0.049 A 
HETATM   23  C9  UNL     1      25.663   5.203  49.778  1.00  0.00     0.030 A 
HETATM   24  C10 UNL     1      25.812   6.566  49.535  1.00  0.00     0.002 A 
HETATM   25  C11 UNL     1      26.918   7.049  48.839  1.00  0.00     0.000 A 
HETATM   26  C12 UNL     1      27.888   6.167  48.378  1.00  0.00     0.002 A 
HETATM   27  C13 UNL     1      27.765   4.798  48.607  1.00  0.00     0.030 A 
ENDBRANCH  20  22
ENDBRANCH   5  20
TORSDOF 8
ENDMDL
MODEL 8
REMARK VINA RESULT:      -7.4      2.041      5.030
REMARK  8 active torsions:
REMARK  status: ('A' for Active; 'I' for Inactive)
REMARK    1  A    between atoms: O1_1  and  N1_2 
REMARK    2  A    between atoms: N1_2  and  C1_3 
REMARK    3  A    between atoms: N1_2  and  C14_20 
REMARK    4  A    between atoms: C1_3  and  N2_4 
REMARK    5  A    between atoms: C2_5  and  C3_6 
REMARK    6  A    between atoms: C3_6  and  C4_7 
REMARK    7  A    between atoms: C7_11  and  N4_12 
REMARK    8  A    between atoms: N4_12  and  C8_13 
ROOT
HETATM    1  C4  UNL     1      22.847  -0.062  53.588  1.00  0.00     0.059 A 
HETATM    2  C5  UNL     1      22.674  -0.644  54.842  1.00  0.00     0.048 A 
HETATM    3  C6  UNL     1      23.764  -1.253  55.418  1.00  0.00     0.138 A 
HETATM    4  N3  UNL     1      24.959  -1.286  54.795  1.00  0.00    -0.075 NA
HETATM    5  C7  UNL     1      25.124  -0.722  53.581  1.00  0.00     0.727 A 
HETATM    6  N5  UNL     1      24.067  -0.131  53.020  1.00  0.00    -0.067 NA
ENDROOT
BRANCH   1   7
HETATM    7  C3  UNL     1      21.679   0.610  52.929  1.00  0.00     0.106 C 
BRANCH   7   8
HETATM    8  C2  UNL     1      21.885   0.663  51.442  1.00  0.00     0.091 C 
HETATM    9  N2  UNL     1      22.225   1.776  50.910  1.00  0.00    -0.283 NA
BRANCH   9  10
HETATM   10  C1  UNL     1      22.384   2.903  51.788  1.00  0.00     0.303 C 
BRANCH  10  11
HETATM   11  N1  UNL     1      23.783   3.291  51.891  1.00  0.00    -0.241 N 
BRANCH  11  12
HETATM   12  O1  UNL     1      24.165   3.126  53.194  1.00  0.00    -0.286 OA
HETATM   13  H1  UNL     1      23.341   3.086  53.769  1.00  0.00     0.245 HD
ENDBRANCH  11  12
BRANCH  11  14
HETATM   14  C14 UNL     1      24.728   3.770  50.938  1.00  0.00     0.059 A 
HETATM   15  C15 UNL     1      25.736   2.927  50.483  1.00  0.00     0.031 A 
HETATM   16  C16 UNL     1      26.580   3.515  49.566  1.00  0.00     0.002 A 
HETATM   17  C17 UNL     1      26.547   4.785  49.066  1.00  0.00     0.000 A 
HETATM   18  C18 UNL     1      25.508   5.577  49.566  1.00  0.00     0.002 A 
HETATM   19  C19 UNL     1      24.610   5.070  50.493  1.00  0.00     0.031 A 
ENDBRANCH  11  14
ENDBRANCH  10  11
ENDBRANCH   9  10
ENDBRANCH   7   8
ENDBRANCH   1   7
BRANCH   5  20
HETATM   20  N4  UNL     1      26.395  -0.768  52.941  1.00  0.00    -0.188 N 
HETATM   21  H9  UNL     1      26.474  -1.489  52.163  1.00  0.00     0.184 HD
BRANCH  20  22
HETATM   22  C8  UNL     1      27.435   0.087  53.336  1.00  0.00     0.049 A 
HETATM   23  C9  UNL     1      27.188   1.440  53.244  1.00  0.00     0.030 A 
HETATM   24  C10 UNL     1      28.213   2.301  53.633  1.00  0.00     0.002 A 
HETATM   25  C11 UNL     1      29.428   1.800  54.093  1.00  0.00     0.000 A 
HETATM   26  C12 UNL     1      29.630   0.427  54.168  1.00  0.00     0.002 A 
HETATM   27  C13 UNL     1      28.623  -0.458  53.786  1.00  0.00     0.030 A 
ENDBRANCH  20  22
ENDBRANCH   5  20
TORSDOF 8
ENDMDL
MODEL 9
REMARK VINA RESULT:      -7.4      2.961      5.832
REMARK  8 active torsions:
REMARK  status: ('A' for Active; 'I' for Inactive)
REMARK    1  A    between atoms: O1_1  and  N1_2 
REMARK    2  A    between atoms: N1_2  and  C1_3 
REMARK    3  A    between atoms: N1_2  and  C14_20 
REMARK    4  A    between atoms: C1_3  and  N2_4 
REMARK    5  A    between atoms: C2_5  and  C3_6 
REMARK    6  A    between atoms: C3_6  and  C4_7 
REMARK    7  A    between atoms: C7_11  and  N4_12 
REMARK    8  A    between atoms: N4_12  and  C8_13 
ROOT
HETATM    1  C4  UNL     1      23.477   1.729  51.496  1.00  0.00     0.059 A 
HETATM    2  C5  UNL     1      22.179   1.276  51.268  1.00  0.00     0.048 A 
HETATM    3  C6  UNL     1      21.742   0.199  52.003  1.00  0.00     0.138 A 
HETATM    4  N3  UNL     1      22.538  -0.399  52.912  1.00  0.00    -0.075 NA
HETATM    5  C7  UNL     1      23.794   0.041  53.130  1.00  0.00     0.727 A 
HETATM    6  N5  UNL     1      24.220   1.087  52.417  1.00  0.00    -0.067 NA
ENDROOT
BRANCH   1   7
HETATM    7  C3  UNL     1      23.986   2.902  50.711  1.00  0.00     0.106 C 
BRANCH   7   8
HETATM    8  C2  UNL     1      22.837   3.756  50.256  1.00  0.00     0.091 C 
HETATM    9  N2  UNL     1      22.770   4.964  50.673  1.00  0.00    -0.283 NA
BRANCH   9  10
HETATM   10  C1  UNL     1      23.811   5.415  51.553  1.00  0.00     0.303 C 
BRANCH  10  11
HETATM   11  N1  UNL     1      24.514   6.558  50.990  1.00  0.00    -0.241 N 
BRANCH  11  12
HETATM   12  O1  UNL     1      23.913   7.692  51.467  1.00  0.00    -0.286 OA
HETATM   13  H1  UNL     1      24.499   8.090  52.180  1.00  0.00     0.245 HD
ENDBRANCH  11  12
BRANCH  11  14
HETATM   14  C14 UNL     1      25.624   6.673  50.104  1.00  0.00     0.059 A 
HETATM   15  C15 UNL     1      26.242   7.906  49.929  1.00  0.00     0.031 A 
HETATM   16  C16 UNL     1      27.300   7.877  49.047  1.00  0.00     0.002 A 
HETATM   17  C17 UNL     1      27.799   6.817  48.346  1.00  0.00     0.000 A 
HETATM   18  C18 UNL     1      27.131   5.609  48.569  1.00  0.00     0.002 A 
HETATM   19  C19 UNL     1      26.054   5.543  49.441  1.00  0.00     0.031 A 
ENDBRANCH  11  14
ENDBRANCH  10  11
ENDBRANCH   9  10
ENDBRANCH   7   8
ENDBRANCH   1   7
BRANCH   5  20
HETATM   20  N4  UNL     1      24.618  -0.605  54.095  1.00  0.00    -0.188 N 
HETATM   21  H9  UNL     1      24.087  -1.117  54.861  1.00  0.00     0.184 HD
BRANCH  20  22
HETATM   22  C8  UNL     1      26.018  -0.548  54.004  1.00  0.00     0.049 A 
HETATM   23  C9  UNL     1      26.601  -1.290  52.999  1.00  0.00     0.030 A 
HETATM   24  C10 UNL     1      27.989  -1.242  52.898  1.00  0.00     0.002 A 
HETATM   25  C11 UNL     1      28.742  -0.473  53.782  1.00  0.00     0.000 A 
HETATM   26  C12 UNL     1      28.108   0.259  54.780  1.00  0.00     0.002 A 
HETATM   27  C13 UNL     1      26.721   0.230  54.904  1.00  0.00     0.030 A 
ENDBRANCH  20  22
ENDBRANCH   5  20
TORSDOF 8
ENDMDL
