MODEL 1
REMARK VINA RESULT:      -7.9      0.000      0.000
REMARK  4 active torsions:
REMARK  status: ('A' for Active; 'I' for Inactive)
REMARK    1  A    between atoms: C2_2  and  C3_3 
REMARK    2  A    between atoms: N1_6  and  C6_7 
REMARK    3  A    between atoms: C14_18  and  O1_19 
REMARK    4  A    between atoms: C16_21  and  O2_22 
ROOT
HETATM    1  C3  UNL     1      23.326   1.706  51.861  1.00  0.00    -0.024 C 
HETATM    2  C4  UNL     1      23.848   1.808  53.040  1.00  0.00     0.003 C 
HETATM    3  C5  UNL     1      25.039   2.602  53.484  1.00  0.00     0.152 C 
HETATM    4  N1  UNL     1      26.213   2.301  52.657  1.00  0.00    -0.357 N 
HETATM    5  C13 UNL     1      26.361   2.613  51.256  1.00  0.00     0.192 C 
HETATM    6  C14 UNL     1      25.112   2.751  50.510  1.00  0.00     0.097 C 
HETATM    7  C16 UNL     1      23.814   2.413  50.673  1.00  0.00     0.105 C 
ENDROOT
BRANCH   4   8
HETATM    8  C6  UNL     1      27.282   1.659  53.330  1.00  0.00     0.138 C 
HETATM    9  N2  UNL     1      28.247   2.087  54.020  1.00  0.00    -0.226 NA
HETATM   10  C7  UNL     1      29.296   1.379  54.645  1.00  0.00     0.235 C 
HETATM   11  N3  UNL     1      29.351   0.062  54.493  1.00  0.00    -0.244 NA
HETATM   12  C8  UNL     1      28.310  -0.492  53.652  1.00  0.00     0.071 A 
HETATM   13  C9  UNL     1      28.214  -1.612  52.942  1.00  0.00     0.030 A 
HETATM   14  C12 UNL     1      27.060   0.244  53.476  1.00  0.00     0.159 A 
HETATM   15  C10 UNL     1      26.895  -1.599  52.282  1.00  0.00     0.001 A 
HETATM   16  C11 UNL     1      26.199  -0.494  52.587  1.00  0.00     0.013 A 
HETATM   17 CL1  UNL     1      26.314   0.129  55.180  1.00  0.00    -0.099 Cl
ENDBRANCH   4   8
BRANCH   6  18
HETATM   18  O1  UNL     1      25.364   3.415  49.317  1.00  0.00    -0.356 OA
HETATM   19  C15 UNL     1      26.396   4.386  49.326  1.00  0.00     0.209 C 
ENDBRANCH   6  18
BRANCH   1  20
HETATM   20  C2  UNL     1      22.182   0.820  51.867  1.00  0.00     0.007 C 
HETATM   21  C1  UNL     1      22.036  -0.280  52.655  1.00  0.00     0.039 C 
ENDBRANCH   1  20
BRANCH   7  22
HETATM   22  O2  UNL     1      22.916   2.739  49.700  1.00  0.00    -0.353 OA
HETATM   23  C17 UNL     1      21.969   3.771  49.699  1.00  0.00     0.210 C 
ENDBRANCH   7  22
TORSDOF 4
ENDMDL
MODEL 2
REMARK VINA RESULT:      -7.5      1.400      3.257
REMARK  4 active torsions:
REMARK  status: ('A' for Active; 'I' for Inactive)
REMARK    1  A    between atoms: C2_2  and  C3_3 
REMARK    2  A    between atoms: N1_6  and  C6_7 
REMARK    3  A    between atoms: C14_18  and  O1_19 
REMARK    4  A    between atoms: C16_21  and  O2_22 
ROOT
HETATM    1  C3  UNL     1      25.626   4.459  50.076  1.00  0.00    -0.024 C 
HETATM    2  C4  UNL     1      26.507   3.516  49.991  1.00  0.00     0.003 C 
HETATM    3  C5  UNL     1      26.482   2.139  50.582  1.00  0.00     0.152 C 
HETATM    4  N1  UNL     1      26.230   2.188  52.026  1.00  0.00    -0.357 N 
HETATM    5  C13 UNL     1      25.005   2.624  52.654  1.00  0.00     0.192 C 
HETATM    6  C14 UNL     1      24.187   3.540  51.863  1.00  0.00     0.097 C 
HETATM    7  C16 UNL     1      24.349   4.340  50.785  1.00  0.00     0.105 C 
ENDROOT
BRANCH   4   8
HETATM    8  C6  UNL     1      27.299   1.750  52.846  1.00  0.00     0.138 C 
HETATM    9  N2  UNL     1      28.216   2.356  53.465  1.00  0.00    -0.226 NA
HETATM   10  C7  UNL     1      29.270   1.842  54.250  1.00  0.00     0.235 C 
HETATM   11  N3  UNL     1      29.390   0.525  54.367  1.00  0.00    -0.244 NA
HETATM   12  C8  UNL     1      28.409  -0.238  53.624  1.00  0.00     0.071 A 
HETATM   13  C9  UNL     1      28.392  -1.481  53.150  1.00  0.00     0.030 A 
HETATM   14  C12 UNL     1      27.135   0.382  53.266  1.00  0.00     0.159 A 
HETATM   15  C10 UNL     1      27.101  -1.668  52.461  1.00  0.00     0.001 A 
HETATM   16  C11 UNL     1      26.344  -0.562  52.518  1.00  0.00     0.013 A 
HETATM   17 CL1  UNL     1      26.328   0.570  54.935  1.00  0.00    -0.099 Cl
ENDBRANCH   4   8
BRANCH   6  18
HETATM   18  O1  UNL     1      22.901   3.572  52.385  1.00  0.00    -0.356 OA
HETATM   19  C15 UNL     1      22.144   2.376  52.306  1.00  0.00     0.209 C 
ENDBRANCH   6  18
BRANCH   1  20
HETATM   20  C2  UNL     1      26.052   5.643  49.362  1.00  0.00     0.007 C 
HETATM   21  C1  UNL     1      27.156   5.737  48.572  1.00  0.00     0.039 C 
ENDBRANCH   1  20
BRANCH   7  22
HETATM   22  O2  UNL     1      23.288   5.068  50.334  1.00  0.00    -0.353 OA
HETATM   23  C17 UNL     1      22.872   6.343  50.737  1.00  0.00     0.210 C 
ENDBRANCH   7  22
TORSDOF 4
ENDMDL
MODEL 3
REMARK VINA RESULT:      -6.9      3.414      6.138
REMARK  4 active torsions:
REMARK  status: ('A' for Active; 'I' for Inactive)
REMARK    1  A    between atoms: C2_2  and  C3_3 
REMARK    2  A    between atoms: N1_6  and  C6_7 
REMARK    3  A    between atoms: C14_18  and  O1_19 
REMARK    4  A    between atoms: C16_21  and  O2_22 
ROOT
HETATM    1  C3  UNL     1      24.490   0.707  52.974  1.00  0.00    -0.024 C 
HETATM    2  C4  UNL     1      24.968   1.908  53.011  1.00  0.00     0.003 C 
HETATM    3  C5  UNL     1      24.258   3.204  53.259  1.00  0.00     0.152 C 
HETATM    4  N1  UNL     1      23.113   3.361  52.356  1.00  0.00    -0.357 N 
HETATM    5  C13 UNL     1      21.918   2.552  52.361  1.00  0.00     0.192 C 
HETATM    6  C14 UNL     1      22.072   1.211  52.920  1.00  0.00     0.097 C 
HETATM    7  C16 UNL     1      23.085   0.365  53.212  1.00  0.00     0.105 C 
ENDROOT
BRANCH   4   8
HETATM    8  C6  UNL     1      23.218   4.418  51.418  1.00  0.00     0.138 C 
HETATM    9  N2  UNL     1      23.276   5.673  51.536  1.00  0.00    -0.226 NA
HETATM   10  C7  UNL     1      23.357   6.671  50.542  1.00  0.00     0.235 C 
HETATM   11  N3  UNL     1      23.340   6.301  49.268  1.00  0.00    -0.244 NA
HETATM   12  C8  UNL     1      23.205   4.875  49.055  1.00  0.00     0.071 A 
HETATM   13  C9  UNL     1      22.766   4.144  48.036  1.00  0.00     0.030 A 
HETATM   14  C12 UNL     1      23.607   3.949  50.113  1.00  0.00     0.159 A 
HETATM   15  C10 UNL     1      22.865   2.728  48.437  1.00  0.00     0.001 A 
HETATM   16  C11 UNL     1      23.359   2.598  49.677  1.00  0.00     0.013 A 
HETATM   17 CL1  UNL     1      25.455   4.186  50.136  1.00  0.00    -0.099 Cl
ENDBRANCH   4   8
BRANCH   6  18
HETATM   18  O1  UNL     1      20.818   0.695  53.222  1.00  0.00    -0.356 OA
HETATM   19  C15 UNL     1      19.920   0.512  52.142  1.00  0.00     0.209 C 
ENDBRANCH   6  18
BRANCH   1  20
HETATM   20  C2  UNL     1      25.525  -0.263  52.690  1.00  0.00     0.007 C 
HETATM   21  C1  UNL     1      26.729   0.008  52.116  1.00  0.00     0.039 C 
ENDBRANCH   1  20
BRANCH   7  22
HETATM   22  O2  UNL     1      22.797  -0.854  53.750  1.00  0.00    -0.353 OA
HETATM   23  C17 UNL     1      22.835  -1.243  55.095  1.00  0.00     0.210 C 
ENDBRANCH   7  22
TORSDOF 4
ENDMDL
MODEL 4
REMARK VINA RESULT:      -6.9      3.214      5.743
REMARK  4 active torsions:
REMARK  status: ('A' for Active; 'I' for Inactive)
REMARK    1  A    between atoms: C2_2  and  C3_3 
REMARK    2  A    between atoms: N1_6  and  C6_7 
REMARK    3  A    between atoms: C14_18  and  O1_19 
REMARK    4  A    between atoms: C16_21  and  O2_22 
ROOT
HETATM    1  C3  UNL     1      24.536   0.681  53.355  1.00  0.00    -0.024 C 
HETATM    2  C4  UNL     1      25.033   1.873  53.422  1.00  0.00     0.003 C 
HETATM    3  C5  UNL     1      24.531   3.146  52.810  1.00  0.00     0.152 C 
HETATM    4  N1  UNL     1      24.311   2.989  51.369  1.00  0.00    -0.357 N 
HETATM    5  C13 UNL     1      23.315   2.145  50.754  1.00  0.00     0.192 C 
HETATM    6  C14 UNL     1      22.867   1.014  51.564  1.00  0.00     0.097 C 
HETATM    7  C16 UNL     1      23.297   0.337  52.652  1.00  0.00     0.105 C 
ENDROOT
BRANCH   4   8
HETATM    8  C6  UNL     1      25.161   3.759  50.537  1.00  0.00     0.138 C 
HETATM    9  N2  UNL     1      26.165   3.474  49.829  1.00  0.00    -0.226 NA
HETATM   10  C7  UNL     1      26.981   4.310  49.038  1.00  0.00     0.235 C 
HETATM   11  N3  UNL     1      26.728   5.612  49.021  1.00  0.00    -0.244 NA
HETATM   12  C8  UNL     1      25.627   6.023  49.868  1.00  0.00     0.071 A 
HETATM   13  C9  UNL     1      25.302   7.179  50.440  1.00  0.00     0.030 A 
HETATM   14  C12 UNL     1      24.599   5.051  50.235  1.00  0.00     0.159 A 
HETATM   15  C10 UNL     1      24.059   6.955  51.202  1.00  0.00     0.001 A 
HETATM   16  C11 UNL     1      23.633   5.688  51.093  1.00  0.00     0.013 A 
HETATM   17 CL1  UNL     1      23.764   4.752  48.597  1.00  0.00    -0.099 Cl
ENDBRANCH   4   8
BRANCH   6  18
HETATM   18  O1  UNL     1      21.672   0.529  51.049  1.00  0.00    -0.356 OA
HETATM   19  C15 UNL     1      21.195   1.126  49.855  1.00  0.00     0.209 C 
ENDBRANCH   6  18
BRANCH   1  20
HETATM   20  C2  UNL     1      25.347  -0.270  54.084  1.00  0.00     0.007 C 
HETATM   21  C1  UNL     1      26.364   0.043  54.933  1.00  0.00     0.039 C 
ENDBRANCH   1  20
BRANCH   7  22
HETATM   22  O2  UNL     1      22.556  -0.707  53.119  1.00  0.00    -0.353 OA
HETATM   23  C17 UNL     1      21.765  -0.765  54.274  1.00  0.00     0.210 C 
ENDBRANCH   7  22
TORSDOF 4
ENDMDL
MODEL 5
REMARK VINA RESULT:      -6.7      3.560      6.762
REMARK  4 active torsions:
REMARK  status: ('A' for Active; 'I' for Inactive)
REMARK    1  A    between atoms: C2_2  and  C3_3 
REMARK    2  A    between atoms: N1_6  and  C6_7 
REMARK    3  A    between atoms: C14_18  and  O1_19 
REMARK    4  A    between atoms: C16_21  and  O2_22 
ROOT
HETATM    1  C3  UNL     1      25.493   2.282  51.711  1.00  0.00    -0.024 C 
HETATM    2  C4  UNL     1      24.716   3.312  51.785  1.00  0.00     0.003 C 
HETATM    3  C5  UNL     1      23.509   3.531  52.646  1.00  0.00     0.152 C 
HETATM    4  N1  UNL     1      22.546   2.435  52.494  1.00  0.00    -0.357 N 
HETATM    5  C13 UNL     1      22.754   1.066  52.902  1.00  0.00     0.192 C 
HETATM    6  C14 UNL     1      24.150   0.641  52.981  1.00  0.00     0.097 C 
HETATM    7  C16 UNL     1      25.348   1.072  52.527  1.00  0.00     0.105 C 
ENDROOT
BRANCH   4   8
HETATM    8  C6  UNL     1      21.309   2.791  51.903  1.00  0.00     0.138 C 
HETATM    9  N2  UNL     1      20.292   3.403  52.332  1.00  0.00    -0.226 NA
HETATM   10  C7  UNL     1      19.075   3.702  51.683  1.00  0.00     0.235 C 
HETATM   11  N3  UNL     1      18.896   3.270  50.441  1.00  0.00    -0.244 NA
HETATM   12  C8  UNL     1      19.998   2.497  49.906  1.00  0.00     0.071 A 
HETATM   13  C9  UNL     1      20.088   1.591  48.938  1.00  0.00     0.030 A 
HETATM   14  C12 UNL     1      21.337   2.669  50.468  1.00  0.00     0.159 A 
HETATM   15  C10 UNL     1      21.496   1.152  48.878  1.00  0.00     0.001 A 
HETATM   16  C11 UNL     1      22.250   1.783  49.791  1.00  0.00     0.013 A 
HETATM   17 CL1  UNL     1      21.752   4.402  49.927  1.00  0.00    -0.099 Cl
ENDBRANCH   4   8
BRANCH   6  18
HETATM   18  O1  UNL     1      24.231  -0.522  53.734  1.00  0.00    -0.356 OA
HETATM   19  C15 UNL     1      23.054  -0.940  54.402  1.00  0.00     0.209 C 
ENDBRANCH   6  18
BRANCH   1  20
HETATM   20  C2  UNL     1      26.542   2.482  50.734  1.00  0.00     0.007 C 
HETATM   21  C1  UNL     1      26.449   3.256  49.619  1.00  0.00     0.039 C 
ENDBRANCH   1  20
BRANCH   7  22
HETATM   22  O2  UNL     1      26.469   0.361  52.835  1.00  0.00    -0.353 OA
HETATM   23  C17 UNL     1      27.454   0.658  53.786  1.00  0.00     0.210 C 
ENDBRANCH   7  22
TORSDOF 4
ENDMDL
MODEL 6
REMARK VINA RESULT:      -6.4      3.127      6.072
REMARK  4 active torsions:
REMARK  status: ('A' for Active; 'I' for Inactive)
REMARK    1  A    between atoms: C2_2  and  C3_3 
REMARK    2  A    between atoms: N1_6  and  C6_7 
REMARK    3  A    between atoms: C14_18  and  O1_19 
REMARK    4  A    between atoms: C16_21  and  O2_22 
ROOT
HETATM    1  C3  UNL     1      23.875  -0.160  53.324  1.00  0.00    -0.024 C 
HETATM    2  C4  UNL     1      22.908   0.236  52.562  1.00  0.00     0.003 C 
HETATM    3  C5  UNL     1      22.967   1.002  51.275  1.00  0.00     0.152 C 
HETATM    4  N1  UNL     1      23.755   2.230  51.427  1.00  0.00    -0.357 N 
HETATM    5  C13 UNL     1      25.174   2.295  51.685  1.00  0.00     0.192 C 
HETATM    6  C14 UNL     1      25.746   1.121  52.341  1.00  0.00     0.097 C 
HETATM    7  C16 UNL     1      25.297   0.055  53.040  1.00  0.00     0.105 C 
ENDROOT
BRANCH   4   8
HETATM    8  C6  UNL     1      23.031   3.438  51.287  1.00  0.00     0.138 C 
HETATM    9  N2  UNL     1      22.583   4.276  52.118  1.00  0.00    -0.226 NA
HETATM   10  C7  UNL     1      21.842   5.458  51.901  1.00  0.00     0.235 C 
HETATM   11  N3  UNL     1      21.502   5.774  50.658  1.00  0.00    -0.244 NA
HETATM   12  C8  UNL     1      21.923   4.817  49.655  1.00  0.00     0.071 A 
HETATM   13  C9  UNL     1      21.488   4.529  48.432  1.00  0.00     0.030 A 
HETATM   14  C12 UNL     1      23.053   3.933  49.935  1.00  0.00     0.159 A 
HETATM   15  C10 UNL     1      22.331   3.435  47.914  1.00  0.00     0.001 A 
HETATM   16  C11 UNL     1      23.264   3.065  48.804  1.00  0.00     0.013 A 
HETATM   17 CL1  UNL     1      24.473   5.138  49.972  1.00  0.00    -0.099 Cl
ENDBRANCH   4   8
BRANCH   6  18
HETATM   18  O1  UNL     1      27.125   1.136  52.182  1.00  0.00    -0.356 OA
HETATM   19  C15 UNL     1      27.846   2.117  52.908  1.00  0.00     0.209 C 
ENDBRANCH   6  18
BRANCH   1  20
HETATM   20  C2  UNL     1      23.376  -0.863  54.486  1.00  0.00     0.007 C 
HETATM   21  C1  UNL     1      22.084  -1.240  54.689  1.00  0.00     0.039 C 
ENDBRANCH   1  20
BRANCH   7  22
HETATM   22  O2  UNL     1      26.195  -0.862  53.501  1.00  0.00    -0.353 OA
HETATM   23  C17 UNL     1      26.790  -1.923  52.807  1.00  0.00     0.210 C 
ENDBRANCH   7  22
TORSDOF 4
ENDMDL
MODEL 7
REMARK VINA RESULT:      -6.4      3.735      7.014
REMARK  4 active torsions:
REMARK  status: ('A' for Active; 'I' for Inactive)
REMARK    1  A    between atoms: C2_2  and  C3_3 
REMARK    2  A    between atoms: N1_6  and  C6_7 
REMARK    3  A    between atoms: C14_18  and  O1_19 
REMARK    4  A    between atoms: C16_21  and  O2_22 
ROOT
HETATM    1  C3  UNL     1      25.404  -0.023  52.878  1.00  0.00    -0.024 C 
HETATM    2  C4  UNL     1      25.257   1.066  52.197  1.00  0.00     0.003 C 
HETATM    3  C5  UNL     1      24.124   2.046  52.208  1.00  0.00     0.152 C 
HETATM    4  N1  UNL     1      22.840   1.373  51.983  1.00  0.00    -0.357 N 
HETATM    5  C13 UNL     1      22.211   0.433  52.881  1.00  0.00     0.192 C 
HETATM    6  C14 UNL     1      23.118  -0.272  53.784  1.00  0.00     0.097 C 
HETATM    7  C16 UNL     1      24.444  -0.517  53.871  1.00  0.00     0.105 C 
ENDROOT
BRANCH   4   8
HETATM    8  C6  UNL     1      22.181   1.708  50.775  1.00  0.00     0.138 C 
HETATM    9  N2  UNL     1      22.027   1.101  49.680  1.00  0.00    -0.226 NA
HETATM   10  C7  UNL     1      21.370   1.515  48.501  1.00  0.00     0.235 C 
HETATM   11  N3  UNL     1      20.843   2.732  48.463  1.00  0.00    -0.244 NA
HETATM   12  C8  UNL     1      21.043   3.515  49.665  1.00  0.00     0.071 A 
HETATM   13  C9  UNL     1      21.050   4.822  49.910  1.00  0.00     0.030 A 
HETATM   14  C12 UNL     1      21.295   2.833  50.933  1.00  0.00     0.159 A 
HETATM   15  C10 UNL     1      21.327   4.996  51.348  1.00  0.00     0.001 A 
HETATM   16  C11 UNL     1      21.482   3.817  51.969  1.00  0.00     0.013 A 
HETATM   17 CL1  UNL     1      19.654   2.009  51.250  1.00  0.00    -0.099 Cl
ENDBRANCH   4   8
BRANCH   6  18
HETATM   18  O1  UNL     1      22.385  -0.828  54.824  1.00  0.00    -0.356 OA
HETATM   19  C15 UNL     1      21.299  -1.667  54.470  1.00  0.00     0.209 C 
ENDBRANCH   6  18
BRANCH   1  20
HETATM   20  C2  UNL     1      26.649  -0.684  52.554  1.00  0.00     0.007 C 
HETATM   21  C1  UNL     1      26.795  -2.010  52.282  1.00  0.00     0.039 C 
ENDBRANCH   1  20
BRANCH   7  22
HETATM   22  O2  UNL     1      24.916  -1.250  54.919  1.00  0.00    -0.353 OA
HETATM   23  C17 UNL     1      25.465  -0.794  56.124  1.00  0.00     0.210 C 
ENDBRANCH   7  22
TORSDOF 4
ENDMDL
MODEL 8
REMARK VINA RESULT:      -6.0      3.683      7.194
REMARK  4 active torsions:
REMARK  status: ('A' for Active; 'I' for Inactive)
REMARK    1  A    between atoms: C2_2  and  C3_3 
REMARK    2  A    between atoms: N1_6  and  C6_7 
REMARK    3  A    between atoms: C14_18  and  O1_19 
REMARK    4  A    between atoms: C16_21  and  O2_22 
ROOT
HETATM    1  C3  UNL     1      25.596   3.565  50.716  1.00  0.00    -0.024 C 
HETATM    2  C4  UNL     1      24.931   4.644  50.461  1.00  0.00     0.003 C 
HETATM    3  C5  UNL     1      23.709   5.187  51.137  1.00  0.00     0.152 C 
HETATM    4  N1  UNL     1      22.644   4.181  51.193  1.00  0.00    -0.357 N 
HETATM    5  C13 UNL     1      22.681   2.954  51.953  1.00  0.00     0.192 C 
HETATM    6  C14 UNL     1      24.016   2.442  52.250  1.00  0.00     0.097 C 
HETATM    7  C16 UNL     1      25.277   2.630  51.800  1.00  0.00     0.105 C 
ENDROOT
BRANCH   4   8
HETATM    8  C6  UNL     1      21.486   4.478  50.433  1.00  0.00     0.138 C 
HETATM    9  N2  UNL     1      20.579   5.347  50.547  1.00  0.00    -0.226 NA
HETATM   10  C7  UNL     1      19.433   5.568  49.754  1.00  0.00     0.235 C 
HETATM   11  N3  UNL     1      19.197   4.749  48.737  1.00  0.00    -0.244 NA
HETATM   12  C8  UNL     1      20.164   3.680  48.587  1.00  0.00     0.071 A 
HETATM   13  C9  UNL     1      20.115   2.482  48.012  1.00  0.00     0.030 A 
HETATM   14  C12 UNL     1      21.507   3.843  49.140  1.00  0.00     0.159 A 
HETATM   15  C10 UNL     1      21.432   1.849  48.207  1.00  0.00     0.001 A 
HETATM   16  C11 UNL     1      22.270   2.648  48.884  1.00  0.00     0.013 A 
HETATM   17 CL1  UNL     1      22.203   5.182  48.047  1.00  0.00    -0.099 Cl
ENDBRANCH   4   8
BRANCH   6  18
HETATM   18  O1  UNL     1      23.931   1.515  53.281  1.00  0.00    -0.356 OA
HETATM   19  C15 UNL     1      23.122   0.375  53.055  1.00  0.00     0.209 C 
ENDBRANCH   6  18
BRANCH   1  20
HETATM   20  C2  UNL     1      26.713   3.406  49.810  1.00  0.00     0.007 C 
HETATM   21  C1  UNL     1      27.181   4.358  48.957  1.00  0.00     0.039 C 
ENDBRANCH   1  20
BRANCH   7  22
HETATM   22  O2  UNL     1      26.297   1.927  52.370  1.00  0.00    -0.353 OA
HETATM   23  C17 UNL     1      26.783   0.661  52.022  1.00  0.00     0.210 C 
ENDBRANCH   7  22
TORSDOF 4
ENDMDL
MODEL 9
REMARK VINA RESULT:      -5.9      3.774      6.215
REMARK  4 active torsions:
REMARK  status: ('A' for Active; 'I' for Inactive)
REMARK    1  A    between atoms: C2_2  and  C3_3 
REMARK    2  A    between atoms: N1_6  and  C6_7 
REMARK    3  A    between atoms: C14_18  and  O1_19 
REMARK    4  A    between atoms: C16_21  and  O2_22 
ROOT
HETATM    1  C3  UNL     1      20.991   0.151  52.074  1.00  0.00    -0.024 C 
HETATM    2  C4  UNL     1      20.861   0.647  50.887  1.00  0.00     0.003 C 
HETATM    3  C5  UNL     1      21.917   0.983  49.879  1.00  0.00     0.152 C 
HETATM    4  N1  UNL     1      22.946   1.852  50.459  1.00  0.00    -0.357 N 
HETATM    5  C13 UNL     1      23.873   1.481  51.503  1.00  0.00     0.192 C 
HETATM    6  C14 UNL     1      23.432   0.395  52.374  1.00  0.00     0.097 C 
HETATM    7  C16 UNL     1      22.272  -0.227  52.680  1.00  0.00     0.105 C 
ENDROOT
BRANCH   4   8
HETATM    8  C6  UNL     1      23.017   3.157  49.915  1.00  0.00     0.138 C 
HETATM    9  N2  UNL     1      23.078   3.598  48.734  1.00  0.00    -0.226 NA
HETATM   10  C7  UNL     1      23.171   4.927  48.268  1.00  0.00     0.235 C 
HETATM   11  N3  UNL     1      23.245   5.908  49.159  1.00  0.00    -0.244 NA
HETATM   12  C8  UNL     1      23.250   5.470  50.539  1.00  0.00     0.071 A 
HETATM   13  C9  UNL     1      23.688   6.021  51.667  1.00  0.00     0.030 A 
HETATM   14  C12 UNL     1      22.680   4.169  50.884  1.00  0.00     0.159 A 
HETATM   15  C10 UNL     1      23.417   5.064  52.756  1.00  0.00     0.001 A 
HETATM   16  C11 UNL     1      22.822   3.952  52.301  1.00  0.00     0.013 A 
HETATM   17 CL1  UNL     1      20.869   4.453  50.552  1.00  0.00    -0.099 Cl
ENDBRANCH   4   8
BRANCH   6  18
HETATM   18  O1  UNL     1      24.528  -0.116  53.057  1.00  0.00    -0.356 OA
HETATM   19  C15 UNL     1      25.537   0.805  53.435  1.00  0.00     0.209 C 
ENDBRANCH   6  18
BRANCH   1  20
HETATM   20  C2  UNL     1      19.708  -0.007  52.723  1.00  0.00     0.007 C 
HETATM   21  C1  UNL     1      18.511  -0.143  52.089  1.00  0.00     0.039 C 
ENDBRANCH   1  20
BRANCH   7  22
HETATM   22  O2  UNL     1      22.284  -1.247  53.585  1.00  0.00    -0.353 OA
HETATM   23  C17 UNL     1      22.180  -1.174  54.980  1.00  0.00     0.210 C 
ENDBRANCH   7  22
TORSDOF 4
ENDMDL
