MODEL 1
REMARK VINA RESULT:      -7.5      0.000      0.000
REMARK  7 active torsions:
REMARK  status: ('A' for Active; 'I' for Inactive)
REMARK    1  A    between atoms: O1_2  and  C2_3 
REMARK    2  A    between atoms: C6_9  and  N3_10 
REMARK    3  A    between atoms: C9_14  and  O2_15 
REMARK    4  A    between atoms: O2_15  and  C10_16 
REMARK    5  A    between atoms: C10_16  and  C11_17 
REMARK    6  A    between atoms: C11_17  and  C12_18 
REMARK    7  A    between atoms: C12_18  and  N4_19 
ROOT
HETATM    1  C2  UNL     1      24.975   0.429  53.027  1.00  0.00     0.103 A 
HETATM    2  C3  UNL     1      25.840  -0.655  53.055  1.00  0.00     0.072 A 
HETATM    3  C4  UNL     1      27.171  -0.371  53.270  1.00  0.00     0.075 A 
HETATM    4  N1  UNL     1      28.021  -1.404  53.303  1.00  0.00    -0.241 NA
HETATM    5  C5  UNL     1      29.347  -1.236  53.509  1.00  0.00     0.236 A 
HETATM    6  N2  UNL     1      29.837   0.002  53.688  1.00  0.00    -0.222 NA
HETATM    7  C6  UNL     1      29.024   1.076  53.664  1.00  0.00     0.165 A 
HETATM    8  C7  UNL     1      27.682   0.892  53.454  1.00  0.00     0.043 A 
HETATM    9  C8  UNL     1      26.757   1.903  53.412  1.00  0.00     0.057 A 
HETATM   10  C9  UNL     1      25.402   1.755  53.206  1.00  0.00     0.103 A 
ENDROOT
BRANCH  10  11
HETATM   11  O2  UNL     1      24.475   2.635  53.154  1.00  0.00    -0.348 OA
BRANCH  11  12
HETATM   12  C10 UNL     1      23.681   3.628  52.827  1.00  0.00     0.177 C 
BRANCH  12  13
HETATM   13  C11 UNL     1      22.617   3.393  51.743  1.00  0.00     0.057 C 
BRANCH  13  14
HETATM   14  C12 UNL     1      23.310   2.986  50.495  1.00  0.00     0.274 C 
BRANCH  14  15
HETATM   15  N4  UNL     1      24.223   3.989  49.989  1.00  0.00     0.091 N 
HETATM   16  C13 UNL     1      23.605   4.821  48.977  1.00  0.00     0.302 C 
HETATM   17  C14 UNL     1      24.586   5.920  48.637  1.00  0.00     0.302 C 
HETATM   18  N5  UNL     1      25.770   5.858  49.474  1.00  0.00     0.087 N 
HETATM   19  C15 UNL     1      26.724   6.853  48.966  1.00  0.00     0.310 C 
HETATM   20  C16 UNL     1      26.430   4.572  49.375  1.00  0.00     0.302 C 
HETATM   21  C17 UNL     1      25.474   3.425  49.545  1.00  0.00     0.302 C 
ENDBRANCH  14  15
ENDBRANCH  13  14
ENDBRANCH  12  13
ENDBRANCH  11  12
ENDBRANCH  10  11
BRANCH   1  22
HETATM   22  O1  UNL     1      23.640   0.144  52.811  1.00  0.00    -0.353 OA
HETATM   23  C1  UNL     1      22.799  -0.482  53.735  1.00  0.00     0.210 C 
ENDBRANCH   1  22
BRANCH   7  24
HETATM   24  N3  UNL     1      29.467   2.415  53.845  1.00  0.00    -0.205 N 
HETATM   25  F1  UNL     1      30.029   2.459  55.049  1.00  0.00    -0.100 F 
HETATM   26  H6  UNL     1      29.403   3.258  53.210  1.00  0.00     0.201 HD
ENDBRANCH   7  24
TORSDOF 7
ENDMDL
MODEL 2
REMARK VINA RESULT:      -7.1      2.113      3.632
REMARK  7 active torsions:
REMARK  status: ('A' for Active; 'I' for Inactive)
REMARK    1  A    between atoms: O1_2  and  C2_3 
REMARK    2  A    between atoms: C6_9  and  N3_10 
REMARK    3  A    between atoms: C9_14  and  O2_15 
REMARK    4  A    between atoms: O2_15  and  C10_16 
REMARK    5  A    between atoms: C10_16  and  C11_17 
REMARK    6  A    between atoms: C11_17  and  C12_18 
REMARK    7  A    between atoms: C12_18  and  N4_19 
ROOT
HETATM    1  C2  UNL     1      24.872   0.630  53.105  1.00  0.00     0.103 A 
HETATM    2  C3  UNL     1      25.706  -0.478  53.127  1.00  0.00     0.072 A 
HETATM    3  C4  UNL     1      27.047  -0.232  53.328  1.00  0.00     0.075 A 
HETATM    4  N1  UNL     1      27.868  -1.289  53.355  1.00  0.00    -0.241 NA
HETATM    5  C5  UNL     1      29.200  -1.158  53.547  1.00  0.00     0.236 A 
HETATM    6  N2  UNL     1      29.727   0.066  53.719  1.00  0.00    -0.222 NA
HETATM    7  C6  UNL     1      28.944   1.163  53.701  1.00  0.00     0.165 A 
HETATM    8  C7  UNL     1      27.595   1.017  53.505  1.00  0.00     0.043 A 
HETATM    9  C8  UNL     1      26.699   2.054  53.469  1.00  0.00     0.057 A 
HETATM   10  C9  UNL     1      25.339   1.944  53.277  1.00  0.00     0.103 A 
ENDROOT
BRANCH  10  11
HETATM   11  O2  UNL     1      24.437   2.850  53.233  1.00  0.00    -0.348 OA
BRANCH  11  12
HETATM   12  C10 UNL     1      23.765   3.970  53.099  1.00  0.00     0.177 C 
BRANCH  12  13
HETATM   13  C11 UNL     1      23.554   4.536  51.685  1.00  0.00     0.057 C 
BRANCH  13  14
HETATM   14  C12 UNL     1      22.101   4.767  51.491  1.00  0.00     0.274 C 
BRANCH  14  15
HETATM   15  N4  UNL     1      21.318   3.549  51.491  1.00  0.00     0.091 N 
HETATM   16  C13 UNL     1      21.690   2.668  50.403  1.00  0.00     0.302 C 
HETATM   17  C14 UNL     1      20.929   1.375  50.590  1.00  0.00     0.302 C 
HETATM   18  N5  UNL     1      20.158   1.382  51.819  1.00  0.00     0.087 N 
HETATM   19  C15 UNL     1      19.336   0.164  51.832  1.00  0.00     0.310 C 
HETATM   20  C16 UNL     1      19.234   2.498  51.866  1.00  0.00     0.302 C 
HETATM   21  C17 UNL     1      19.899   3.803  51.529  1.00  0.00     0.302 C 
ENDBRANCH  14  15
ENDBRANCH  13  14
ENDBRANCH  12  13
ENDBRANCH  11  12
ENDBRANCH  10  11
BRANCH   1  22
HETATM   22  O1  UNL     1      23.528   0.384  52.903  1.00  0.00    -0.353 OA
HETATM   23  C1  UNL     1      22.857  -0.768  53.322  1.00  0.00     0.210 C 
ENDBRANCH   1  22
BRANCH   7  24
HETATM   24  N3  UNL     1      29.428   2.488  53.876  1.00  0.00    -0.205 N 
HETATM   25  F1  UNL     1      30.100   2.489  55.022  1.00  0.00    -0.100 F 
HETATM   26  H6  UNL     1      29.319   3.350  53.273  1.00  0.00     0.201 HD
ENDBRANCH   7  24
TORSDOF 7
ENDMDL
MODEL 3
REMARK VINA RESULT:      -7.1      2.883      4.558
REMARK  7 active torsions:
REMARK  status: ('A' for Active; 'I' for Inactive)
REMARK    1  A    between atoms: O1_2  and  C2_3 
REMARK    2  A    between atoms: C6_9  and  N3_10 
REMARK    3  A    between atoms: C9_14  and  O2_15 
REMARK    4  A    between atoms: O2_15  and  C10_16 
REMARK    5  A    between atoms: C10_16  and  C11_17 
REMARK    6  A    between atoms: C11_17  and  C12_18 
REMARK    7  A    between atoms: C12_18  and  N4_19 
ROOT
HETATM    1  C2  UNL     1      25.338   1.414  53.402  1.00  0.00     0.103 A 
HETATM    2  C3  UNL     1      26.656   1.819  53.547  1.00  0.00     0.072 A 
HETATM    3  C4  UNL     1      27.611   0.826  53.496  1.00  0.00     0.075 A 
HETATM    4  N1  UNL     1      28.890   1.197  53.631  1.00  0.00    -0.241 NA
HETATM    5  C5  UNL     1      29.903   0.302  53.595  1.00  0.00     0.236 A 
HETATM    6  N2  UNL     1      29.630  -1.001  53.417  1.00  0.00    -0.222 NA
HETATM    7  C6  UNL     1      28.359  -1.427  53.275  1.00  0.00     0.165 A 
HETATM    8  C7  UNL     1      27.341  -0.510  53.314  1.00  0.00     0.043 A 
HETATM    9  C8  UNL     1      26.012  -0.820  53.180  1.00  0.00     0.057 A 
HETATM   10  C9  UNL     1      24.964   0.074  53.212  1.00  0.00     0.103 A 
ENDROOT
BRANCH  10  11
HETATM   11  O2  UNL     1      23.706  -0.127  53.092  1.00  0.00    -0.348 OA
BRANCH  11  12
HETATM   12  C10 UNL     1      22.502  -0.646  53.018  1.00  0.00     0.177 C 
BRANCH  12  13
HETATM   13  C11 UNL     1      21.524  -0.402  54.179  1.00  0.00     0.057 C 
BRANCH  13  14
HETATM   14  C12 UNL     1      20.186  -0.114  53.603  1.00  0.00     0.274 C 
BRANCH  14  15
HETATM   15  N4  UNL     1      20.237   0.691  52.401  1.00  0.00     0.091 N 
HETATM   16  C13 UNL     1      20.270   2.108  52.701  1.00  0.00     0.302 C 
HETATM   17  C14 UNL     1      20.478   2.839  51.394  1.00  0.00     0.302 C 
HETATM   18  N5  UNL     1      20.672   1.918  50.290  1.00  0.00     0.087 N 
HETATM   19  C15 UNL     1      20.704   2.710  49.053  1.00  0.00     0.310 C 
HETATM   20  C16 UNL     1      19.559   0.999  50.158  1.00  0.00     0.302 C 
HETATM   21  C17 UNL     1      19.193   0.353  51.464  1.00  0.00     0.302 C 
ENDBRANCH  14  15
ENDBRANCH  13  14
ENDBRANCH  12  13
ENDBRANCH  11  12
ENDBRANCH  10  11
BRANCH   1  22
HETATM   22  O1  UNL     1      24.380   2.410  53.454  1.00  0.00    -0.353 OA
HETATM   23  C1  UNL     1      23.998   3.204  52.370  1.00  0.00     0.210 C 
ENDBRANCH   1  22
BRANCH   7  24
HETATM   24  N3  UNL     1      27.992  -2.787  53.083  1.00  0.00    -0.205 N 
HETATM   25  F1  UNL     1      29.043  -3.510  53.457  1.00  0.00    -0.100 F 
HETATM   26  H6  UNL     1      27.097  -3.218  52.722  1.00  0.00     0.201 HD
ENDBRANCH   7  24
TORSDOF 7
ENDMDL
MODEL 4
REMARK VINA RESULT:      -7.1      3.670      6.307
REMARK  7 active torsions:
REMARK  status: ('A' for Active; 'I' for Inactive)
REMARK    1  A    between atoms: O1_2  and  C2_3 
REMARK    2  A    between atoms: C6_9  and  N3_10 
REMARK    3  A    between atoms: C9_14  and  O2_15 
REMARK    4  A    between atoms: O2_15  and  C10_16 
REMARK    5  A    between atoms: C10_16  and  C11_17 
REMARK    6  A    between atoms: C11_17  and  C12_18 
REMARK    7  A    between atoms: C12_18  and  N4_19 
ROOT
HETATM    1  C2  UNL     1      24.609   1.427  53.327  1.00  0.00     0.103 A 
HETATM    2  C3  UNL     1      25.684   2.272  53.562  1.00  0.00     0.072 A 
HETATM    3  C4  UNL     1      26.915   1.669  53.707  1.00  0.00     0.075 A 
HETATM    4  N1  UNL     1      27.966   2.467  53.932  1.00  0.00    -0.241 NA
HETATM    5  C5  UNL     1      29.218   1.978  54.088  1.00  0.00     0.236 A 
HETATM    6  N2  UNL     1      29.424   0.653  54.016  1.00  0.00    -0.222 NA
HETATM    7  C6  UNL     1      28.400  -0.194  53.791  1.00  0.00     0.165 A 
HETATM    8  C7  UNL     1      27.137   0.314  53.635  1.00  0.00     0.043 A 
HETATM    9  C8  UNL     1      26.019  -0.444  53.400  1.00  0.00     0.057 A 
HETATM   10  C9  UNL     1      24.736   0.032  53.237  1.00  0.00     0.103 A 
ENDROOT
BRANCH  10  11
HETATM   11  O2  UNL     1      23.645  -0.599  53.013  1.00  0.00    -0.348 OA
BRANCH  11  12
HETATM   12  C10 UNL     1      22.391  -0.961  52.877  1.00  0.00     0.177 C 
BRANCH  12  13
HETATM   13  C11 UNL     1      21.481  -0.942  54.116  1.00  0.00     0.057 C 
BRANCH  13  14
HETATM   14  C12 UNL     1      20.444   0.100  53.913  1.00  0.00     0.274 C 
BRANCH  14  15
HETATM   15  N4  UNL     1      19.187  -0.426  53.426  1.00  0.00     0.091 N 
HETATM   16  C13 UNL     1      19.017  -1.823  53.767  1.00  0.00     0.302 C 
HETATM   17  C14 UNL     1      17.618  -2.221  53.351  1.00  0.00     0.302 C 
HETATM   18  N5  UNL     1      16.869  -1.088  52.842  1.00  0.00     0.087 N 
HETATM   19  C15 UNL     1      15.595  -1.599  52.319  1.00  0.00     0.310 C 
HETATM   20  C16 UNL     1      17.545  -0.457  51.725  1.00  0.00     0.302 C 
HETATM   21  C17 UNL     1      18.992  -0.179  52.018  1.00  0.00     0.302 C 
ENDBRANCH  14  15
ENDBRANCH  13  14
ENDBRANCH  12  13
ENDBRANCH  11  12
ENDBRANCH  10  11
BRANCH   1  22
HETATM   22  O1  UNL     1      23.374   2.031  53.182  1.00  0.00    -0.353 OA
HETATM   23  C1  UNL     1      22.973   2.766  52.063  1.00  0.00     0.210 C 
ENDBRANCH   1  22
BRANCH   7  24
HETATM   24  N3  UNL     1      28.540  -1.606  53.701  1.00  0.00    -0.205 N 
HETATM   25  F1  UNL     1      29.830  -1.837  53.478  1.00  0.00    -0.100 F 
HETATM   26  H6  UNL     1      27.824  -2.380  53.781  1.00  0.00     0.201 HD
ENDBRANCH   7  24
TORSDOF 7
ENDMDL
MODEL 5
REMARK VINA RESULT:      -6.9      1.697      2.345
REMARK  7 active torsions:
REMARK  status: ('A' for Active; 'I' for Inactive)
REMARK    1  A    between atoms: O1_2  and  C2_3 
REMARK    2  A    between atoms: C6_9  and  N3_10 
REMARK    3  A    between atoms: C9_14  and  O2_15 
REMARK    4  A    between atoms: O2_15  and  C10_16 
REMARK    5  A    between atoms: C10_16  and  C11_17 
REMARK    6  A    between atoms: C11_17  and  C12_18 
REMARK    7  A    between atoms: C12_18  and  N4_19 
ROOT
HETATM    1  C2  UNL     1      24.934   0.191  53.021  1.00  0.00     0.103 A 
HETATM    2  C3  UNL     1      25.868  -0.831  53.105  1.00  0.00     0.072 A 
HETATM    3  C4  UNL     1      27.175  -0.450  53.322  1.00  0.00     0.075 A 
HETATM    4  N1  UNL     1      28.091  -1.421  53.408  1.00  0.00    -0.241 NA
HETATM    5  C5  UNL     1      29.400  -1.156  53.621  1.00  0.00     0.236 A 
HETATM    6  N2  UNL     1      29.805   0.118  53.751  1.00  0.00    -0.222 NA
HETATM    7  C6  UNL     1      28.922   1.134  53.672  1.00  0.00     0.165 A 
HETATM    8  C7  UNL     1      27.598   0.852  53.457  1.00  0.00     0.043 A 
HETATM    9  C8  UNL     1      26.609   1.796  53.361  1.00  0.00     0.057 A 
HETATM   10  C9  UNL     1      25.270   1.549  53.147  1.00  0.00     0.103 A 
ENDROOT
BRANCH  10  11
HETATM   11  O2  UNL     1      24.287   2.363  53.048  1.00  0.00    -0.348 OA
BRANCH  11  12
HETATM   12  C10 UNL     1      23.305   3.124  52.626  1.00  0.00     0.177 C 
BRANCH  12  13
HETATM   13  C11 UNL     1      23.500   4.649  52.636  1.00  0.00     0.057 C 
BRANCH  13  14
HETATM   14  C12 UNL     1      22.363   5.265  51.907  1.00  0.00     0.274 C 
BRANCH  14  15
HETATM   15  N4  UNL     1      22.219   4.783  50.550  1.00  0.00     0.091 N 
HETATM   16  C13 UNL     1      22.948   5.604  49.605  1.00  0.00     0.302 C 
HETATM   17  C14 UNL     1      22.858   4.926  48.256  1.00  0.00     0.302 C 
HETATM   18  N5  UNL     1      22.171   3.651  48.344  1.00  0.00     0.087 N 
HETATM   19  C15 UNL     1      21.992   3.150  46.975  1.00  0.00     0.310 C 
HETATM   20  C16 UNL     1      20.841   3.796  48.903  1.00  0.00     0.302 C 
HETATM   21  C17 UNL     1      20.839   4.604  50.170  1.00  0.00     0.302 C 
ENDBRANCH  14  15
ENDBRANCH  13  14
ENDBRANCH  12  13
ENDBRANCH  11  12
ENDBRANCH  10  11
BRANCH   1  22
HETATM   22  O1  UNL     1      23.624  -0.191  52.803  1.00  0.00    -0.353 OA
HETATM   23  C1  UNL     1      22.837  -0.897  53.717  1.00  0.00     0.210 C 
ENDBRANCH   1  22
BRANCH   7  24
HETATM   24  N3  UNL     1      29.274   2.505  53.801  1.00  0.00    -0.205 N 
HETATM   25  F1  UNL     1      30.081   2.583  54.853  1.00  0.00    -0.100 F 
HETATM   26  H6  UNL     1      28.996   3.348  53.226  1.00  0.00     0.201 HD
ENDBRANCH   7  24
TORSDOF 7
ENDMDL
MODEL 6
REMARK VINA RESULT:      -6.8      1.950      3.246
REMARK  7 active torsions:
REMARK  status: ('A' for Active; 'I' for Inactive)
REMARK    1  A    between atoms: O1_2  and  C2_3 
REMARK    2  A    between atoms: C6_9  and  N3_10 
REMARK    3  A    between atoms: C9_14  and  O2_15 
REMARK    4  A    between atoms: O2_15  and  C10_16 
REMARK    5  A    between atoms: C10_16  and  C11_17 
REMARK    6  A    between atoms: C11_17  and  C12_18 
REMARK    7  A    between atoms: C12_18  and  N4_19 
ROOT
HETATM    1  C2  UNL     1      24.597   1.943  53.179  1.00  0.00     0.103 A 
HETATM    2  C3  UNL     1      25.852   2.391  53.565  1.00  0.00     0.072 A 
HETATM    3  C4  UNL     1      26.850   1.442  53.619  1.00  0.00     0.075 A 
HETATM    4  N1  UNL     1      28.069   1.854  53.987  1.00  0.00    -0.241 NA
HETATM    5  C5  UNL     1      29.119   1.005  54.071  1.00  0.00     0.236 A 
HETATM    6  N2  UNL     1      28.944  -0.294  53.779  1.00  0.00    -0.222 NA
HETATM    7  C6  UNL     1      27.737  -0.761  53.403  1.00  0.00     0.165 A 
HETATM    8  C7  UNL     1      26.681   0.110  53.322  1.00  0.00     0.043 A 
HETATM    9  C8  UNL     1      25.410  -0.244  52.950  1.00  0.00     0.057 A 
HETATM   10  C9  UNL     1      24.327   0.603  52.856  1.00  0.00     0.103 A 
ENDROOT
BRANCH  10  11
HETATM   11  O2  UNL     1      23.117   0.360  52.517  1.00  0.00    -0.348 OA
BRANCH  11  12
HETATM   12  C10 UNL     1      21.965  -0.199  52.233  1.00  0.00     0.177 C 
BRANCH  12  13
HETATM   13  C11 UNL     1      21.187   0.300  51.005  1.00  0.00     0.057 C 
BRANCH  13  14
HETATM   14  C12 UNL     1      20.792   1.710  51.249  1.00  0.00     0.274 C 
BRANCH  14  15
HETATM   15  N4  UNL     1      21.503   2.659  50.419  1.00  0.00     0.091 N 
HETATM   16  C13 UNL     1      20.605   3.612  49.799  1.00  0.00     0.302 C 
HETATM   17  C14 UNL     1      21.459   4.640  49.090  1.00  0.00     0.302 C 
HETATM   18  N5  UNL     1      22.873   4.413  49.325  1.00  0.00     0.087 N 
HETATM   19  C15 UNL     1      23.618   5.351  48.475  1.00  0.00     0.310 C 
HETATM   20  C16 UNL     1      23.277   3.082  48.916  1.00  0.00     0.302 C 
HETATM   21  C17 UNL     1      22.367   2.017  49.459  1.00  0.00     0.302 C 
ENDBRANCH  14  15
ENDBRANCH  13  14
ENDBRANCH  12  13
ENDBRANCH  11  12
ENDBRANCH  10  11
BRANCH   1  22
HETATM   22  O1  UNL     1      23.596   2.894  53.125  1.00  0.00    -0.353 OA
HETATM   23  C1  UNL     1      23.786   4.232  52.768  1.00  0.00     0.210 C 
ENDBRANCH   1  22
BRANCH   7  24
HETATM   24  N3  UNL     1      27.475  -2.119  53.078  1.00  0.00    -0.205 N 
HETATM   25  F1  UNL     1      28.659  -2.720  53.016  1.00  0.00    -0.100 F 
HETATM   26  H6  UNL     1      26.564  -2.627  52.904  1.00  0.00     0.201 HD
ENDBRANCH   7  24
TORSDOF 7
ENDMDL
MODEL 7
REMARK VINA RESULT:      -6.8      3.233      5.688
REMARK  7 active torsions:
REMARK  status: ('A' for Active; 'I' for Inactive)
REMARK    1  A    between atoms: O1_2  and  C2_3 
REMARK    2  A    between atoms: C6_9  and  N3_10 
REMARK    3  A    between atoms: C9_14  and  O2_15 
REMARK    4  A    between atoms: O2_15  and  C10_16 
REMARK    5  A    between atoms: C10_16  and  C11_17 
REMARK    6  A    between atoms: C11_17  and  C12_18 
REMARK    7  A    between atoms: C12_18  and  N4_19 
ROOT
HETATM    1  C2  UNL     1      25.798   2.388  51.335  1.00  0.00     0.103 A 
HETATM    2  C3  UNL     1      27.041   2.333  51.948  1.00  0.00     0.072 A 
HETATM    3  C4  UNL     1      27.169   1.446  52.994  1.00  0.00     0.075 A 
HETATM    4  N1  UNL     1      28.362   1.376  53.598  1.00  0.00    -0.241 NA
HETATM    5  C5  UNL     1      28.594   0.538  54.634  1.00  0.00     0.236 A 
HETATM    6  N2  UNL     1      27.604  -0.254  55.079  1.00  0.00    -0.222 NA
HETATM    7  C6  UNL     1      26.385  -0.223  54.506  1.00  0.00     0.165 A 
HETATM    8  C7  UNL     1      26.162   0.631  53.457  1.00  0.00     0.043 A 
HETATM    9  C8  UNL     1      24.969   0.751  52.793  1.00  0.00     0.057 A 
HETATM   10  C9  UNL     1      24.710   1.596  51.735  1.00  0.00     0.103 A 
ENDROOT
BRANCH  10  11
HETATM   11  O2  UNL     1      23.636   1.768  51.061  1.00  0.00    -0.348 OA
BRANCH  11  12
HETATM   12  C10 UNL     1      22.745   1.966  50.118  1.00  0.00     0.177 C 
BRANCH  12  13
HETATM   13  C11 UNL     1      21.329   2.406  50.525  1.00  0.00     0.057 C 
BRANCH  13  14
HETATM   14  C12 UNL     1      21.187   2.212  51.989  1.00  0.00     0.274 C 
BRANCH  14  15
HETATM   15  N4  UNL     1      20.336   1.096  52.344  1.00  0.00     0.091 N 
HETATM   16  C13 UNL     1      21.038   0.117  53.149  1.00  0.00     0.302 C 
HETATM   17  C14 UNL     1      20.023  -0.915  53.588  1.00  0.00     0.302 C 
HETATM   18  N5  UNL     1      18.682  -0.563  53.159  1.00  0.00     0.087 N 
HETATM   19  C15 UNL     1      17.802  -1.692  53.487  1.00  0.00     0.310 C 
HETATM   20  C16 UNL     1      18.608  -0.391  51.721  1.00  0.00     0.302 C 
HETATM   21  C17 UNL     1      19.696   0.502  51.195  1.00  0.00     0.302 C 
ENDBRANCH  14  15
ENDBRANCH  13  14
ENDBRANCH  12  13
ENDBRANCH  11  12
ENDBRANCH  10  11
BRANCH   1  22
HETATM   22  O1  UNL     1      25.670   3.279  50.285  1.00  0.00    -0.353 OA
HETATM   23  C1  UNL     1      26.723   3.718  49.480  1.00  0.00     0.210 C 
ENDBRANCH   1  22
BRANCH   7  24
HETATM   24  N3  UNL     1      25.290  -1.030  54.920  1.00  0.00    -0.205 N 
HETATM   25  F1  UNL     1      25.244  -0.938  56.245  1.00  0.00    -0.100 F 
HETATM   26  H6  UNL     1      24.609  -1.613  54.360  1.00  0.00     0.201 HD
ENDBRANCH   7  24
TORSDOF 7
ENDMDL
MODEL 8
REMARK VINA RESULT:      -6.7      3.061      4.901
REMARK  7 active torsions:
REMARK  status: ('A' for Active; 'I' for Inactive)
REMARK    1  A    between atoms: O1_2  and  C2_3 
REMARK    2  A    between atoms: C6_9  and  N3_10 
REMARK    3  A    between atoms: C9_14  and  O2_15 
REMARK    4  A    between atoms: O2_15  and  C10_16 
REMARK    5  A    between atoms: C10_16  and  C11_17 
REMARK    6  A    between atoms: C11_17  and  C12_18 
REMARK    7  A    between atoms: C12_18  and  N4_19 
ROOT
HETATM    1  C2  UNL     1      26.702   0.671  53.110  1.00  0.00     0.103 A 
HETATM    2  C3  UNL     1      26.423  -0.133  54.206  1.00  0.00     0.072 A 
HETATM    3  C4  UNL     1      25.102  -0.481  54.389  1.00  0.00     0.075 A 
HETATM    4  N1  UNL     1      24.813  -1.258  55.439  1.00  0.00    -0.241 NA
HETATM    5  C5  UNL     1      23.549  -1.659  55.709  1.00  0.00     0.236 A 
HETATM    6  N2  UNL     1      22.546  -1.271  54.904  1.00  0.00    -0.222 NA
HETATM    7  C6  UNL     1      22.784  -0.488  53.833  1.00  0.00     0.165 A 
HETATM    8  C7  UNL     1      24.068  -0.089  53.571  1.00  0.00     0.043 A 
HETATM    9  C8  UNL     1      24.435   0.703  52.514  1.00  0.00     0.057 A 
HETATM   10  C9  UNL     1      25.714   1.121  52.219  1.00  0.00     0.103 A 
ENDROOT
BRANCH  10  11
HETATM   11  O2  UNL     1      26.142   1.852  51.259  1.00  0.00    -0.348 OA
BRANCH  11  12
HETATM   12  C10 UNL     1      26.517   2.845  50.487  1.00  0.00     0.177 C 
BRANCH  12  13
HETATM   13  C11 UNL     1      25.585   4.060  50.347  1.00  0.00     0.057 C 
BRANCH  13  14
HETATM   14  C12 UNL     1      24.482   3.693  49.424  1.00  0.00     0.274 C 
BRANCH  14  15
HETATM   15  N4  UNL     1      23.192   3.605  50.074  1.00  0.00     0.091 N 
HETATM   16  C13 UNL     1      23.245   4.071  51.445  1.00  0.00     0.302 C 
HETATM   17  C14 UNL     1      21.827   4.082  51.971  1.00  0.00     0.302 C 
HETATM   18  N5  UNL     1      20.871   3.726  50.940  1.00  0.00     0.087 N 
HETATM   19  C15 UNL     1      19.554   3.607  51.579  1.00  0.00     0.310 C 
HETATM   20  C16 UNL     1      21.163   2.428  50.363  1.00  0.00     0.302 C 
HETATM   21  C17 UNL     1      22.605   2.292  49.963  1.00  0.00     0.302 C 
ENDBRANCH  14  15
ENDBRANCH  13  14
ENDBRANCH  12  13
ENDBRANCH  11  12
ENDBRANCH  10  11
BRANCH   1  22
HETATM   22  O1  UNL     1      28.026   1.022  52.927  1.00  0.00    -0.353 OA
HETATM   23  C1  UNL     1      29.045   0.801  53.857  1.00  0.00     0.210 C 
ENDBRANCH   1  22
BRANCH   7  24
HETATM   24  N3  UNL     1      21.776  -0.038  52.937  1.00  0.00    -0.205 N 
HETATM   25  F1  UNL     1      21.282   1.077  53.465  1.00  0.00    -0.100 F 
HETATM   26  H6  UNL     1      21.429  -0.445  52.025  1.00  0.00     0.201 HD
ENDBRANCH   7  24
TORSDOF 7
ENDMDL
MODEL 9
REMARK VINA RESULT:      -6.7      2.323      3.542
REMARK  7 active torsions:
REMARK  status: ('A' for Active; 'I' for Inactive)
REMARK    1  A    between atoms: O1_2  and  C2_3 
REMARK    2  A    between atoms: C6_9  and  N3_10 
REMARK    3  A    between atoms: C9_14  and  O2_15 
REMARK    4  A    between atoms: O2_15  and  C10_16 
REMARK    5  A    between atoms: C10_16  and  C11_17 
REMARK    6  A    between atoms: C11_17  and  C12_18 
REMARK    7  A    between atoms: C12_18  and  N4_19 
ROOT
HETATM    1  C2  UNL     1      24.440   1.866  51.404  1.00  0.00     0.103 A 
HETATM    2  C3  UNL     1      23.886   0.903  52.233  1.00  0.00     0.072 A 
HETATM    3  C4  UNL     1      24.675   0.463  53.274  1.00  0.00     0.075 A 
HETATM    4  N1  UNL     1      24.157  -0.465  54.087  1.00  0.00    -0.241 NA
HETATM    5  C5  UNL     1      24.846  -0.963  55.139  1.00  0.00     0.236 A 
HETATM    6  N2  UNL     1      26.090  -0.518  55.385  1.00  0.00    -0.222 NA
HETATM    7  C6  UNL     1      26.658   0.416  54.597  1.00  0.00     0.165 A 
HETATM    8  C7  UNL     1      25.949   0.912  53.534  1.00  0.00     0.043 A 
HETATM    9  C8  UNL     1      26.416   1.864  52.665  1.00  0.00     0.057 A 
HETATM   10  C9  UNL     1      25.731   2.386  51.589  1.00  0.00     0.103 A 
ENDROOT
BRANCH  10  11
HETATM   11  O2  UNL     1      26.088   3.271  50.736  1.00  0.00    -0.348 OA
BRANCH  11  12
HETATM   12  C10 UNL     1      26.685   3.957  49.790  1.00  0.00     0.177 C 
BRANCH  12  13
HETATM   13  C11 UNL     1      25.909   5.091  49.101  1.00  0.00     0.057 C 
BRANCH  13  14
HETATM   14  C12 UNL     1      25.287   5.932  50.154  1.00  0.00     0.274 C 
BRANCH  14  15
HETATM   15  N4  UNL     1      23.852   6.061  50.015  1.00  0.00     0.091 N 
HETATM   16  C13 UNL     1      23.153   5.637  51.211  1.00  0.00     0.302 C 
HETATM   17  C14 UNL     1      21.689   5.958  51.016  1.00  0.00     0.302 C 
HETATM   18  N5  UNL     1      21.458   6.660  49.767  1.00  0.00     0.087 N 
HETATM   19  C15 UNL     1      20.004   6.783  49.591  1.00  0.00     0.310 C 
HETATM   20  C16 UNL     1      21.943   5.903  48.629  1.00  0.00     0.302 C 
HETATM   21  C17 UNL     1      23.349   5.412  48.829  1.00  0.00     0.302 C 
ENDBRANCH  14  15
ENDBRANCH  13  14
ENDBRANCH  12  13
ENDBRANCH  11  12
ENDBRANCH  10  11
BRANCH   1  22
HETATM   22  O1  UNL     1      23.649   2.307  50.360  1.00  0.00    -0.353 OA
HETATM   23  C1  UNL     1      22.281   2.051  50.233  1.00  0.00     0.210 C 
ENDBRANCH   1  22
BRANCH   7  24
HETATM   24  N3  UNL     1      27.967   0.935  54.794  1.00  0.00    -0.205 N 
HETATM   25  F1  UNL     1      28.713  -0.088  55.196  1.00  0.00    -0.100 F 
HETATM   26  H6  UNL     1      28.350   1.913  54.671  1.00  0.00     0.201 HD
ENDBRANCH   7  24
TORSDOF 7
ENDMDL
