MODEL 1
REMARK VINA RESULT:      -8.1      0.000      0.000
REMARK  8 active torsions:
REMARK  status: ('A' for Active; 'I' for Inactive)
REMARK    1  A    between atoms: N1_2  and  C3_4 
REMARK    2  A    between atoms: C3_4  and  C4_5 
REMARK    3  A    between atoms: C5_6  and  C6_7 
REMARK       I    between atoms: C6_7  and  N2_9 
REMARK    4  A    between atoms: N2_9  and  C7_10 
REMARK    5  A    between atoms: C10_13  and  N3_14 
REMARK    6  A    between atoms: N3_14  and  C11_15 
REMARK    7  A    between atoms: C18_26  and  O2_27 
REMARK    8  A    between atoms: O2_27  and  C19_28 
ROOT
HETATM    1  C7  UNL     1      25.843   3.299  50.300  1.00  0.00     0.074 A 
HETATM    2  C8  UNL     1      26.630   2.398  50.842  1.00  0.00     0.047 A 
HETATM    3  C9  UNL     1      25.520   1.944  51.664  1.00  0.00     0.051 A 
HETATM    4  C10 UNL     1      24.703   1.265  52.497  1.00  0.00     0.141 C 
HETATM    5  N4  UNL     1      23.455   1.743  53.055  1.00  0.00    -0.226 NA
HETATM    6  C17 UNL     1      23.091   2.967  52.727  1.00  0.00     0.208 C 
HETATM    7  N5  UNL     1      23.922   3.780  51.852  1.00  0.00    -0.344 N 
HETATM    8  C18 UNL     1      24.611   2.905  50.973  1.00  0.00     0.212 A 
HETATM    9  H18 UNL     1      23.795   4.802  52.098  1.00  0.00     0.164 HD
ENDROOT
BRANCH   1  10
HETATM   10  N2  UNL     1      26.196   4.259  49.301  1.00  0.00    -0.323 N 
HETATM   11  C6  UNL     1      25.914   5.638  49.408  1.00  0.00     0.245 C 
HETATM   12  O1  UNL     1      25.323   6.059  50.433  1.00  0.00    -0.268 OA
HETATM   13  H11 UNL     1      26.689   3.957  48.434  1.00  0.00     0.169 HD
BRANCH  11  14
HETATM   14  C5  UNL     1      26.274   6.592  48.394  1.00  0.00     0.072 C 
HETATM   15  C4  UNL     1      27.524   6.890  48.106  1.00  0.00     0.008 C 
BRANCH  15  16
HETATM   16  C3  UNL     1      27.907   7.866  47.069  1.00  0.00     0.299 C 
BRANCH  16  17
HETATM   17  N1  UNL     1      29.227   8.407  47.270  1.00  0.00     0.083 N 
HETATM   18  C1  UNL     1      29.455   8.646  48.661  1.00  0.00     0.309 C 
HETATM   19  C2  UNL     1      30.260   7.579  46.694  1.00  0.00     0.309 C 
ENDBRANCH  16  17
ENDBRANCH  15  16
ENDBRANCH  11  14
ENDBRANCH   1  10
BRANCH   8  20
HETATM   20  O2  UNL     1      23.689   2.262  50.117  1.00  0.00    -0.343 OA
BRANCH  20  21
HETATM   21  C19 UNL     1      22.681   3.037  49.648  1.00  0.00     0.151 C 
HETATM   22  C20 UNL     1      21.418   2.164  49.628  1.00  0.00     0.060 C 
HETATM   23  C21 UNL     1      21.456   1.587  48.256  1.00  0.00     0.170 C 
HETATM   24  O3  UNL     1      22.363   2.258  47.479  1.00  0.00    -0.389 OA
HETATM   25  C22 UNL     1      22.772   3.388  48.169  1.00  0.00     0.199 C 
ENDBRANCH  20  21
ENDBRANCH   8  20
BRANCH   4  26
HETATM   26  N3  UNL     1      25.144   0.015  53.086  1.00  0.00    -0.340 N 
HETATM   27  H13 UNL     1      24.418  -0.685  53.356  1.00  0.00     0.167 HD
BRANCH  26  28
HETATM   28  C11 UNL     1      26.533  -0.206  53.271  1.00  0.00     0.035 A 
HETATM   29  C12 UNL     1      27.065  -1.401  52.816  1.00  0.00     0.032 A 
HETATM   30  C13 UNL     1      28.432  -1.535  53.042  1.00  0.00     0.046 A 
HETATM   31  C14 UNL     1      29.225  -0.585  53.660  1.00  0.00     0.138 A 
HETATM   32  F1  UNL     1      30.547  -0.841  53.818  1.00  0.00    -0.204 F 
HETATM   33  C15 UNL     1      28.631   0.574  54.085  1.00  0.00     0.074 A 
HETATM   34 CL1  UNL     1      29.602   1.807  54.877  1.00  0.00    -0.081 Cl
HETATM   35  C16 UNL     1      27.268   0.781  53.895  1.00  0.00     0.056 A 
ENDBRANCH  26  28
ENDBRANCH   4  26
TORSDOF 8
ENDMDL
MODEL 2
REMARK VINA RESULT:      -8.0      1.627      1.936
REMARK  8 active torsions:
REMARK  status: ('A' for Active; 'I' for Inactive)
REMARK    1  A    between atoms: N1_2  and  C3_4 
REMARK    2  A    between atoms: C3_4  and  C4_5 
REMARK    3  A    between atoms: C5_6  and  C6_7 
REMARK       I    between atoms: C6_7  and  N2_9 
REMARK    4  A    between atoms: N2_9  and  C7_10 
REMARK    5  A    between atoms: C10_13  and  N3_14 
REMARK    6  A    between atoms: N3_14  and  C11_15 
REMARK    7  A    between atoms: C18_26  and  O2_27 
REMARK    8  A    between atoms: O2_27  and  C19_28 
ROOT
HETATM    1  C7  UNL     1      26.038   4.283  49.671  1.00  0.00     0.074 A 
HETATM    2  C8  UNL     1      26.588   3.151  50.044  1.00  0.00     0.047 A 
HETATM    3  C9  UNL     1      25.487   2.935  50.968  1.00  0.00     0.051 A 
HETATM    4  C10 UNL     1      24.602   2.423  51.849  1.00  0.00     0.141 C 
HETATM    5  N4  UNL     1      23.606   3.165  52.596  1.00  0.00    -0.226 NA
HETATM    6  C17 UNL     1      23.572   4.469  52.403  1.00  0.00     0.208 C 
HETATM    7  N5  UNL     1      24.504   5.109  51.488  1.00  0.00    -0.344 N 
HETATM    8  C18 UNL     1      24.822   4.174  50.468  1.00  0.00     0.212 A 
HETATM    9  H18 UNL     1      24.699   6.096  51.819  1.00  0.00     0.164 HD
ENDROOT
BRANCH   1  10
HETATM   10  N2  UNL     1      26.542   5.208  48.704  1.00  0.00    -0.323 N 
HETATM   11  C6  UNL     1      26.556   6.607  48.894  1.00  0.00     0.245 C 
HETATM   12  O1  UNL     1      26.105   7.078  49.967  1.00  0.00    -0.268 OA
HETATM   13  H11 UNL     1      26.929   4.863  47.800  1.00  0.00     0.169 HD
BRANCH  11  14
HETATM   14  C5  UNL     1      27.066   7.525  47.912  1.00  0.00     0.072 C 
HETATM   15  C4  UNL     1      28.279   7.430  47.408  1.00  0.00     0.008 C 
BRANCH  15  16
HETATM   16  C3  UNL     1      28.815   8.364  46.401  1.00  0.00     0.299 C 
BRANCH  16  17
HETATM   17  N1  UNL     1      30.147   8.816  46.708  1.00  0.00     0.083 N 
HETATM   18  C1  UNL     1      30.130  10.204  47.051  1.00  0.00     0.309 C 
HETATM   19  C2  UNL     1      30.779   8.020  47.734  1.00  0.00     0.309 C 
ENDBRANCH  16  17
ENDBRANCH  15  16
ENDBRANCH  11  14
ENDBRANCH   1  10
BRANCH   8  20
HETATM   20  O2  UNL     1      23.671   3.900  49.695  1.00  0.00    -0.343 OA
BRANCH  20  21
HETATM   21  C19 UNL     1      22.922   4.975  49.350  1.00  0.00     0.151 C 
HETATM   22  C20 UNL     1      21.454   4.527  49.380  1.00  0.00     0.060 C 
HETATM   23  C21 UNL     1      21.235   4.072  47.980  1.00  0.00     0.170 C 
HETATM   24  O3  UNL     1      22.258   4.496  47.173  1.00  0.00    -0.389 OA
HETATM   25  C22 UNL     1      23.031   5.395  47.890  1.00  0.00     0.199 C 
ENDBRANCH  20  21
ENDBRANCH   8  20
BRANCH   4  26
HETATM   26  N3  UNL     1      24.729   1.047  52.288  1.00  0.00    -0.340 N 
HETATM   27  H13 UNL     1      23.908   0.414  52.167  1.00  0.00     0.167 HD
BRANCH  26  28
HETATM   28  C11 UNL     1      25.954   0.617  52.861  1.00  0.00     0.035 A 
HETATM   29  C12 UNL     1      26.631   1.504  53.682  1.00  0.00     0.032 A 
HETATM   30  C13 UNL     1      27.823   1.001  54.198  1.00  0.00     0.046 A 
HETATM   31  C14 UNL     1      28.322  -0.263  53.938  1.00  0.00     0.138 A 
HETATM   32  F1  UNL     1      29.497  -0.629  54.505  1.00  0.00    -0.204 F 
HETATM   33  C15 UNL     1      27.598  -1.086  53.116  1.00  0.00     0.074 A 
HETATM   34 CL1  UNL     1      28.197  -2.700  52.759  1.00  0.00    -0.081 Cl
HETATM   35  C16 UNL     1      26.397  -0.655  52.563  1.00  0.00     0.056 A 
ENDBRANCH  26  28
ENDBRANCH   4  26
TORSDOF 8
ENDMDL
MODEL 3
REMARK VINA RESULT:      -7.8      3.449      7.270
REMARK  8 active torsions:
REMARK  status: ('A' for Active; 'I' for Inactive)
REMARK    1  A    between atoms: N1_2  and  C3_4 
REMARK    2  A    between atoms: C3_4  and  C4_5 
REMARK    3  A    between atoms: C5_6  and  C6_7 
REMARK       I    between atoms: C6_7  and  N2_9 
REMARK    4  A    between atoms: N2_9  and  C7_10 
REMARK    5  A    between atoms: C10_13  and  N3_14 
REMARK    6  A    between atoms: N3_14  and  C11_15 
REMARK    7  A    between atoms: C18_26  and  O2_27 
REMARK    8  A    between atoms: O2_27  and  C19_28 
ROOT
HETATM    1  C7  UNL     1      22.249   1.739  51.736  1.00  0.00     0.074 A 
HETATM    2  C8  UNL     1      22.934   1.310  52.770  1.00  0.00     0.047 A 
HETATM    3  C9  UNL     1      24.084   2.069  52.306  1.00  0.00     0.051 A 
HETATM    4  C10 UNL     1      25.274   2.694  52.183  1.00  0.00     0.141 C 
HETATM    5  N4  UNL     1      25.835   3.241  50.965  1.00  0.00    -0.226 NA
HETATM    6  C17 UNL     1      25.117   3.102  49.867  1.00  0.00     0.208 C 
HETATM    7  N5  UNL     1      23.832   2.421  49.902  1.00  0.00    -0.344 N 
HETATM    8  C18 UNL     1      23.267   2.627  51.188  1.00  0.00     0.212 A 
HETATM    9  H18 UNL     1      23.656   1.955  48.968  1.00  0.00     0.164 HD
ENDROOT
BRANCH   1  10
HETATM   10  N2  UNL     1      20.893   1.421  51.411  1.00  0.00    -0.323 N 
HETATM   11  C6  UNL     1      19.780   2.110  51.940  1.00  0.00     0.245 C 
HETATM   12  O1  UNL     1      19.977   3.058  52.739  1.00  0.00    -0.268 OA
HETATM   13  H11 UNL     1      20.681   0.643  50.750  1.00  0.00     0.169 HD
BRANCH  11  14
HETATM   14  C5  UNL     1      18.422   1.778  51.603  1.00  0.00     0.072 C 
HETATM   15  C4  UNL     1      18.017   0.541  51.407  1.00  0.00     0.008 C 
BRANCH  15  16
HETATM   16  C3  UNL     1      16.628   0.187  51.061  1.00  0.00     0.299 C 
BRANCH  16  17
HETATM   17  N1  UNL     1      15.990  -0.623  52.067  1.00  0.00     0.083 N 
HETATM   18  C1  UNL     1      16.973  -1.266  52.880  1.00  0.00     0.309 C 
HETATM   19  C2  UNL     1      15.045   0.125  52.863  1.00  0.00     0.309 C 
ENDBRANCH  16  17
ENDBRANCH  15  16
ENDBRANCH  11  14
ENDBRANCH   1  10
BRANCH   8  20
HETATM   20  O2  UNL     1      22.967   3.997  51.365  1.00  0.00    -0.343 OA
BRANCH  20  21
HETATM   21  C19 UNL     1      22.666   4.685  50.238  1.00  0.00     0.151 C 
HETATM   22  C20 UNL     1      23.043   6.151  50.494  1.00  0.00     0.060 C 
HETATM   23  C21 UNL     1      21.775   6.712  51.035  1.00  0.00     0.170 C 
HETATM   24  O3  UNL     1      20.735   5.848  50.812  1.00  0.00    -0.389 OA
HETATM   25  C22 UNL     1      21.177   4.848  49.960  1.00  0.00     0.199 C 
ENDBRANCH  20  21
ENDBRANCH   8  20
BRANCH   4  26
HETATM   26  N3  UNL     1      26.218   2.679  53.284  1.00  0.00    -0.340 N 
HETATM   27  H13 UNL     1      26.151   3.436  54.000  1.00  0.00     0.167 HD
BRANCH  26  28
HETATM   28  C11 UNL     1      27.189   1.647  53.345  1.00  0.00     0.035 A 
HETATM   29  C12 UNL     1      28.468   1.983  53.755  1.00  0.00     0.032 A 
HETATM   30  C13 UNL     1      29.355   0.910  53.783  1.00  0.00     0.046 A 
HETATM   31  C14 UNL     1      29.029  -0.389  53.439  1.00  0.00     0.138 A 
HETATM   32  F1  UNL     1      29.989  -1.343  53.510  1.00  0.00    -0.204 F 
HETATM   33  C15 UNL     1      27.744  -0.649  53.042  1.00  0.00     0.074 A 
HETATM   34 CL1  UNL     1      27.288  -2.288  52.596  1.00  0.00    -0.081 Cl
HETATM   35  C16 UNL     1      26.800   0.371  52.989  1.00  0.00     0.056 A 
ENDBRANCH  26  28
ENDBRANCH   4  26
TORSDOF 8
ENDMDL
MODEL 4
REMARK VINA RESULT:      -7.7      2.821      3.576
REMARK  8 active torsions:
REMARK  status: ('A' for Active; 'I' for Inactive)
REMARK    1  A    between atoms: N1_2  and  C3_4 
REMARK    2  A    between atoms: C3_4  and  C4_5 
REMARK    3  A    between atoms: C5_6  and  C6_7 
REMARK       I    between atoms: C6_7  and  N2_9 
REMARK    4  A    between atoms: N2_9  and  C7_10 
REMARK    5  A    between atoms: C10_13  and  N3_14 
REMARK    6  A    between atoms: N3_14  and  C11_15 
REMARK    7  A    between atoms: C18_26  and  O2_27 
REMARK    8  A    between atoms: O2_27  and  C19_28 
ROOT
HETATM    1  C7  UNL     1      26.037   5.090  49.461  1.00  0.00     0.074 A 
HETATM    2  C8  UNL     1      26.237   3.793  49.507  1.00  0.00     0.047 A 
HETATM    3  C9  UNL     1      24.991   3.641  50.238  1.00  0.00     0.051 A 
HETATM    4  C10 UNL     1      23.886   3.168  50.855  1.00  0.00     0.141 C 
HETATM    5  N4  UNL     1      22.997   3.917  51.719  1.00  0.00    -0.226 NA
HETATM    6  C17 UNL     1      23.307   5.181  51.934  1.00  0.00     0.208 C 
HETATM    7  N5  UNL     1      24.492   5.769  51.328  1.00  0.00    -0.344 N 
HETATM    8  C18 UNL     1      24.725   5.103  50.096  1.00  0.00     0.212 A 
HETATM    9  H18 UNL     1      24.866   6.533  51.958  1.00  0.00     0.164 HD
ENDROOT
BRANCH   1  10
HETATM   10  N2  UNL     1      26.888   6.071  48.862  1.00  0.00    -0.323 N 
HETATM   11  C6  UNL     1      26.985   7.404  49.318  1.00  0.00     0.245 C 
HETATM   12  O1  UNL     1      26.292   7.760  50.303  1.00  0.00    -0.268 OA
HETATM   13  H11 UNL     1      27.483   5.821  48.044  1.00  0.00     0.169 HD
BRANCH  11  14
HETATM   14  C5  UNL     1      27.845   8.380  48.705  1.00  0.00     0.072 C 
HETATM   15  C4  UNL     1      29.047   8.088  48.254  1.00  0.00     0.008 C 
BRANCH  15  16
HETATM   16  C3  UNL     1      29.940   9.079  47.624  1.00  0.00     0.299 C 
BRANCH  16  17
HETATM   17  N1  UNL     1      31.019   9.488  48.485  1.00  0.00     0.083 N 
HETATM   18  C1  UNL     1      30.667  10.684  49.184  1.00  0.00     0.309 C 
HETATM   19  C2  UNL     1      31.432   8.442  49.391  1.00  0.00     0.309 C 
ENDBRANCH  16  17
ENDBRANCH  15  16
ENDBRANCH  11  14
ENDBRANCH   1  10
BRANCH   8  20
HETATM   20  O2  UNL     1      23.671   5.379  49.196  1.00  0.00    -0.343 OA
BRANCH  20  21
HETATM   21  C19 UNL     1      23.321   6.683  49.080  1.00  0.00     0.151 C 
HETATM   22  C20 UNL     1      21.787   6.732  49.035  1.00  0.00     0.060 C 
HETATM   23  C21 UNL     1      21.513   6.650  47.574  1.00  0.00     0.170 C 
HETATM   24  O3  UNL     1      22.660   6.872  46.859  1.00  0.00    -0.389 OA
HETATM   25  C22 UNL     1      23.637   7.319  47.733  1.00  0.00     0.199 C 
ENDBRANCH  20  21
ENDBRANCH   8  20
BRANCH   4  26
HETATM   26  N3  UNL     1      23.612   1.744  50.859  1.00  0.00    -0.340 N 
HETATM   27  H13 UNL     1      23.154   1.328  50.017  1.00  0.00     0.167 HD
BRANCH  26  28
HETATM   28  C11 UNL     1      23.971   0.977  51.997  1.00  0.00     0.035 A 
HETATM   29  C12 UNL     1      25.320   0.809  52.264  1.00  0.00     0.032 A 
HETATM   30  C13 UNL     1      25.581   0.041  53.397  1.00  0.00     0.046 A 
HETATM   31  C14 UNL     1      24.613  -0.520  54.208  1.00  0.00     0.138 A 
HETATM   32  F1  UNL     1      25.003  -1.248  55.283  1.00  0.00    -0.204 F 
HETATM   33  C15 UNL     1      23.298  -0.312  53.883  1.00  0.00     0.074 A 
HETATM   34 CL1  UNL     1      22.034  -1.010  54.887  1.00  0.00    -0.081 Cl
HETATM   35  C16 UNL     1      22.957   0.444  52.766  1.00  0.00     0.056 A 
ENDBRANCH  26  28
ENDBRANCH   4  26
TORSDOF 8
ENDMDL
MODEL 5
REMARK VINA RESULT:      -7.5      3.558      4.075
REMARK  8 active torsions:
REMARK  status: ('A' for Active; 'I' for Inactive)
REMARK    1  A    between atoms: N1_2  and  C3_4 
REMARK    2  A    between atoms: C3_4  and  C4_5 
REMARK    3  A    between atoms: C5_6  and  C6_7 
REMARK       I    between atoms: C6_7  and  N2_9 
REMARK    4  A    between atoms: N2_9  and  C7_10 
REMARK    5  A    between atoms: C10_13  and  N3_14 
REMARK    6  A    between atoms: N3_14  and  C11_15 
REMARK    7  A    between atoms: C18_26  and  O2_27 
REMARK    8  A    between atoms: O2_27  and  C19_28 
ROOT
HETATM    1  C7  UNL     1      26.030   3.922  49.951  1.00  0.00     0.074 A 
HETATM    2  C8  UNL     1      26.493   2.785  50.414  1.00  0.00     0.047 A 
HETATM    3  C9  UNL     1      25.362   2.710  51.324  1.00  0.00     0.051 A 
HETATM    4  C10 UNL     1      24.426   2.324  52.217  1.00  0.00     0.141 C 
HETATM    5  N4  UNL     1      23.469   3.183  52.885  1.00  0.00    -0.226 NA
HETATM    6  C17 UNL     1      23.529   4.469  52.601  1.00  0.00     0.208 C 
HETATM    7  N5  UNL     1      24.521   4.978  51.667  1.00  0.00    -0.344 N 
HETATM    8  C18 UNL     1      24.793   3.953  50.723  1.00  0.00     0.212 A 
HETATM    9  H18 UNL     1      24.778   5.970  51.932  1.00  0.00     0.164 HD
ENDROOT
BRANCH   1  10
HETATM   10  N2  UNL     1      26.616   4.739  48.934  1.00  0.00    -0.323 N 
HETATM   11  C6  UNL     1      26.596   6.151  48.957  1.00  0.00     0.245 C 
HETATM   12  O1  UNL     1      26.038   6.733  49.919  1.00  0.00    -0.268 OA
HETATM   13  H11 UNL     1      27.092   4.300  48.117  1.00  0.00     0.169 HD
BRANCH  11  14
HETATM   14  C5  UNL     1      27.190   6.959  47.927  1.00  0.00     0.072 C 
HETATM   15  C4  UNL     1      28.483   6.964  47.680  1.00  0.00     0.008 C 
BRANCH  15  16
HETATM   16  C3  UNL     1      29.105   7.788  46.627  1.00  0.00     0.299 C 
BRANCH  16  17
HETATM   17  N1  UNL     1      28.255   8.861  46.180  1.00  0.00     0.083 N 
HETATM   18  C1  UNL     1      28.805  10.122  46.570  1.00  0.00     0.309 C 
HETATM   19  C2  UNL     1      27.994   8.809  44.761  1.00  0.00     0.309 C 
ENDBRANCH  16  17
ENDBRANCH  15  16
ENDBRANCH  11  14
ENDBRANCH   1  10
BRANCH   8  20
HETATM   20  O2  UNL     1      23.642   3.702  49.943  1.00  0.00    -0.343 OA
BRANCH  20  21
HETATM   21  C19 UNL     1      22.945   4.797  49.552  1.00  0.00     0.151 C 
HETATM   22  C20 UNL     1      21.460   4.408  49.559  1.00  0.00     0.060 C 
HETATM   23  C21 UNL     1      21.255   3.923  48.166  1.00  0.00     0.170 C 
HETATM   24  O3  UNL     1      22.312   4.286  47.373  1.00  0.00    -0.389 OA
HETATM   25  C22 UNL     1      23.104   5.172  48.084  1.00  0.00     0.199 C 
ENDBRANCH  20  21
ENDBRANCH   8  20
BRANCH   4  26
HETATM   26  N3  UNL     1      24.449   0.977  52.755  1.00  0.00    -0.340 N 
HETATM   27  H13 UNL     1      25.377   0.525  52.911  1.00  0.00     0.167 HD
BRANCH  26  28
HETATM   28  C11 UNL     1      23.219   0.331  53.045  1.00  0.00     0.035 A 
HETATM   29  C12 UNL     1      23.164  -0.482  54.164  1.00  0.00     0.032 A 
HETATM   30  C13 UNL     1      21.922  -1.077  54.371  1.00  0.00     0.046 A 
HETATM   31  C14 UNL     1      20.818  -0.898  53.557  1.00  0.00     0.138 A 
HETATM   32  F1  UNL     1      19.665  -1.537  53.872  1.00  0.00    -0.204 F 
HETATM   33  C15 UNL     1      20.946  -0.079  52.467  1.00  0.00     0.074 A 
HETATM   34 CL1  UNL     1      19.567   0.176  51.406  1.00  0.00    -0.081 Cl
HETATM   35  C16 UNL     1      22.155   0.552  52.194  1.00  0.00     0.056 A 
ENDBRANCH  26  28
ENDBRANCH   4  26
TORSDOF 8
ENDMDL
MODEL 6
REMARK VINA RESULT:      -7.5      2.648      4.274
REMARK  8 active torsions:
REMARK  status: ('A' for Active; 'I' for Inactive)
REMARK    1  A    between atoms: N1_2  and  C3_4 
REMARK    2  A    between atoms: C3_4  and  C4_5 
REMARK    3  A    between atoms: C5_6  and  C6_7 
REMARK       I    between atoms: C6_7  and  N2_9 
REMARK    4  A    between atoms: N2_9  and  C7_10 
REMARK    5  A    between atoms: C10_13  and  N3_14 
REMARK    6  A    between atoms: N3_14  and  C11_15 
REMARK    7  A    between atoms: C18_26  and  O2_27 
REMARK    8  A    between atoms: O2_27  and  C19_28 
ROOT
HETATM    1  C7  UNL     1      27.214   5.969  48.676  1.00  0.00     0.074 A 
HETATM    2  C8  UNL     1      27.388   4.671  48.767  1.00  0.00     0.047 A 
HETATM    3  C9  UNL     1      26.125   4.565  49.477  1.00  0.00     0.051 A 
HETATM    4  C10 UNL     1      24.999   4.133  50.086  1.00  0.00     0.141 C 
HETATM    5  N4  UNL     1      24.107   4.926  50.907  1.00  0.00    -0.226 NA
HETATM    6  C17 UNL     1      24.437   6.190  51.088  1.00  0.00     0.208 C 
HETATM    7  N5  UNL     1      25.645   6.736  50.489  1.00  0.00    -0.344 N 
HETATM    8  C18 UNL     1      25.890   6.027  49.283  1.00  0.00     0.212 A 
HETATM    9  H18 UNL     1      26.021   7.512  51.102  1.00  0.00     0.164 HD
ENDROOT
BRANCH   1  10
HETATM   10  N2  UNL     1      28.095   6.915  48.065  1.00  0.00    -0.323 N 
HETATM   11  C6  UNL     1      28.319   8.215  48.569  1.00  0.00     0.245 C 
HETATM   12  O1  UNL     1      27.717   8.572  49.612  1.00  0.00    -0.268 OA
HETATM   13  H11 UNL     1      28.617   6.662  47.199  1.00  0.00     0.169 HD
BRANCH  11  14
HETATM   14  C5  UNL     1      29.208   9.155  47.943  1.00  0.00     0.072 C 
HETATM   15  C4  UNL     1      29.373  10.385  48.384  1.00  0.00     0.008 C 
BRANCH  15  16
HETATM   16  C3  UNL     1      30.281  11.359  47.751  1.00  0.00     0.299 C 
BRANCH  16  17
HETATM   17  N1  UNL     1      29.885  12.724  47.979  1.00  0.00     0.083 N 
HETATM   18  C1  UNL     1      29.513  13.343  46.745  1.00  0.00     0.309 C 
HETATM   19  C2  UNL     1      28.841  12.841  48.970  1.00  0.00     0.309 C 
ENDBRANCH  16  17
ENDBRANCH  15  16
ENDBRANCH  11  14
ENDBRANCH   1  10
BRANCH   8  20
HETATM   20  O2  UNL     1      24.860   6.294  48.353  1.00  0.00    -0.343 OA
BRANCH  20  21
HETATM   21  C19 UNL     1      24.568   7.602  48.156  1.00  0.00     0.151 C 
HETATM   22  C20 UNL     1      23.042   7.705  48.024  1.00  0.00     0.060 C 
HETATM   23  C21 UNL     1      22.843   7.560  46.556  1.00  0.00     0.170 C 
HETATM   24  O3  UNL     1      24.034   7.703  45.895  1.00  0.00    -0.389 OA
HETATM   25  C22 UNL     1      24.980   8.157  46.799  1.00  0.00     0.199 C 
ENDBRANCH  20  21
ENDBRANCH   8  20
BRANCH   4  26
HETATM   26  N3  UNL     1      24.697   2.715  50.129  1.00  0.00    -0.340 N 
HETATM   27  H13 UNL     1      24.262   2.279  49.287  1.00  0.00     0.167 HD
BRANCH  26  28
HETATM   28  C11 UNL     1      25.003   1.982  51.305  1.00  0.00     0.035 A 
HETATM   29  C12 UNL     1      23.947   1.477  52.045  1.00  0.00     0.032 A 
HETATM   30  C13 UNL     1      24.338   0.775  53.183  1.00  0.00     0.046 A 
HETATM   31  C14 UNL     1      25.649   0.576  53.573  1.00  0.00     0.138 A 
HETATM   32  F1  UNL     1      25.894  -0.128  54.705  1.00  0.00    -0.204 F 
HETATM   33  C15 UNL     1      26.643   1.104  52.791  1.00  0.00     0.074 A 
HETATM   34 CL1  UNL     1      28.324   0.875  53.252  1.00  0.00    -0.081 Cl
HETATM   35  C16 UNL     1      26.332   1.818  51.639  1.00  0.00     0.056 A 
ENDBRANCH  26  28
ENDBRANCH   4  26
TORSDOF 8
ENDMDL
MODEL 7
REMARK VINA RESULT:      -7.5      3.798      4.543
REMARK  8 active torsions:
REMARK  status: ('A' for Active; 'I' for Inactive)
REMARK    1  A    between atoms: N1_2  and  C3_4 
REMARK    2  A    between atoms: C3_4  and  C4_5 
REMARK    3  A    between atoms: C5_6  and  C6_7 
REMARK       I    between atoms: C6_7  and  N2_9 
REMARK    4  A    between atoms: N2_9  and  C7_10 
REMARK    5  A    between atoms: C10_13  and  N3_14 
REMARK    6  A    between atoms: N3_14  and  C11_15 
REMARK    7  A    between atoms: C18_26  and  O2_27 
REMARK    8  A    between atoms: O2_27  and  C19_28 
ROOT
HETATM    1  C7  UNL     1      26.312   5.113  49.258  1.00  0.00     0.074 A 
HETATM    2  C8  UNL     1      26.695   3.888  49.533  1.00  0.00     0.047 A 
HETATM    3  C9  UNL     1      25.519   3.724  50.372  1.00  0.00     0.051 A 
HETATM    4  C10 UNL     1      24.524   3.244  51.148  1.00  0.00     0.141 C 
HETATM    5  N4  UNL     1      23.581   4.028  51.919  1.00  0.00    -0.226 NA
HETATM    6  C17 UNL     1      23.719   5.338  51.867  1.00  0.00     0.208 C 
HETATM    7  N5  UNL     1      24.779   5.942  51.074  1.00  0.00    -0.344 N 
HETATM    8  C18 UNL     1      25.043   5.082  49.976  1.00  0.00     0.212 A 
HETATM    9  H18 UNL     1      25.072   6.857  51.518  1.00  0.00     0.164 HD
ENDROOT
BRANCH   1  10
HETATM   10  N2  UNL     1      26.986   6.058  48.423  1.00  0.00    -0.323 N 
HETATM   11  C6  UNL     1      27.117   7.428  48.740  1.00  0.00     0.245 C 
HETATM   12  O1  UNL     1      26.621   7.852  49.813  1.00  0.00    -0.268 OA
HETATM   13  H11 UNL     1      27.415   5.751  47.524  1.00  0.00     0.169 HD
BRANCH  11  14
HETATM   14  C5  UNL     1      27.798   8.366  47.890  1.00  0.00     0.072 C 
HETATM   15  C4  UNL     1      28.179   9.557  48.302  1.00  0.00     0.008 C 
BRANCH  15  16
HETATM   16  C3  UNL     1      28.878  10.529  47.441  1.00  0.00     0.299 C 
BRANCH  16  17
HETATM   17  N1  UNL     1      29.816  11.347  48.165  1.00  0.00     0.083 N 
HETATM   18  C1  UNL     1      29.132  12.417  48.822  1.00  0.00     0.309 C 
HETATM   19  C2  UNL     1      30.622  10.582  49.088  1.00  0.00     0.309 C 
ENDBRANCH  16  17
ENDBRANCH  15  16
ENDBRANCH  11  14
ENDBRANCH   1  10
BRANCH   8  20
HETATM   20  O2  UNL     1      23.919   5.037  49.121  1.00  0.00    -0.343 OA
BRANCH  20  21
HETATM   21  C19 UNL     1      23.308   6.224  48.887  1.00  0.00     0.151 C 
HETATM   22  C20 UNL     1      21.802   5.940  48.789  1.00  0.00     0.060 C 
HETATM   23  C21 UNL     1      21.624   5.694  47.331  1.00  0.00     0.170 C 
HETATM   24  O3  UNL     1      22.732   6.102  46.637  1.00  0.00    -0.389 OA
HETATM   25  C22 UNL     1      23.549   6.811  47.503  1.00  0.00     0.199 C 
ENDBRANCH  20  21
ENDBRANCH   8  20
BRANCH   4  26
HETATM   26  N3  UNL     1      24.453   1.825  51.442  1.00  0.00    -0.340 N 
HETATM   27  H13 UNL     1      25.344   1.281  51.458  1.00  0.00     0.167 HD
BRANCH  26  28
HETATM   28  C11 UNL     1      23.187   1.237  51.694  1.00  0.00     0.035 A 
HETATM   29  C12 UNL     1      22.272   1.200  50.655  1.00  0.00     0.032 A 
HETATM   30  C13 UNL     1      21.056   0.609  50.991  1.00  0.00     0.046 A 
HETATM   31  C14 UNL     1      20.750   0.093  52.237  1.00  0.00     0.138 A 
HETATM   32  F1  UNL     1      19.527  -0.457  52.433  1.00  0.00    -0.204 F 
HETATM   33  C15 UNL     1      21.705   0.163  53.217  1.00  0.00     0.074 A 
HETATM   34 CL1  UNL     1      21.356  -0.481  54.816  1.00  0.00    -0.081 Cl
HETATM   35  C16 UNL     1      22.944   0.739  52.958  1.00  0.00     0.056 A 
ENDBRANCH  26  28
ENDBRANCH   4  26
TORSDOF 8
ENDMDL
MODEL 8
REMARK VINA RESULT:      -7.3      2.770      6.192
REMARK  8 active torsions:
REMARK  status: ('A' for Active; 'I' for Inactive)
REMARK    1  A    between atoms: N1_2  and  C3_4 
REMARK    2  A    between atoms: C3_4  and  C4_5 
REMARK    3  A    between atoms: C5_6  and  C6_7 
REMARK       I    between atoms: C6_7  and  N2_9 
REMARK    4  A    between atoms: N2_9  and  C7_10 
REMARK    5  A    between atoms: C10_13  and  N3_14 
REMARK    6  A    between atoms: N3_14  and  C11_15 
REMARK    7  A    between atoms: C18_26  and  O2_27 
REMARK    8  A    between atoms: O2_27  and  C19_28 
ROOT
HETATM    1  C7  UNL     1      22.824   2.832  50.686  1.00  0.00     0.074 A 
HETATM    2  C8  UNL     1      23.084   2.036  51.697  1.00  0.00     0.047 A 
HETATM    3  C9  UNL     1      24.492   2.383  51.590  1.00  0.00     0.051 A 
HETATM    4  C10 UNL     1      25.818   2.542  51.789  1.00  0.00     0.141 C 
HETATM    5  N4  UNL     1      26.781   3.019  50.818  1.00  0.00    -0.226 NA
HETATM    6  C17 UNL     1      26.318   3.312  49.619  1.00  0.00     0.208 C 
HETATM    7  N5  UNL     1      24.906   3.149  49.308  1.00  0.00    -0.344 N 
HETATM    8  C18 UNL     1      24.171   3.357  50.505  1.00  0.00     0.212 A 
HETATM    9  H18 UNL     1      24.797   2.921  48.280  1.00  0.00     0.164 HD
ENDROOT
BRANCH   1  10
HETATM   10  N2  UNL     1      21.546   3.081  50.095  1.00  0.00    -0.323 N 
HETATM   11  C6  UNL     1      20.988   2.280  49.074  1.00  0.00     0.245 C 
HETATM   12  O1  UNL     1      21.638   1.291  48.655  1.00  0.00    -0.268 OA
HETATM   13  H11 UNL     1      20.969   3.889  50.412  1.00  0.00     0.169 HD
BRANCH  11  14
HETATM   14  C5  UNL     1      19.701   2.543  48.488  1.00  0.00     0.072 C 
HETATM   15  C4  UNL     1      18.569   2.311  49.118  1.00  0.00     0.008 C 
BRANCH  15  16
HETATM   16  C3  UNL     1      17.243   2.575  48.530  1.00  0.00     0.299 C 
BRANCH  16  17
HETATM   17  N1  UNL     1      17.284   3.556  47.476  1.00  0.00     0.083 N 
HETATM   18  C1  UNL     1      16.638   3.049  46.305  1.00  0.00     0.309 C 
HETATM   19  C2  UNL     1      16.734   4.828  47.880  1.00  0.00     0.309 C 
ENDBRANCH  16  17
ENDBRANCH  15  16
ENDBRANCH  11  14
ENDBRANCH   1  10
BRANCH   8  20
HETATM   20  O2  UNL     1      24.307   4.700  50.923  1.00  0.00    -0.343 OA
BRANCH  20  21
HETATM   21  C19 UNL     1      24.286   5.630  49.937  1.00  0.00     0.151 C 
HETATM   22  C20 UNL     1      25.115   6.824  50.430  1.00  0.00     0.060 C 
HETATM   23  C21 UNL     1      24.085   7.671  51.091  1.00  0.00     0.170 C 
HETATM   24  O3  UNL     1      22.827   7.248  50.750  1.00  0.00    -0.389 OA
HETATM   25  C22 UNL     1      22.944   6.318  49.730  1.00  0.00     0.199 C 
ENDBRANCH  20  21
ENDBRANCH   8  20
BRANCH   4  26
HETATM   26  N3  UNL     1      26.437   2.024  52.993  1.00  0.00    -0.340 N 
HETATM   27  H13 UNL     1      26.470   2.642  53.835  1.00  0.00     0.167 HD
BRANCH  26  28
HETATM   28  C11 UNL     1      26.971   0.709  52.982  1.00  0.00     0.035 A 
HETATM   29  C12 UNL     1      26.155  -0.316  52.535  1.00  0.00     0.032 A 
HETATM   30  C13 UNL     1      26.758  -1.572  52.561  1.00  0.00     0.046 A 
HETATM   31  C14 UNL     1      28.051  -1.815  52.987  1.00  0.00     0.138 A 
HETATM   32  F1  UNL     1      28.517  -3.088  52.961  1.00  0.00    -0.204 F 
HETATM   33  C15 UNL     1      28.800  -0.752  53.416  1.00  0.00     0.074 A 
HETATM   34 CL1  UNL     1      30.449  -1.018  53.967  1.00  0.00    -0.081 Cl
HETATM   35  C16 UNL     1      28.268   0.533  53.419  1.00  0.00     0.056 A 
ENDBRANCH  26  28
ENDBRANCH   4  26
TORSDOF 8
ENDMDL
MODEL 9
REMARK VINA RESULT:      -7.2      2.900      4.779
REMARK  8 active torsions:
REMARK  status: ('A' for Active; 'I' for Inactive)
REMARK    1  A    between atoms: N1_2  and  C3_4 
REMARK    2  A    between atoms: C3_4  and  C4_5 
REMARK    3  A    between atoms: C5_6  and  C6_7 
REMARK       I    between atoms: C6_7  and  N2_9 
REMARK    4  A    between atoms: N2_9  and  C7_10 
REMARK    5  A    between atoms: C10_13  and  N3_14 
REMARK    6  A    between atoms: N3_14  and  C11_15 
REMARK    7  A    between atoms: C18_26  and  O2_27 
REMARK    8  A    between atoms: O2_27  and  C19_28 
ROOT
HETATM    1  C7  UNL     1      27.122   5.990  48.838  1.00  0.00     0.074 A 
HETATM    2  C8  UNL     1      27.024   4.681  48.850  1.00  0.00     0.047 A 
HETATM    3  C9  UNL     1      25.757   4.797  49.554  1.00  0.00     0.051 A 
HETATM    4  C10 UNL     1      24.559   4.572  50.135  1.00  0.00     0.141 C 
HETATM    5  N4  UNL     1      23.841   5.483  51.003  1.00  0.00    -0.226 NA
HETATM    6  C17 UNL     1      24.422   6.638  51.259  1.00  0.00     0.208 C 
HETATM    7  N5  UNL     1      25.724   6.957  50.694  1.00  0.00    -0.344 N 
HETATM    8  C18 UNL     1      25.831   6.285  49.448  1.00  0.00     0.212 A 
HETATM    9  H18 UNL     1      26.245   7.601  51.353  1.00  0.00     0.164 HD
ENDROOT
BRANCH   1  10
HETATM   10  N2  UNL     1      28.188   6.767  48.284  1.00  0.00    -0.323 N 
HETATM   11  C6  UNL     1      29.533   6.338  48.251  1.00  0.00     0.245 C 
HETATM   12  O1  UNL     1      29.822   5.213  48.729  1.00  0.00    -0.268 OA
HETATM   13  H11 UNL     1      27.995   7.706  47.874  1.00  0.00     0.169 HD
BRANCH  11  14
HETATM   14  C5  UNL     1      30.593   7.131  47.691  1.00  0.00     0.072 C 
HETATM   15  C4  UNL     1      31.848   6.731  47.669  1.00  0.00     0.008 C 
BRANCH  15  16
HETATM   16  C3  UNL     1      32.945   7.534  47.098  1.00  0.00     0.299 C 
BRANCH  16  17
HETATM   17  N1  UNL     1      34.245   7.102  47.542  1.00  0.00     0.083 N 
HETATM   18  C1  UNL     1      34.881   8.141  48.290  1.00  0.00     0.309 C 
HETATM   19  C2  UNL     1      34.194   5.864  48.285  1.00  0.00     0.309 C 
ENDBRANCH  16  17
ENDBRANCH  15  16
ENDBRANCH  11  14
ENDBRANCH   1  10
BRANCH   8  20
HETATM   20  O2  UNL     1      24.891   6.813  48.536  1.00  0.00    -0.343 OA
BRANCH  20  21
HETATM   21  C19 UNL     1      24.922   8.157  48.369  1.00  0.00     0.151 C 
HETATM   22  C20 UNL     1      23.466   8.644  48.379  1.00  0.00     0.060 C 
HETATM   23  C21 UNL     1      23.106   8.590  46.935  1.00  0.00     0.170 C 
HETATM   24  O3  UNL     1      24.231   8.446  46.167  1.00  0.00    -0.389 OA
HETATM   25  C22 UNL     1      25.338   8.625  46.980  1.00  0.00     0.199 C 
ENDBRANCH  20  21
ENDBRANCH   8  20
BRANCH   4  26
HETATM   26  N3  UNL     1      23.970   3.247  50.093  1.00  0.00    -0.340 N 
HETATM   27  H13 UNL     1      23.389   2.993  49.264  1.00  0.00     0.167 HD
BRANCH  26  28
HETATM   28  C11 UNL     1      24.205   2.356  51.171  1.00  0.00     0.035 A 
HETATM   29  C12 UNL     1      23.136   2.036  51.992  1.00  0.00     0.032 A 
HETATM   30  C13 UNL     1      23.458   1.159  53.025  1.00  0.00     0.046 A 
HETATM   31  C14 UNL     1      24.716   0.630  53.245  1.00  0.00     0.138 A 
HETATM   32  F1  UNL     1      24.895  -0.216  54.289  1.00  0.00    -0.204 F 
HETATM   33  C15 UNL     1      25.726   0.989  52.393  1.00  0.00     0.074 A 
HETATM   34 CL1  UNL     1      27.342   0.341  52.638  1.00  0.00    -0.081 Cl
HETATM   35  C16 UNL     1      25.484   1.862  51.337  1.00  0.00     0.056 A 
ENDBRANCH  26  28
ENDBRANCH   4  26
TORSDOF 8
ENDMDL
