MODEL 1
REMARK VINA RESULT:      -8.9      0.000      0.000
REMARK  6 active torsions:
REMARK  status: ('A' for Active; 'I' for Inactive)
REMARK    1  A    between atoms: C7_7  and  N1_8 
REMARK    2  A    between atoms: N1_8  and  C8_9 
REMARK    3  A    between atoms: C9_10  and  O1_11 
REMARK    4  A    between atoms: C12_15  and  C13_16 
REMARK    5  A    between atoms: C13_16  and  C14_17 
REMARK    6  A    between atoms: C14_17  and  O2_18 
ROOT
HETATM    1  C1  UNL     1      29.826  -0.923  53.800  1.00  0.00     0.018 C 
HETATM    2  C2  UNL     1      28.776  -0.409  53.490  1.00  0.00    -0.078 C 
HETATM    3  C3  UNL     1      27.524   0.174  53.123  1.00  0.00     0.019 A 
HETATM    4  C4  UNL     1      27.594   1.464  52.615  1.00  0.00     0.021 A 
HETATM    5  C5  UNL     1      26.424   2.100  52.234  1.00  0.00     0.004 A 
HETATM    6  C6  UNL     1      25.255   1.413  52.381  1.00  0.00     0.029 A 
HETATM    7  C7  UNL     1      25.122   0.136  52.876  1.00  0.00     0.030 A 
HETATM    8  C21 UNL     1      26.312  -0.457  53.243  1.00  0.00     0.049 A 
ENDROOT
BRANCH   7   9
HETATM    9  N1  UNL     1      23.900  -0.556  53.023  1.00  0.00    -0.374 N 
HETATM   10  H5  UNL     1      23.740  -1.408  52.456  1.00  0.00     0.160 HD
BRANCH   9  11
HETATM   11  C8  UNL     1      22.830  -0.197  53.894  1.00  0.00     0.197 A 
HETATM   12  C9  UNL     1      22.581  -1.200  54.959  1.00  0.00     0.166 A 
HETATM   13  N2  UNL     1      21.353  -1.606  54.906  1.00  0.00    -0.226 NA
HETATM   14  C10 UNL     1      20.635  -0.971  53.853  1.00  0.00     0.071 A 
HETATM   15  C11 UNL     1      19.339  -1.000  53.331  1.00  0.00     0.042 A 
HETATM   16  C18 UNL     1      21.521  -0.116  53.233  1.00  0.00     0.037 A 
HETATM   17  C12 UNL     1      18.949  -0.229  52.260  1.00  0.00    -0.018 A 
HETATM   18  C16 UNL     1      19.846   0.630  51.640  1.00  0.00     0.109 A 
HETATM   19  C17 UNL     1      21.121   0.651  52.164  1.00  0.00     0.113 A 
HETATM   20  O4  UNL     1      19.482   1.415  50.563  1.00  0.00    -0.346 OA
HETATM   21  O3  UNL     1      22.024   1.499  51.558  1.00  0.00    -0.345 OA
HETATM   22  C19 UNL     1      21.796   2.161  50.328  1.00  0.00     0.202 C 
HETATM   23  C20 UNL     1      20.345   2.427  50.100  1.00  0.00     0.202 C 
BRANCH  12  24
HETATM   24  O1  UNL     1      23.140  -1.918  56.038  1.00  0.00    -0.346 OA
HETATM   25  H7  UNL     1      23.289  -2.921  55.932  1.00  0.00     0.219 HD
ENDBRANCH  12  24
BRANCH  17  26
HETATM   26  C13 UNL     1      17.561  -0.290  51.740  1.00  0.00     0.068 C 
BRANCH  26  27
HETATM   27  C14 UNL     1      16.617  -0.952  52.710  1.00  0.00     0.171 C 
BRANCH  27  28
HETATM   28  O2  UNL     1      15.682  -0.111  53.263  1.00  0.00    -0.396 OA
HETATM   29  C15 UNL     1      15.015   0.525  52.217  1.00  0.00     0.201 C 
ENDBRANCH  27  28
ENDBRANCH  26  27
ENDBRANCH  17  26
ENDBRANCH   9  11
ENDBRANCH   7   9
TORSDOF 6
ENDMDL
MODEL 2
REMARK VINA RESULT:      -8.5      2.936      4.876
REMARK  6 active torsions:
REMARK  status: ('A' for Active; 'I' for Inactive)
REMARK    1  A    between atoms: C7_7  and  N1_8 
REMARK    2  A    between atoms: N1_8  and  C8_9 
REMARK    3  A    between atoms: C9_10  and  O1_11 
REMARK    4  A    between atoms: C12_15  and  C13_16 
REMARK    5  A    between atoms: C13_16  and  C14_17 
REMARK    6  A    between atoms: C14_17  and  O2_18 
ROOT
HETATM    1  C1  UNL     1      28.730  -2.786  53.055  1.00  0.00     0.018 C 
HETATM    2  C2  UNL     1      28.667  -1.586  53.202  1.00  0.00    -0.078 C 
HETATM    3  C3  UNL     1      28.580  -0.169  53.353  1.00  0.00     0.019 A 
HETATM    4  C4  UNL     1      29.528   0.401  54.193  1.00  0.00     0.021 A 
HETATM    5  C5  UNL     1      29.512   1.771  54.392  1.00  0.00     0.004 A 
HETATM    6  C6  UNL     1      28.554   2.493  53.742  1.00  0.00     0.029 A 
HETATM    7  C7  UNL     1      27.590   1.987  52.900  1.00  0.00     0.030 A 
HETATM    8  C21 UNL     1      27.643   0.619  52.733  1.00  0.00     0.049 A 
ENDROOT
BRANCH   7   9
HETATM    9  N1  UNL     1      26.604   2.753  52.241  1.00  0.00    -0.374 N 
HETATM   10  H5  UNL     1      26.191   3.564  52.736  1.00  0.00     0.160 HD
BRANCH   9  11
HETATM   11  C8  UNL     1      26.099   2.522  50.928  1.00  0.00     0.197 A 
HETATM   12  C9  UNL     1      26.429   3.611  49.975  1.00  0.00     0.166 A 
HETATM   13  N2  UNL     1      25.343   4.088  49.454  1.00  0.00    -0.226 NA
HETATM   14  C10 UNL     1      24.187   3.425  49.955  1.00  0.00     0.071 A 
HETATM   15  C11 UNL     1      22.803   3.497  49.772  1.00  0.00     0.042 A 
HETATM   16  C18 UNL     1      24.633   2.475  50.848  1.00  0.00     0.037 A 
HETATM   17  C12 UNL     1      21.919   2.677  50.437  1.00  0.00    -0.018 A 
HETATM   18  C16 UNL     1      22.376   1.724  51.336  1.00  0.00     0.109 A 
HETATM   19  C17 UNL     1      23.742   1.661  51.508  1.00  0.00     0.113 A 
HETATM   20  O4  UNL     1      21.511   0.888  52.017  1.00  0.00    -0.346 OA
HETATM   21  O3  UNL     1      24.211   0.719  52.399  1.00  0.00    -0.345 OA
HETATM   22  C19 UNL     1      23.391  -0.013  53.291  1.00  0.00     0.202 C 
HETATM   23  C20 UNL     1      22.013  -0.206  52.750  1.00  0.00     0.202 C 
BRANCH  12  24
HETATM   24  O1  UNL     1      27.462   4.368  49.381  1.00  0.00    -0.346 OA
HETATM   25  H7  UNL     1      27.608   4.291  48.375  1.00  0.00     0.219 HD
ENDBRANCH  12  24
BRANCH  17  26
HETATM   26  C13 UNL     1      20.457   2.786  50.210  1.00  0.00     0.068 C 
BRANCH  26  27
HETATM   27  C14 UNL     1      19.844   3.926  50.982  1.00  0.00     0.171 C 
BRANCH  27  28
HETATM   28  O2  UNL     1      19.003   3.542  51.998  1.00  0.00    -0.396 OA
HETATM   29  C15 UNL     1      17.701   3.565  51.501  1.00  0.00     0.201 C 
ENDBRANCH  27  28
ENDBRANCH  26  27
ENDBRANCH  17  26
ENDBRANCH   9  11
ENDBRANCH   7   9
TORSDOF 6
ENDMDL
MODEL 3
REMARK VINA RESULT:      -8.5      0.926      1.892
REMARK  6 active torsions:
REMARK  status: ('A' for Active; 'I' for Inactive)
REMARK    1  A    between atoms: C7_7  and  N1_8 
REMARK    2  A    between atoms: N1_8  and  C8_9 
REMARK    3  A    between atoms: C9_10  and  O1_11 
REMARK    4  A    between atoms: C12_15  and  C13_16 
REMARK    5  A    between atoms: C13_16  and  C14_17 
REMARK    6  A    between atoms: C14_17  and  O2_18 
ROOT
HETATM    1  C1  UNL     1      26.585   3.563  49.513  1.00  0.00     0.018 C 
HETATM    2  C2  UNL     1      26.455   2.859  50.488  1.00  0.00    -0.078 C 
HETATM    3  C3  UNL     1      26.277   2.026  51.635  1.00  0.00     0.019 A 
HETATM    4  C4  UNL     1      27.305   2.067  52.567  1.00  0.00     0.021 A 
HETATM    5  C5  UNL     1      27.208   1.289  53.709  1.00  0.00     0.004 A 
HETATM    6  C6  UNL     1      26.093   0.518  53.854  1.00  0.00     0.029 A 
HETATM    7  C7  UNL     1      25.043   0.434  52.968  1.00  0.00     0.030 A 
HETATM    8  C21 UNL     1      25.184   1.224  51.846  1.00  0.00     0.049 A 
ENDROOT
BRANCH   7   9
HETATM    9  N1  UNL     1      23.899  -0.376  53.137  1.00  0.00    -0.374 N 
HETATM   10  H5  UNL     1      23.814  -1.240  52.572  1.00  0.00     0.160 HD
BRANCH   9  11
HETATM   11  C8  UNL     1      22.815  -0.124  54.028  1.00  0.00     0.197 A 
HETATM   12  C9  UNL     1      22.607  -1.210  55.018  1.00  0.00     0.166 A 
HETATM   13  N2  UNL     1      21.397  -1.662  54.932  1.00  0.00    -0.226 NA
HETATM   14  C10 UNL     1      20.654  -0.983  53.925  1.00  0.00     0.071 A 
HETATM   15  C11 UNL     1      19.360  -1.029  53.398  1.00  0.00     0.042 A 
HETATM   16  C18 UNL     1      21.503  -0.050  53.370  1.00  0.00     0.037 A 
HETATM   17  C12 UNL     1      18.939  -0.201  52.383  1.00  0.00    -0.018 A 
HETATM   18  C16 UNL     1      19.800   0.736  51.829  1.00  0.00     0.109 A 
HETATM   19  C17 UNL     1      21.073   0.773  52.357  1.00  0.00     0.113 A 
HETATM   20  O4  UNL     1      19.403   1.581  50.810  1.00  0.00    -0.346 OA
HETATM   21  O3  UNL     1      21.940   1.699  51.816  1.00  0.00    -0.345 OA
HETATM   22  C19 UNL     1      21.685   2.437  50.635  1.00  0.00     0.202 C 
HETATM   23  C20 UNL     1      20.224   2.659  50.422  1.00  0.00     0.202 C 
BRANCH  12  24
HETATM   24  O1  UNL     1      23.196  -1.979  56.045  1.00  0.00    -0.346 OA
HETATM   25  H7  UNL     1      23.347  -2.975  55.884  1.00  0.00     0.219 HD
ENDBRANCH  12  24
BRANCH  17  26
HETATM   26  C13 UNL     1      17.554  -0.281  51.856  1.00  0.00     0.068 C 
BRANCH  26  27
HETATM   27  C14 UNL     1      16.662  -1.130  52.725  1.00  0.00     0.171 C 
BRANCH  27  28
HETATM   28  O2  UNL     1      15.351  -0.726  52.765  1.00  0.00    -0.396 OA
HETATM   29  C15 UNL     1      15.303   0.600  52.338  1.00  0.00     0.201 C 
ENDBRANCH  27  28
ENDBRANCH  26  27
ENDBRANCH  17  26
ENDBRANCH   9  11
ENDBRANCH   7   9
TORSDOF 6
ENDMDL
MODEL 4
REMARK VINA RESULT:      -8.4      3.631      5.606
REMARK  6 active torsions:
REMARK  status: ('A' for Active; 'I' for Inactive)
REMARK    1  A    between atoms: C7_7  and  N1_8 
REMARK    2  A    between atoms: N1_8  and  C8_9 
REMARK    3  A    between atoms: C9_10  and  O1_11 
REMARK    4  A    between atoms: C12_15  and  C13_16 
REMARK    5  A    between atoms: C13_16  and  C14_17 
REMARK    6  A    between atoms: C14_17  and  O2_18 
ROOT
HETATM    1  C1  UNL     1      30.551   5.771  47.795  1.00  0.00     0.018 C 
HETATM    2  C2  UNL     1      29.373   5.734  48.066  1.00  0.00    -0.078 C 
HETATM    3  C3  UNL     1      27.983   5.666  48.388  1.00  0.00     0.019 A 
HETATM    4  C4  UNL     1      27.235   6.783  48.041  1.00  0.00     0.021 A 
HETATM    5  C5  UNL     1      25.878   6.795  48.318  1.00  0.00     0.004 A 
HETATM    6  C6  UNL     1      25.347   5.694  48.923  1.00  0.00     0.029 A 
HETATM    7  C7  UNL     1      26.034   4.560  49.290  1.00  0.00     0.030 A 
HETATM    8  C21 UNL     1      27.382   4.593  48.996  1.00  0.00     0.049 A 
ENDROOT
BRANCH   7   9
HETATM    9  N1  UNL     1      25.465   3.432  49.920  1.00  0.00    -0.374 N 
HETATM   10  H5  UNL     1      25.128   2.651  49.330  1.00  0.00     0.160 HD
BRANCH   9  11
HETATM   11  C8  UNL     1      25.298   3.248  51.324  1.00  0.00     0.197 A 
HETATM   12  C9  UNL     1      26.463   2.592  51.970  1.00  0.00     0.166 A 
HETATM   13  N2  UNL     1      26.082   1.517  52.583  1.00  0.00    -0.226 NA
HETATM   14  C10 UNL     1      24.681   1.304  52.445  1.00  0.00     0.071 A 
HETATM   15  C11 UNL     1      23.741   0.360  52.867  1.00  0.00     0.042 A 
HETATM   16  C18 UNL     1      24.197   2.346  51.684  1.00  0.00     0.037 A 
HETATM   17  C12 UNL     1      22.404   0.446  52.550  1.00  0.00    -0.018 A 
HETATM   18  C16 UNL     1      21.923   1.498  51.783  1.00  0.00     0.109 A 
HETATM   19  C17 UNL     1      22.860   2.423  51.373  1.00  0.00     0.113 A 
HETATM   20  O4  UNL     1      20.587   1.609  51.450  1.00  0.00    -0.346 OA
HETATM   21  O3  UNL     1      22.397   3.474  50.610  1.00  0.00    -0.345 OA
HETATM   22  C19 UNL     1      21.100   3.541  50.045  1.00  0.00     0.202 C 
HETATM   23  C20 UNL     1      20.099   2.793  50.861  1.00  0.00     0.202 C 
BRANCH  12  24
HETATM   24  O1  UNL     1      27.854   2.652  52.202  1.00  0.00    -0.346 OA
HETATM   25  H7  UNL     1      28.432   1.864  51.910  1.00  0.00     0.219 HD
ENDBRANCH  12  24
BRANCH  17  26
HETATM   26  C13 UNL     1      21.439  -0.578  53.022  1.00  0.00     0.068 C 
BRANCH  26  27
HETATM   27  C14 UNL     1      21.414  -0.688  54.525  1.00  0.00     0.171 C 
BRANCH  27  28
HETATM   28  O2  UNL     1      21.920  -1.864  55.021  1.00  0.00    -0.396 OA
HETATM   29  C15 UNL     1      23.142  -1.577  55.625  1.00  0.00     0.201 C 
ENDBRANCH  27  28
ENDBRANCH  26  27
ENDBRANCH  17  26
ENDBRANCH   9  11
ENDBRANCH   7   9
TORSDOF 6
ENDMDL
MODEL 5
REMARK VINA RESULT:      -8.3      3.730      6.319
REMARK  6 active torsions:
REMARK  status: ('A' for Active; 'I' for Inactive)
REMARK    1  A    between atoms: C7_7  and  N1_8 
REMARK    2  A    between atoms: N1_8  and  C8_9 
REMARK    3  A    between atoms: C9_10  and  O1_11 
REMARK    4  A    between atoms: C12_15  and  C13_16 
REMARK    5  A    between atoms: C13_16  and  C14_17 
REMARK    6  A    between atoms: C14_17  and  O2_18 
ROOT
HETATM    1  C1  UNL     1      30.381   5.225  47.785  1.00  0.00     0.018 C 
HETATM    2  C2  UNL     1      29.234   5.425  48.114  1.00  0.00    -0.078 C 
HETATM    3  C3  UNL     1      27.877   5.636  48.509  1.00  0.00     0.019 A 
HETATM    4  C4  UNL     1      27.277   6.777  47.994  1.00  0.00     0.021 A 
HETATM    5  C5  UNL     1      25.962   7.052  48.328  1.00  0.00     0.004 A 
HETATM    6  C6  UNL     1      25.323   6.176  49.155  1.00  0.00     0.029 A 
HETATM    7  C7  UNL     1      25.863   5.032  49.696  1.00  0.00     0.030 A 
HETATM    8  C21 UNL     1      27.174   4.798  49.337  1.00  0.00     0.049 A 
ENDROOT
BRANCH   7   9
HETATM    9  N1  UNL     1      25.184   4.139  50.555  1.00  0.00    -0.374 N 
HETATM   10  H5  UNL     1      25.090   4.387  51.556  1.00  0.00     0.160 HD
BRANCH   9  11
HETATM   11  C8  UNL     1      24.596   2.896  50.180  1.00  0.00     0.197 A 
HETATM   12  C9  UNL     1      23.197   3.031  49.702  1.00  0.00     0.166 A 
HETATM   13  N2  UNL     1      22.413   2.285  50.413  1.00  0.00    -0.226 NA
HETATM   14  C10 UNL     1      23.131   1.578  51.419  1.00  0.00     0.071 A 
HETATM   15  C11 UNL     1      22.841   0.666  52.438  1.00  0.00     0.042 A 
HETATM   16  C18 UNL     1      24.454   1.941  51.287  1.00  0.00     0.037 A 
HETATM   17  C12 UNL     1      23.805   0.150  53.273  1.00  0.00    -0.018 A 
HETATM   18  C16 UNL     1      25.136   0.521  53.135  1.00  0.00     0.109 A 
HETATM   19  C17 UNL     1      25.410   1.420  52.126  1.00  0.00     0.113 A 
HETATM   20  O4  UNL     1      26.124   0.018  53.959  1.00  0.00    -0.346 OA
HETATM   21  O3  UNL     1      26.727   1.798  51.976  1.00  0.00    -0.345 OA
HETATM   22  C19 UNL     1      27.753   1.506  52.908  1.00  0.00     0.202 C 
HETATM   23  C20 UNL     1      27.482   0.242  53.655  1.00  0.00     0.202 C 
BRANCH  12  24
HETATM   24  O1  UNL     1      22.337   3.651  48.770  1.00  0.00    -0.346 OA
HETATM   25  H7  UNL     1      22.749   4.128  47.967  1.00  0.00     0.219 HD
ENDBRANCH  12  24
BRANCH  17  26
HETATM   26  C13 UNL     1      23.453  -0.819  54.340  1.00  0.00     0.068 C 
BRANCH  26  27
HETATM   27  C14 UNL     1      22.072  -0.578  54.895  1.00  0.00     0.171 C 
BRANCH  27  28
HETATM   28  O2  UNL     1      21.293  -1.704  54.997  1.00  0.00    -0.396 OA
HETATM   29  C15 UNL     1      20.314  -1.633  54.008  1.00  0.00     0.201 C 
ENDBRANCH  27  28
ENDBRANCH  26  27
ENDBRANCH  17  26
ENDBRANCH   9  11
ENDBRANCH   7   9
TORSDOF 6
ENDMDL
MODEL 6
REMARK VINA RESULT:      -8.1      3.445      7.912
REMARK  6 active torsions:
REMARK  status: ('A' for Active; 'I' for Inactive)
REMARK    1  A    between atoms: C7_7  and  N1_8 
REMARK    2  A    between atoms: N1_8  and  C8_9 
REMARK    3  A    between atoms: C9_10  and  O1_11 
REMARK    4  A    between atoms: C12_15  and  C13_16 
REMARK    5  A    between atoms: C13_16  and  C14_17 
REMARK    6  A    between atoms: C14_17  and  O2_18 
ROOT
HETATM    1  C1  UNL     1      22.089   6.090  45.714  1.00  0.00     0.018 C 
HETATM    2  C2  UNL     1      22.161   5.201  46.532  1.00  0.00    -0.078 C 
HETATM    3  C3  UNL     1      22.258   4.169  47.515  1.00  0.00     0.019 A 
HETATM    4  C4  UNL     1      22.134   2.873  47.031  1.00  0.00     0.021 A 
HETATM    5  C5  UNL     1      22.217   1.815  47.920  1.00  0.00     0.004 A 
HETATM    6  C6  UNL     1      22.420   2.109  49.237  1.00  0.00     0.029 A 
HETATM    7  C7  UNL     1      22.550   3.369  49.775  1.00  0.00     0.030 A 
HETATM    8  C21 UNL     1      22.459   4.392  48.853  1.00  0.00     0.049 A 
ENDROOT
BRANCH   7   9
HETATM    9  N1  UNL     1      22.755   3.652  51.143  1.00  0.00    -0.374 N 
HETATM   10  H5  UNL     1      21.932   3.864  51.735  1.00  0.00     0.160 HD
BRANCH   9  11
HETATM   11  C8  UNL     1      24.011   3.678  51.817  1.00  0.00     0.197 A 
HETATM   12  C9  UNL     1      25.082   4.342  51.032  1.00  0.00     0.166 A 
HETATM   13  N2  UNL     1      26.079   3.532  50.870  1.00  0.00    -0.226 NA
HETATM   14  C10 UNL     1      25.837   2.273  51.488  1.00  0.00     0.071 A 
HETATM   15  C11 UNL     1      26.513   1.059  51.644  1.00  0.00     0.042 A 
HETATM   16  C18 UNL     1      24.587   2.350  52.064  1.00  0.00     0.037 A 
HETATM   17  C12 UNL     1      25.979  -0.010  52.327  1.00  0.00    -0.018 A 
HETATM   18  C16 UNL     1      24.719   0.075  52.903  1.00  0.00     0.109 A 
HETATM   19  C17 UNL     1      24.062   1.277  52.744  1.00  0.00     0.113 A 
HETATM   20  O4  UNL     1      24.159  -0.982  53.595  1.00  0.00    -0.346 OA
HETATM   21  O3  UNL     1      22.810   1.376  53.312  1.00  0.00    -0.345 OA
HETATM   22  C19 UNL     1      22.081   0.281  53.836  1.00  0.00     0.202 C 
HETATM   23  C20 UNL     1      22.984  -0.793  54.348  1.00  0.00     0.202 C 
BRANCH  12  24
HETATM   24  O1  UNL     1      25.480   5.523  50.368  1.00  0.00    -0.346 OA
HETATM   25  H7  UNL     1      24.954   5.823  49.547  1.00  0.00     0.219 HD
ENDBRANCH  12  24
BRANCH  17  26
HETATM   26  C13 UNL     1      26.734  -1.279  52.470  1.00  0.00     0.068 C 
BRANCH  26  27
HETATM   27  C14 UNL     1      28.044  -1.085  53.189  1.00  0.00     0.171 C 
BRANCH  27  28
HETATM   28  O2  UNL     1      27.929  -0.603  54.469  1.00  0.00    -0.396 OA
HETATM   29  C15 UNL     1      28.874   0.409  54.627  1.00  0.00     0.201 C 
ENDBRANCH  27  28
ENDBRANCH  26  27
ENDBRANCH  17  26
ENDBRANCH   9  11
ENDBRANCH   7   9
TORSDOF 6
ENDMDL
MODEL 7
REMARK VINA RESULT:      -7.9      2.331      7.739
REMARK  6 active torsions:
REMARK  status: ('A' for Active; 'I' for Inactive)
REMARK    1  A    between atoms: C7_7  and  N1_8 
REMARK    2  A    between atoms: N1_8  and  C8_9 
REMARK    3  A    between atoms: C9_10  and  O1_11 
REMARK    4  A    between atoms: C12_15  and  C13_16 
REMARK    5  A    between atoms: C13_16  and  C14_17 
REMARK    6  A    between atoms: C14_17  and  O2_18 
ROOT
HETATM    1  C1  UNL     1      19.976   3.089  48.013  1.00  0.00     0.018 C 
HETATM    2  C2  UNL     1      19.988   2.415  49.018  1.00  0.00    -0.078 C 
HETATM    3  C3  UNL     1      20.027   1.622  50.205  1.00  0.00     0.019 A 
HETATM    4  C4  UNL     1      18.906   0.834  50.433  1.00  0.00     0.021 A 
HETATM    5  C5  UNL     1      18.867   0.034  51.563  1.00  0.00     0.004 A 
HETATM    6  C6  UNL     1      19.945   0.065  52.397  1.00  0.00     0.029 A 
HETATM    7  C7  UNL     1      21.081   0.822  52.226  1.00  0.00     0.030 A 
HETATM    8  C21 UNL     1      21.076   1.604  51.089  1.00  0.00     0.049 A 
ENDROOT
BRANCH   7   9
HETATM    9  N1  UNL     1      22.186   0.842  53.105  1.00  0.00    -0.374 N 
HETATM   10  H5  UNL     1      22.257   1.612  53.795  1.00  0.00     0.160 HD
BRANCH   9  11
HETATM   11  C8  UNL     1      23.245  -0.112  53.147  1.00  0.00     0.197 A 
HETATM   12  C9  UNL     1      23.234  -0.943  54.377  1.00  0.00     0.166 A 
HETATM   13  N2  UNL     1      24.367  -0.834  54.994  1.00  0.00    -0.226 NA
HETATM   14  C10 UNL     1      25.257   0.040  54.307  1.00  0.00     0.071 A 
HETATM   15  C11 UNL     1      26.557   0.524  54.479  1.00  0.00     0.042 A 
HETATM   16  C18 UNL     1      24.586   0.484  53.188  1.00  0.00     0.037 A 
HETATM   17  C12 UNL     1      27.151   1.395  53.594  1.00  0.00    -0.018 A 
HETATM   18  C16 UNL     1      26.470   1.838  52.470  1.00  0.00     0.109 A 
HETATM   19  C17 UNL     1      25.189   1.354  52.310  1.00  0.00     0.113 A 
HETATM   20  O4  UNL     1      27.043   2.712  51.565  1.00  0.00    -0.346 OA
HETATM   21  O3  UNL     1      24.499   1.785  51.197  1.00  0.00    -0.345 OA
HETATM   22  C19 UNL     1      24.925   2.839  50.352  1.00  0.00     0.202 C 
HETATM   23  C20 UNL     1      26.412   2.969  50.331  1.00  0.00     0.202 C 
BRANCH  12  24
HETATM   24  O1  UNL     1      22.483  -1.829  55.179  1.00  0.00    -0.346 OA
HETATM   25  H7  UNL     1      22.149  -1.503  56.086  1.00  0.00     0.219 HD
ENDBRANCH  12  24
BRANCH  17  26
HETATM   26  C13 UNL     1      28.536   1.881  53.815  1.00  0.00     0.068 C 
BRANCH  26  27
HETATM   27  C14 UNL     1      29.503   0.753  54.066  1.00  0.00     0.171 C 
BRANCH  27  28
HETATM   28  O2  UNL     1      29.497  -0.230  53.107  1.00  0.00    -0.396 OA
HETATM   29  C15 UNL     1      29.904  -1.416  53.715  1.00  0.00     0.201 C 
ENDBRANCH  27  28
ENDBRANCH  26  27
ENDBRANCH  17  26
ENDBRANCH   9  11
ENDBRANCH   7   9
TORSDOF 6
ENDMDL
MODEL 8
REMARK VINA RESULT:      -7.9      3.330      7.374
REMARK  6 active torsions:
REMARK  status: ('A' for Active; 'I' for Inactive)
REMARK    1  A    between atoms: C7_7  and  N1_8 
REMARK    2  A    between atoms: N1_8  and  C8_9 
REMARK    3  A    between atoms: C9_10  and  O1_11 
REMARK    4  A    between atoms: C12_15  and  C13_16 
REMARK    5  A    between atoms: C13_16  and  C14_17 
REMARK    6  A    between atoms: C14_17  and  O2_18 
ROOT
HETATM    1  C1  UNL     1      18.461  -0.520  52.694  1.00  0.00     0.018 C 
HETATM    2  C2  UNL     1      19.613  -0.498  53.061  1.00  0.00    -0.078 C 
HETATM    3  C3  UNL     1      20.980  -0.458  53.473  1.00  0.00     0.019 A 
HETATM    4  C4  UNL     1      21.352  -1.424  54.400  1.00  0.00     0.021 A 
HETATM    5  C5  UNL     1      22.661  -1.453  54.850  1.00  0.00     0.004 A 
HETATM    6  C6  UNL     1      23.522  -0.522  54.350  1.00  0.00     0.029 A 
HETATM    7  C7  UNL     1      23.215   0.457  53.433  1.00  0.00     0.030 A 
HETATM    8  C21 UNL     1      21.901   0.449  53.014  1.00  0.00     0.049 A 
ENDROOT
BRANCH   7   9
HETATM    9  N1  UNL     1      24.123   1.415  52.931  1.00  0.00    -0.374 N 
HETATM   10  H5  UNL     1      24.231   2.311  53.439  1.00  0.00     0.160 HD
BRANCH   9  11
HETATM   11  C8  UNL     1      24.931   1.277  51.764  1.00  0.00     0.197 A 
HETATM   12  C9  UNL     1      26.365   1.043  52.071  1.00  0.00     0.166 A 
HETATM   13  N2  UNL     1      27.092   1.953  51.506  1.00  0.00    -0.226 NA
HETATM   14  C10 UNL     1      26.297   2.882  50.777  1.00  0.00     0.071 A 
HETATM   15  C11 UNL     1      26.507   4.023  49.997  1.00  0.00     0.042 A 
HETATM   16  C18 UNL     1      24.987   2.483  50.928  1.00  0.00     0.037 A 
HETATM   17  C12 UNL     1      25.480   4.723  49.407  1.00  0.00    -0.018 A 
HETATM   18  C16 UNL     1      24.162   4.315  49.564  1.00  0.00     0.109 A 
HETATM   19  C17 UNL     1      23.967   3.188  50.334  1.00  0.00     0.113 A 
HETATM   20  O4  UNL     1      23.111   4.999  48.982  1.00  0.00    -0.346 OA
HETATM   21  O3  UNL     1      22.663   2.771  50.498  1.00  0.00    -0.345 OA
HETATM   22  C19 UNL     1      21.528   3.532  50.128  1.00  0.00     0.202 C 
HETATM   23  C20 UNL     1      21.818   4.439  48.978  1.00  0.00     0.202 C 
BRANCH  12  24
HETATM   24  O1  UNL     1      27.294   0.219  52.741  1.00  0.00    -0.346 OA
HETATM   25  H7  UNL     1      27.273   0.187  53.760  1.00  0.00     0.219 HD
ENDBRANCH  12  24
BRANCH  17  26
HETATM   26  C13 UNL     1      25.749   5.928  48.585  1.00  0.00     0.068 C 
BRANCH  26  27
HETATM   27  C14 UNL     1      26.447   7.009  49.369  1.00  0.00     0.171 C 
BRANCH  27  28
HETATM   28  O2  UNL     1      25.727   7.503  50.429  1.00  0.00    -0.396 OA
HETATM   29  C15 UNL     1      24.866   8.482  49.936  1.00  0.00     0.201 C 
ENDBRANCH  27  28
ENDBRANCH  26  27
ENDBRANCH  17  26
ENDBRANCH   9  11
ENDBRANCH   7   9
TORSDOF 6
ENDMDL
MODEL 9
REMARK VINA RESULT:      -7.9      2.113      7.756
REMARK  6 active torsions:
REMARK  status: ('A' for Active; 'I' for Inactive)
REMARK    1  A    between atoms: C7_7  and  N1_8 
REMARK    2  A    between atoms: N1_8  and  C8_9 
REMARK    3  A    between atoms: C9_10  and  O1_11 
REMARK    4  A    between atoms: C12_15  and  C13_16 
REMARK    5  A    between atoms: C13_16  and  C14_17 
REMARK    6  A    between atoms: C14_17  and  O2_18 
ROOT
HETATM    1  C1  UNL     1      16.561   1.883  49.016  1.00  0.00     0.018 C 
HETATM    2  C2  UNL     1      17.036   1.260  49.938  1.00  0.00    -0.078 C 
HETATM    3  C3  UNL     1      17.619   0.532  51.020  1.00  0.00     0.019 A 
HETATM    4  C4  UNL     1      16.837  -0.491  51.541  1.00  0.00     0.021 A 
HETATM    5  C5  UNL     1      17.332  -1.245  52.592  1.00  0.00     0.004 A 
HETATM    6  C6  UNL     1      18.575  -0.937  53.061  1.00  0.00     0.029 A 
HETATM    7  C7  UNL     1      19.395   0.062  52.588  1.00  0.00     0.030 A 
HETATM    8  C21 UNL     1      18.862   0.787  51.543  1.00  0.00     0.049 A 
ENDROOT
BRANCH   7   9
HETATM    9  N1  UNL     1      20.679   0.367  53.091  1.00  0.00    -0.374 N 
HETATM   10  H5  UNL     1      20.798   1.224  53.661  1.00  0.00     0.160 HD
BRANCH   9  11
HETATM   11  C8  UNL     1      21.864  -0.401  52.894  1.00  0.00     0.197 A 
HETATM   12  C9  UNL     1      22.290  -1.140  54.109  1.00  0.00     0.166 A 
HETATM   13  N2  UNL     1      23.502  -0.811  54.424  1.00  0.00    -0.226 NA
HETATM   14  C10 UNL     1      24.039   0.146  53.516  1.00  0.00     0.071 A 
HETATM   15  C11 UNL     1      25.240   0.841  53.349  1.00  0.00     0.042 A 
HETATM   16  C18 UNL     1      23.054   0.402  52.587  1.00  0.00     0.037 A 
HETATM   17  C12 UNL     1      25.447   1.735  52.324  1.00  0.00    -0.018 A 
HETATM   18  C16 UNL     1      24.451   1.988  51.391  1.00  0.00     0.109 A 
HETATM   19  C17 UNL     1      23.271   1.297  51.565  1.00  0.00     0.113 A 
HETATM   20  O4  UNL     1      24.632   2.881  50.352  1.00  0.00    -0.346 OA
HETATM   21  O3  UNL     1      22.272   1.538  50.647  1.00  0.00    -0.345 OA
HETATM   22  C19 UNL     1      22.297   2.588  49.697  1.00  0.00     0.202 C 
HETATM   23  C20 UNL     1      23.691   2.951  49.306  1.00  0.00     0.202 C 
BRANCH  12  24
HETATM   24  O1  UNL     1      21.916  -2.079  55.094  1.00  0.00    -0.346 OA
HETATM   25  H7  UNL     1      20.924  -2.215  55.288  1.00  0.00     0.219 HD
ENDBRANCH  12  24
BRANCH  17  26
HETATM   26  C13 UNL     1      26.740   2.449  52.182  1.00  0.00     0.068 C 
BRANCH  26  27
HETATM   27  C14 UNL     1      27.836   1.810  52.996  1.00  0.00     0.171 C 
BRANCH  27  28
HETATM   28  O2  UNL     1      28.450   2.652  53.890  1.00  0.00    -0.396 OA
HETATM   29  C15 UNL     1      29.361   1.896  54.626  1.00  0.00     0.201 C 
ENDBRANCH  27  28
ENDBRANCH  26  27
ENDBRANCH  17  26
ENDBRANCH   9  11
ENDBRANCH   7   9
TORSDOF 6
ENDMDL
