MODEL 1
REMARK VINA RESULT:      -9.6      0.000      0.000
REMARK  4 active torsions:
REMARK  status: ('A' for Active; 'I' for Inactive)
REMARK    1  A    between atoms: C8_9  and  C9_10 
REMARK    2  A    between atoms: C13_15  and  C14_16 
REMARK    3  A    between atoms: C14_16  and  C15_17 
REMARK    4  A    between atoms: C15_17  and  C16_18 
ROOT
HETATM    1  C1  UNL     1      19.036   3.697  51.571  1.00  0.00     0.143 C 
HETATM    2  N1  UNL     1      20.496   4.081  51.478  1.00  0.00    -0.411 N 
HETATM    3  C2  UNL     1      20.673   5.134  50.627  1.00  0.00     0.117 C 
HETATM    4  C3  UNL     1      20.637   5.055  49.164  1.00  0.00     0.028 C 
HETATM    5  C4  UNL     1      21.606   4.357  48.318  1.00  0.00     0.039 C 
HETATM    6  C5  UNL     1      23.024   4.812  48.243  1.00  0.00     0.019 C 
HETATM    7  C6  UNL     1      23.804   4.561  49.471  1.00  0.00    -0.023 A 
HETATM    8  C7  UNL     1      24.324   3.334  49.156  1.00  0.00     0.007 A 
HETATM    9  C8  UNL     1      24.525   3.384  50.491  1.00  0.00     0.029 A 
HETATM   10  C9  UNL     1      24.200   4.384  51.306  1.00  0.00     0.044 A 
HETATM   11  C10 UNL     1      23.779   5.510  51.882  1.00  0.00     0.029 A 
HETATM   12  C11 UNL     1      23.583   5.426  50.490  1.00  0.00     0.031 A 
HETATM   13  N2  UNL     1      23.913   3.821  52.656  1.00  0.00    -0.381 N 
HETATM   14  C12 UNL     1      22.695   3.089  52.251  1.00  0.00     0.029 C 
HETATM   15  C13 UNL     1      22.856   1.730  52.086  1.00  0.00    -0.033 C 
HETATM   16  C22 UNL     1      22.184   0.880  51.082  1.00  0.00     0.020 C 
HETATM   17  C23 UNL     1      21.402   0.573  50.016  1.00  0.00     0.060 C 
HETATM   18  N3  UNL     1      21.227   1.968  49.932  1.00  0.00    -0.265 NA
HETATM   19  C24 UNL     1      21.592   2.832  48.727  1.00  0.00     0.161 A 
HETATM   20  O1  UNL     1      22.030   2.075  47.744  1.00  0.00    -0.213 OA
HETATM   21  C25 UNL     1      21.256   3.356  52.285  1.00  0.00     0.173 C 
HETATM   22  H15 UNL     1      23.898   3.538  53.658  1.00  0.00     0.160 HD
HETATM   23  H26 UNL     1      21.206   2.891  49.618  1.00  0.00     0.190 HD
ENDROOT
BRANCH  15  24
HETATM   24  C14 UNL     1      23.921   0.692  52.238  1.00  0.00     0.045 C 
BRANCH  24  25
HETATM   25  C15 UNL     1      24.162   0.303  53.678  1.00  0.00     0.043 C 
BRANCH  25  26
HETATM   26  C16 UNL     1      25.639   0.077  53.791  1.00  0.00    -0.058 A 
HETATM   27  C17 UNL     1      26.475   0.533  54.789  1.00  0.00     0.009 A 
HETATM   28  C18 UNL     1      27.818   0.219  54.711  1.00  0.00     0.024 A 
HETATM   29  C19 UNL     1      28.335  -0.530  53.673  1.00  0.00     0.034 A 
HETATM   30 CL1  UNL     1      30.048  -0.898  53.630  1.00  0.00    -0.084 Cl
HETATM   31  C20 UNL     1      27.520  -1.003  52.656  1.00  0.00     0.024 A 
HETATM   32  C21 UNL     1      26.181  -0.681  52.746  1.00  0.00     0.009 A 
ENDBRANCH  25  26
ENDBRANCH  24  25
ENDBRANCH  15  24
TORSDOF 4
ENDMDL
MODEL 2
REMARK VINA RESULT:      -9.5      1.583      2.967
REMARK  4 active torsions:
REMARK  status: ('A' for Active; 'I' for Inactive)
REMARK    1  A    between atoms: C8_9  and  C9_10 
REMARK    2  A    between atoms: C13_15  and  C14_16 
REMARK    3  A    between atoms: C14_16  and  C15_17 
REMARK    4  A    between atoms: C15_17  and  C16_18 
ROOT
HETATM    1  C1  UNL     1      22.686   2.085  47.494  1.00  0.00     0.143 C 
HETATM    2  N1  UNL     1      22.230   2.790  48.753  1.00  0.00    -0.411 N 
HETATM    3  C2  UNL     1      21.652   3.992  48.459  1.00  0.00     0.117 C 
HETATM    4  C3  UNL     1      22.376   5.209  48.082  1.00  0.00     0.028 C 
HETATM    5  C4  UNL     1      23.270   5.980  48.948  1.00  0.00     0.039 C 
HETATM    6  C5  UNL     1      22.747   6.684  50.154  1.00  0.00     0.019 C 
HETATM    7  C6  UNL     1      22.342   5.782  51.250  1.00  0.00    -0.023 A 
HETATM    8  C7  UNL     1      23.518   5.743  51.950  1.00  0.00     0.007 A 
HETATM    9  C8  UNL     1      22.858   4.678  52.458  1.00  0.00     0.029 A 
HETATM   10  C9  UNL     1      21.642   4.261  52.118  1.00  0.00     0.044 A 
HETATM   11  C10 UNL     1      20.429   4.068  51.599  1.00  0.00     0.029 A 
HETATM   12  C11 UNL     1      21.143   5.171  51.090  1.00  0.00     0.031 A 
HETATM   13  N2  UNL     1      21.574   2.785  52.316  1.00  0.00    -0.381 N 
HETATM   14  C12 UNL     1      22.535   2.452  51.244  1.00  0.00     0.029 C 
HETATM   15  C13 UNL     1      23.800   2.115  51.675  1.00  0.00    -0.033 C 
HETATM   16  C22 UNL     1      25.074   2.430  50.996  1.00  0.00     0.020 C 
HETATM   17  C23 UNL     1      25.903   2.973  50.070  1.00  0.00     0.060 C 
HETATM   18  N3  UNL     1      24.718   3.534  49.555  1.00  0.00    -0.265 NA
HETATM   19  C24 UNL     1      24.446   5.027  49.396  1.00  0.00     0.161 A 
HETATM   20  O1  UNL     1      25.509   5.720  49.743  1.00  0.00    -0.213 OA
HETATM   21  C25 UNL     1      22.436   2.060  49.838  1.00  0.00     0.173 C 
HETATM   22  H15 UNL     1      21.382   1.807  52.617  1.00  0.00     0.160 HD
HETATM   23  H26 UNL     1      24.039   4.158  49.240  1.00  0.00     0.190 HD
ENDROOT
BRANCH  15  24
HETATM   24  C14 UNL     1      24.542   1.924  52.959  1.00  0.00     0.045 C 
BRANCH  24  25
HETATM   25  C15 UNL     1      24.466   0.507  53.478  1.00  0.00     0.043 C 
BRANCH  25  26
HETATM   26  C16 UNL     1      25.875  -0.002  53.459  1.00  0.00    -0.058 A 
HETATM   27  C17 UNL     1      26.382  -1.012  52.668  1.00  0.00     0.009 A 
HETATM   28  C18 UNL     1      27.718  -1.339  52.802  1.00  0.00     0.024 A 
HETATM   29  C19 UNL     1      28.545  -0.688  53.695  1.00  0.00     0.034 A 
HETATM   30 CL1  UNL     1      30.231  -1.147  53.819  1.00  0.00    -0.084 Cl
HETATM   31  C20 UNL     1      28.064   0.332  54.503  1.00  0.00     0.024 A 
HETATM   32  C21 UNL     1      26.729   0.647  54.360  1.00  0.00     0.009 A 
ENDBRANCH  25  26
ENDBRANCH  24  25
ENDBRANCH  15  24
TORSDOF 4
ENDMDL
MODEL 3
REMARK VINA RESULT:      -8.9      1.608      3.616
REMARK  4 active torsions:
REMARK  status: ('A' for Active; 'I' for Inactive)
REMARK    1  A    between atoms: C8_9  and  C9_10 
REMARK    2  A    between atoms: C13_15  and  C14_16 
REMARK    3  A    between atoms: C14_16  and  C15_17 
REMARK    4  A    between atoms: C15_17  and  C16_18 
ROOT
HETATM    1  C1  UNL     1      22.285   2.437  47.361  1.00  0.00     0.143 C 
HETATM    2  N1  UNL     1      21.454   2.026  48.556  1.00  0.00    -0.411 N 
HETATM    3  C2  UNL     1      20.168   2.471  48.436  1.00  0.00     0.117 C 
HETATM    4  C3  UNL     1      19.728   3.852  48.650  1.00  0.00     0.028 C 
HETATM    5  C4  UNL     1      19.735   4.567  49.927  1.00  0.00     0.039 C 
HETATM    6  C5  UNL     1      18.861   4.131  51.053  1.00  0.00     0.019 C 
HETATM    7  C6  UNL     1      19.273   2.859  51.678  1.00  0.00    -0.023 A 
HETATM    8  C7  UNL     1      20.076   3.351  52.672  1.00  0.00     0.007 A 
HETATM    9  C8  UNL     1      20.445   2.052  52.639  1.00  0.00     0.029 A 
HETATM   10  C9  UNL     1      19.959   1.109  51.836  1.00  0.00     0.044 A 
HETATM   11  C10 UNL     1      19.306   0.377  50.932  1.00  0.00     0.029 A 
HETATM   12  C11 UNL     1      18.945   1.737  50.992  1.00  0.00     0.031 A 
HETATM   13  N2  UNL     1      21.026   0.097  51.593  1.00  0.00    -0.381 N 
HETATM   14  C12 UNL     1      21.909   1.000  50.827  1.00  0.00     0.029 C 
HETATM   15  C13 UNL     1      22.995   1.487  51.522  1.00  0.00    -0.033 C 
HETATM   16  C22 UNL     1      23.595   2.830  51.388  1.00  0.00     0.020 C 
HETATM   17  C23 UNL     1      23.732   4.108  50.952  1.00  0.00     0.060 C 
HETATM   18  N3  UNL     1      22.530   3.844  50.266  1.00  0.00    -0.265 NA
HETATM   19  C24 UNL     1      21.226   4.617  50.443  1.00  0.00     0.161 A 
HETATM   20  O1  UNL     1      21.403   5.618  51.279  1.00  0.00    -0.213 OA
HETATM   21  C25 UNL     1      22.139   1.280  49.409  1.00  0.00     0.173 C 
HETATM   22  H15 UNL     1      21.636  -0.745  51.540  1.00  0.00     0.160 HD
HETATM   23  H26 UNL     1      21.614   3.883  49.937  1.00  0.00     0.190 HD
ENDROOT
BRANCH  15  24
HETATM   24  C14 UNL     1      23.626   1.350  52.871  1.00  0.00     0.045 C 
BRANCH  24  25
HETATM   25  C15 UNL     1      23.996  -0.077  53.205  1.00  0.00     0.043 C 
BRANCH  25  26
HETATM   26  C16 UNL     1      25.481  -0.069  53.404  1.00  0.00    -0.058 A 
HETATM   27  C17 UNL     1      26.215   0.842  54.136  1.00  0.00     0.009 A 
HETATM   28  C18 UNL     1      27.586   0.678  54.196  1.00  0.00     0.024 A 
HETATM   29  C19 UNL     1      28.228  -0.361  53.551  1.00  0.00     0.034 A 
HETATM   30 CL1  UNL     1      29.969  -0.517  53.666  1.00  0.00    -0.084 Cl
HETATM   31  C20 UNL     1      27.517  -1.292  52.809  1.00  0.00     0.024 A 
HETATM   32  C21 UNL     1      26.149  -1.115  52.756  1.00  0.00     0.009 A 
ENDBRANCH  25  26
ENDBRANCH  24  25
ENDBRANCH  15  24
TORSDOF 4
ENDMDL
MODEL 4
REMARK VINA RESULT:      -8.3      1.598      2.597
REMARK  4 active torsions:
REMARK  status: ('A' for Active; 'I' for Inactive)
REMARK    1  A    between atoms: C8_9  and  C9_10 
REMARK    2  A    between atoms: C13_15  and  C14_16 
REMARK    3  A    between atoms: C14_16  and  C15_17 
REMARK    4  A    between atoms: C15_17  and  C16_18 
ROOT
HETATM    1  C1  UNL     1      20.785   7.804  50.826  1.00  0.00     0.143 C 
HETATM    2  N1  UNL     1      21.935   7.003  50.257  1.00  0.00    -0.411 N 
HETATM    3  C2  UNL     1      21.866   6.947  48.894  1.00  0.00     0.117 C 
HETATM    4  C3  UNL     1      20.945   6.103  48.128  1.00  0.00     0.028 C 
HETATM    5  C4  UNL     1      20.965   4.640  48.073  1.00  0.00     0.039 C 
HETATM    6  C5  UNL     1      22.115   3.913  47.462  1.00  0.00     0.019 C 
HETATM    7  C6  UNL     1      23.357   3.974  48.256  1.00  0.00    -0.023 A 
HETATM    8  C7  UNL     1      23.204   2.832  48.995  1.00  0.00     0.007 A 
HETATM    9  C8  UNL     1      24.164   3.482  49.688  1.00  0.00     0.029 A 
HETATM   10  C9  UNL     1      24.696   4.664  49.391  1.00  0.00     0.044 A 
HETATM   11  C10 UNL     1      25.050   5.839  48.869  1.00  0.00     0.029 A 
HETATM   12  C11 UNL     1      24.049   5.136  48.169  1.00  0.00     0.031 A 
HETATM   13  N2  UNL     1      25.122   5.325  50.658  1.00  0.00    -0.381 N 
HETATM   14  C12 UNL     1      23.755   5.509  51.190  1.00  0.00     0.029 C 
HETATM   15  C13 UNL     1      23.384   4.617  52.173  1.00  0.00    -0.033 C 
HETATM   16  C22 UNL     1      22.036   4.048  52.381  1.00  0.00     0.020 C 
HETATM   17  C23 UNL     1      20.727   3.795  52.130  1.00  0.00     0.060 C 
HETATM   18  N3  UNL     1      20.950   4.574  50.979  1.00  0.00    -0.265 NA
HETATM   19  C24 UNL     1      20.757   4.100  49.541  1.00  0.00     0.161 A 
HETATM   20  O1  UNL     1      20.280   2.874  49.530  1.00  0.00    -0.213 OA
HETATM   21  C25 UNL     1      22.775   6.596  51.196  1.00  0.00     0.173 C 
HETATM   22  H15 UNL     1      25.625   5.756  51.461  1.00  0.00     0.160 HD
HETATM   23  H26 UNL     1      21.014   4.883  50.057  1.00  0.00     0.190 HD
ENDROOT
BRANCH  15  24
HETATM   24  C14 UNL     1      23.972   3.482  52.949  1.00  0.00     0.045 C 
BRANCH  24  25
HETATM   25  C15 UNL     1      23.343   2.150  52.612  1.00  0.00     0.043 C 
BRANCH  25  26
HETATM   26  C16 UNL     1      24.435   1.138  52.779  1.00  0.00    -0.058 A 
HETATM   27  C17 UNL     1      24.370  -0.045  53.487  1.00  0.00     0.009 A 
HETATM   28  C18 UNL     1      25.494  -0.847  53.524  1.00  0.00     0.024 A 
HETATM   29  C19 UNL     1      26.664  -0.498  52.878  1.00  0.00     0.034 A 
HETATM   30 CL1  UNL     1      28.056  -1.558  52.961  1.00  0.00    -0.084 Cl
HETATM   31  C20 UNL     1      26.759   0.684  52.159  1.00  0.00     0.024 A 
HETATM   32  C21 UNL     1      25.630   1.476  52.131  1.00  0.00     0.009 A 
ENDBRANCH  25  26
ENDBRANCH  24  25
ENDBRANCH  15  24
TORSDOF 4
ENDMDL
MODEL 5
REMARK VINA RESULT:      -8.3      2.496      3.382
REMARK  4 active torsions:
REMARK  status: ('A' for Active; 'I' for Inactive)
REMARK    1  A    between atoms: C8_9  and  C9_10 
REMARK    2  A    between atoms: C13_15  and  C14_16 
REMARK    3  A    between atoms: C14_16  and  C15_17 
REMARK    4  A    between atoms: C15_17  and  C16_18 
ROOT
HETATM    1  C1  UNL     1      19.316   6.491  49.825  1.00  0.00     0.143 C 
HETATM    2  N1  UNL     1      20.559   5.808  50.353  1.00  0.00    -0.411 N 
HETATM    3  C2  UNL     1      21.665   6.587  50.163  1.00  0.00     0.117 C 
HETATM    4  C3  UNL     1      22.355   6.777  48.884  1.00  0.00     0.028 C 
HETATM    5  C4  UNL     1      23.092   5.751  48.145  1.00  0.00     0.039 C 
HETATM    6  C5  UNL     1      24.333   5.145  48.707  1.00  0.00     0.019 C 
HETATM    7  C6  UNL     1      24.100   4.254  49.860  1.00  0.00    -0.023 A 
HETATM    8  C7  UNL     1      23.982   3.062  49.197  1.00  0.00     0.007 A 
HETATM    9  C8  UNL     1      23.455   2.759  50.404  1.00  0.00     0.029 A 
HETATM   10  C9  UNL     1      23.330   3.579  51.444  1.00  0.00     0.044 A 
HETATM   11  C10 UNL     1      23.328   4.592  52.311  1.00  0.00     0.029 A 
HETATM   12  C11 UNL     1      23.871   4.876  51.042  1.00  0.00     0.031 A 
HETATM   13  N2  UNL     1      22.145   3.154  52.243  1.00  0.00    -0.381 N 
HETATM   14  C12 UNL     1      21.145   3.498  51.210  1.00  0.00     0.029 C 
HETATM   15  C13 UNL     1      20.636   2.427  50.508  1.00  0.00    -0.033 C 
HETATM   16  C22 UNL     1      20.258   2.411  49.080  1.00  0.00     0.020 C 
HETATM   17  C23 UNL     1      20.117   2.874  47.812  1.00  0.00     0.060 C 
HETATM   18  N3  UNL     1      20.763   4.019  48.317  1.00  0.00    -0.265 NA
HETATM   19  C24 UNL     1      22.081   4.588  47.799  1.00  0.00     0.161 A 
HETATM   20  O1  UNL     1      22.496   3.895  46.761  1.00  0.00    -0.213 OA
HETATM   21  C25 UNL     1      20.285   4.649  50.932  1.00  0.00     0.173 C 
HETATM   22  H15 UNL     1      21.471   2.805  52.955  1.00  0.00     0.160 HD
HETATM   23  H26 UNL     1      21.388   4.753  48.461  1.00  0.00     0.190 HD
ENDROOT
BRANCH  15  24
HETATM   24  C14 UNL     1      20.747   0.936  50.485  1.00  0.00     0.045 C 
BRANCH  24  25
HETATM   25  C15 UNL     1      20.034   0.276  51.642  1.00  0.00     0.043 C 
BRANCH  25  26
HETATM   26  C16 UNL     1      21.114  -0.137  52.595  1.00  0.00    -0.058 A 
HETATM   27  C17 UNL     1      22.453  -0.308  52.309  1.00  0.00     0.009 A 
HETATM   28  C18 UNL     1      23.295  -0.698  53.332  1.00  0.00     0.024 A 
HETATM   29  C19 UNL     1      22.835  -0.918  54.615  1.00  0.00     0.034 A 
HETATM   30 CL1  UNL     1      23.953  -1.411  55.871  1.00  0.00    -0.084 Cl
HETATM   31  C20 UNL     1      21.495  -0.754  54.933  1.00  0.00     0.024 A 
HETATM   32  C21 UNL     1      20.665  -0.365  53.902  1.00  0.00     0.009 A 
ENDBRANCH  25  26
ENDBRANCH  24  25
ENDBRANCH  15  24
TORSDOF 4
ENDMDL
MODEL 6
REMARK VINA RESULT:      -8.3      1.740      3.383
REMARK  4 active torsions:
REMARK  status: ('A' for Active; 'I' for Inactive)
REMARK    1  A    between atoms: C8_9  and  C9_10 
REMARK    2  A    between atoms: C13_15  and  C14_16 
REMARK    3  A    between atoms: C14_16  and  C15_17 
REMARK    4  A    between atoms: C15_17  and  C16_18 
ROOT
HETATM    1  C1  UNL     1      21.984   6.993  50.093  1.00  0.00     0.143 C 
HETATM    2  N1  UNL     1      21.897   5.629  49.445  1.00  0.00    -0.411 N 
HETATM    3  C2  UNL     1      20.758   5.511  48.702  1.00  0.00     0.117 C 
HETATM    4  C3  UNL     1      19.412   5.300  49.243  1.00  0.00     0.028 C 
HETATM    5  C4  UNL     1      18.946   4.101  49.940  1.00  0.00     0.039 C 
HETATM    6  C5  UNL     1      18.848   2.793  49.230  1.00  0.00     0.019 C 
HETATM    7  C6  UNL     1      20.152   2.186  48.902  1.00  0.00    -0.023 A 
HETATM    8  C7  UNL     1      20.322   1.412  50.019  1.00  0.00     0.007 A 
HETATM    9  C8  UNL     1      21.573   1.437  49.508  1.00  0.00     0.029 A 
HETATM   10  C9  UNL     1      21.966   2.060  48.401  1.00  0.00     0.044 A 
HETATM   11  C10 UNL     1      22.084   2.761  47.273  1.00  0.00     0.029 A 
HETATM   12  C11 UNL     1      20.791   2.716  47.832  1.00  0.00     0.031 A 
HETATM   13  N2  UNL     1      23.396   2.451  48.559  1.00  0.00    -0.381 N 
HETATM   14  C12 UNL     1      23.156   3.439  49.631  1.00  0.00     0.029 C 
HETATM   15  C13 UNL     1      23.479   3.014  50.902  1.00  0.00    -0.033 C 
HETATM   16  C22 UNL     1      22.768   3.356  52.151  1.00  0.00     0.020 C 
HETATM   17  C23 UNL     1      21.805   3.891  52.943  1.00  0.00     0.060 C 
HETATM   18  N3  UNL     1      21.235   4.297  51.720  1.00  0.00    -0.265 NA
HETATM   19  C24 UNL     1      19.847   3.906  51.222  1.00  0.00     0.161 A 
HETATM   20  O1  UNL     1      19.224   3.191  52.133  1.00  0.00    -0.213 OA
HETATM   21  C25 UNL     1      22.967   4.889  49.692  1.00  0.00     0.173 C 
HETATM   22  H15 UNL     1      24.428   2.574  48.508  1.00  0.00     0.160 HD
HETATM   23  H26 UNL     1      20.625   4.433  50.972  1.00  0.00     0.190 HD
ENDROOT
BRANCH  15  24
HETATM   24  C14 UNL     1      24.071   1.818  51.577  1.00  0.00     0.045 C 
BRANCH  24  25
HETATM   25  C15 UNL     1      24.860   2.172  52.816  1.00  0.00     0.043 C 
BRANCH  25  26
HETATM   26  C16 UNL     1      25.947   1.144  52.906  1.00  0.00    -0.058 A 
HETATM   27  C17 UNL     1      25.859  -0.189  52.559  1.00  0.00     0.009 A 
HETATM   28  C18 UNL     1      26.980  -0.980  52.720  1.00  0.00     0.024 A 
HETATM   29  C19 UNL     1      28.168  -0.477  53.211  1.00  0.00     0.034 A 
HETATM   30 CL1  UNL     1      29.556  -1.531  53.391  1.00  0.00    -0.084 Cl
HETATM   31  C20 UNL     1      28.286   0.859  53.567  1.00  0.00     0.024 A 
HETATM   32  C21 UNL     1      27.159   1.638  53.403  1.00  0.00     0.009 A 
ENDBRANCH  25  26
ENDBRANCH  24  25
ENDBRANCH  15  24
TORSDOF 4
ENDMDL
MODEL 7
REMARK VINA RESULT:      -8.3      1.994      3.875
REMARK  4 active torsions:
REMARK  status: ('A' for Active; 'I' for Inactive)
REMARK    1  A    between atoms: C8_9  and  C9_10 
REMARK    2  A    between atoms: C13_15  and  C14_16 
REMARK    3  A    between atoms: C14_16  and  C15_17 
REMARK    4  A    between atoms: C15_17  and  C16_18 
ROOT
HETATM    1  C1  UNL     1      21.224   3.208  46.486  1.00  0.00     0.143 C 
HETATM    2  N1  UNL     1      21.296   2.733  47.921  1.00  0.00    -0.411 N 
HETATM    3  C2  UNL     1      20.047   2.620  48.463  1.00  0.00     0.117 C 
HETATM    4  C3  UNL     1      19.216   3.740  48.913  1.00  0.00     0.028 C 
HETATM    5  C4  UNL     1      19.504   4.621  50.046  1.00  0.00     0.039 C 
HETATM    6  C5  UNL     1      19.522   4.095  51.441  1.00  0.00     0.019 C 
HETATM    7  C6  UNL     1      20.669   3.215  51.738  1.00  0.00    -0.023 A 
HETATM    8  C7  UNL     1      21.544   4.150  52.225  1.00  0.00     0.007 A 
HETATM    9  C8  UNL     1      22.367   3.109  51.970  1.00  0.00     0.029 A 
HETATM   10  C9  UNL     1      22.019   1.923  51.479  1.00  0.00     0.044 A 
HETATM   11  C10 UNL     1      21.405   0.846  50.988  1.00  0.00     0.029 A 
HETATM   12  C11 UNL     1      20.574   1.950  51.264  1.00  0.00     0.031 A 
HETATM   13  N2  UNL     1      23.170   1.373  50.708  1.00  0.00    -0.381 N 
HETATM   14  C12 UNL     1      23.126   2.391  49.638  1.00  0.00     0.029 C 
HETATM   15  C13 UNL     1      24.087   3.375  49.726  1.00  0.00    -0.033 C 
HETATM   16  C22 UNL     1      23.926   4.797  49.359  1.00  0.00     0.020 C 
HETATM   17  C23 UNL     1      23.292   5.927  48.957  1.00  0.00     0.060 C 
HETATM   18  N3  UNL     1      22.150   5.102  48.942  1.00  0.00    -0.265 NA
HETATM   19  C24 UNL     1      20.885   5.333  49.763  1.00  0.00     0.161 A 
HETATM   20  O1  UNL     1      20.982   6.459  50.438  1.00  0.00    -0.213 OA
HETATM   21  C25 UNL     1      22.538   2.475  48.300  1.00  0.00     0.173 C 
HETATM   22  H15 UNL     1      23.979   0.836  50.333  1.00  0.00     0.160 HD
HETATM   23  H26 UNL     1      21.267   4.726  49.107  1.00  0.00     0.190 HD
ENDROOT
BRANCH  15  24
HETATM   24  C14 UNL     1      25.256   3.738  50.584  1.00  0.00     0.045 C 
BRANCH  24  25
HETATM   25  C15 UNL     1      26.419   2.786  50.428  1.00  0.00     0.043 C 
BRANCH  25  26
HETATM   26  C16 UNL     1      26.347   1.868  51.611  1.00  0.00    -0.058 A 
HETATM   27  C17 UNL     1      26.633   0.519  51.633  1.00  0.00     0.009 A 
HETATM   28  C18 UNL     1      26.502  -0.157  52.830  1.00  0.00     0.024 A 
HETATM   29  C19 UNL     1      26.097   0.476  53.988  1.00  0.00     0.034 A 
HETATM   30 CL1  UNL     1      25.951  -0.435  55.478  1.00  0.00    -0.084 Cl
HETATM   31  C20 UNL     1      25.803   1.832  53.997  1.00  0.00     0.024 A 
HETATM   32  C21 UNL     1      25.937   2.494  52.794  1.00  0.00     0.009 A 
ENDBRANCH  25  26
ENDBRANCH  24  25
ENDBRANCH  15  24
TORSDOF 4
ENDMDL
MODEL 8
REMARK VINA RESULT:      -8.2      3.544      5.819
REMARK  4 active torsions:
REMARK  status: ('A' for Active; 'I' for Inactive)
REMARK    1  A    between atoms: C8_9  and  C9_10 
REMARK    2  A    between atoms: C13_15  and  C14_16 
REMARK    3  A    between atoms: C14_16  and  C15_17 
REMARK    4  A    between atoms: C15_17  and  C16_18 
ROOT
HETATM    1  C1  UNL     1      18.492   5.107  49.876  1.00  0.00     0.143 C 
HETATM    2  N1  UNL     1      19.603   4.116  49.605  1.00  0.00    -0.411 N 
HETATM    3  C2  UNL     1      19.452   2.990  50.364  1.00  0.00     0.117 C 
HETATM    4  C3  UNL     1      19.757   2.887  51.794  1.00  0.00     0.028 C 
HETATM    5  C4  UNL     1      21.088   2.977  52.396  1.00  0.00     0.039 C 
HETATM    6  C5  UNL     1      22.126   1.943  52.116  1.00  0.00     0.019 C 
HETATM    7  C6  UNL     1      22.663   1.985  50.742  1.00  0.00    -0.023 A 
HETATM    8  C7  UNL     1      23.736   2.810  50.949  1.00  0.00     0.007 A 
HETATM    9  C8  UNL     1      23.613   2.851  49.604  1.00  0.00     0.029 A 
HETATM   10  C9  UNL     1      22.710   2.208  48.870  1.00  0.00     0.044 A 
HETATM   11  C10 UNL     1      21.715   1.464  48.387  1.00  0.00     0.029 A 
HETATM   12  C11 UNL     1      21.869   1.443  49.787  1.00  0.00     0.031 A 
HETATM   13  N2  UNL     1      22.440   3.010  47.642  1.00  0.00    -0.381 N 
HETATM   14  C12 UNL     1      21.800   4.140  48.346  1.00  0.00     0.029 C 
HETATM   15  C13 UNL     1      22.591   5.259  48.498  1.00  0.00    -0.033 C 
HETATM   16  C22 UNL     1      22.601   6.178  49.654  1.00  0.00     0.020 C 
HETATM   17  C23 UNL     1      22.282   6.654  50.884  1.00  0.00     0.060 C 
HETATM   18  N3  UNL     1      21.514   5.478  50.977  1.00  0.00    -0.265 NA
HETATM   19  C24 UNL     1      21.685   4.394  52.037  1.00  0.00     0.161 A 
HETATM   20  O1  UNL     1      22.610   4.749  52.902  1.00  0.00    -0.213 OA
HETATM   21  C25 UNL     1      20.425   4.534  48.655  1.00  0.00     0.173 C 
HETATM   22  H15 UNL     1      22.350   3.397  46.680  1.00  0.00     0.160 HD
HETATM   23  H26 UNL     1      21.141   4.625  51.265  1.00  0.00     0.190 HD
ENDROOT
BRANCH  15  24
HETATM   24  C14 UNL     1      23.955   5.738  48.116  1.00  0.00     0.045 C 
BRANCH  24  25
HETATM   25  C15 UNL     1      24.949   5.649  49.251  1.00  0.00     0.043 C 
BRANCH  25  26
HETATM   26  C16 UNL     1      26.259   6.084  48.670  1.00  0.00    -0.058 A 
HETATM   27  C17 UNL     1      26.533   7.283  48.044  1.00  0.00     0.009 A 
HETATM   28  C18 UNL     1      27.813   7.496  47.570  1.00  0.00     0.024 A 
HETATM   29  C19 UNL     1      28.810   6.550  47.706  1.00  0.00     0.034 A 
HETATM   30 CL1  UNL     1      30.416   6.878  47.086  1.00  0.00    -0.084 Cl
HETATM   31  C20 UNL     1      28.566   5.336  48.331  1.00  0.00     0.024 A 
HETATM   32  C21 UNL     1      27.283   5.137  48.798  1.00  0.00     0.009 A 
ENDBRANCH  25  26
ENDBRANCH  24  25
ENDBRANCH  15  24
TORSDOF 4
ENDMDL
MODEL 9
REMARK VINA RESULT:      -8.2      7.776      9.732
REMARK  4 active torsions:
REMARK  status: ('A' for Active; 'I' for Inactive)
REMARK    1  A    between atoms: C8_9  and  C9_10 
REMARK    2  A    between atoms: C13_15  and  C14_16 
REMARK    3  A    between atoms: C14_16  and  C15_17 
REMARK    4  A    between atoms: C15_17  and  C16_18 
ROOT
HETATM    1  C1  UNL     1      29.499  12.141  48.560  1.00  0.00     0.143 C 
HETATM    2  N1  UNL     1      30.296  10.856  48.564  1.00  0.00    -0.411 N 
HETATM    3  C2  UNL     1      31.557  11.060  48.080  1.00  0.00     0.117 C 
HETATM    4  C3  UNL     1      31.903  11.228  46.666  1.00  0.00     0.028 C 
HETATM    5  C4  UNL     1      31.794  10.203  45.627  1.00  0.00     0.039 C 
HETATM    6  C5  UNL     1      32.639   8.975  45.671  1.00  0.00     0.019 C 
HETATM    7  C6  UNL     1      32.275   8.031  46.745  1.00  0.00    -0.023 A 
HETATM    8  C7  UNL     1      31.398   7.238  46.055  1.00  0.00     0.007 A 
HETATM    9  C8  UNL     1      31.110   6.917  47.335  1.00  0.00     0.029 A 
HETATM   10  C9  UNL     1      31.689   7.409  48.427  1.00  0.00     0.044 A 
HETATM   11  C10 UNL     1      32.426   8.053  49.332  1.00  0.00     0.029 A 
HETATM   12  C11 UNL     1      32.701   8.367  47.987  1.00  0.00     0.031 A 
HETATM   13  N2  UNL     1      30.697   7.389  49.540  1.00  0.00    -0.381 N 
HETATM   14  C12 UNL     1      29.798   8.403  48.949  1.00  0.00     0.029 C 
HETATM   15  C13 UNL     1      28.654   7.902  48.366  1.00  0.00    -0.033 C 
HETATM   16  C22 UNL     1      27.980   8.424  47.160  1.00  0.00     0.020 C 
HETATM   17  C23 UNL     1      27.788   9.204  46.066  1.00  0.00     0.060 C 
HETATM   18  N3  UNL     1      29.034   9.754  46.423  1.00  0.00    -0.265 NA
HETATM   19  C24 UNL     1      30.279   9.764  45.541  1.00  0.00     0.161 A 
HETATM   20  O1  UNL     1      30.004   9.247  44.364  1.00  0.00    -0.213 OA
HETATM   21  C25 UNL     1      29.618   9.848  49.091  1.00  0.00     0.173 C 
HETATM   22  H15 UNL     1      30.142   7.221  50.404  1.00  0.00     0.160 HD
HETATM   23  H26 UNL     1      29.961  10.055  46.413  1.00  0.00     0.190 HD
ENDROOT
BRANCH  15  24
HETATM   24  C14 UNL     1      27.969   6.587  48.168  1.00  0.00     0.045 C 
BRANCH  24  25
HETATM   25  C15 UNL     1      26.465   6.686  48.270  1.00  0.00     0.043 C 
BRANCH  25  26
HETATM   26  C16 UNL     1      26.047   5.540  49.141  1.00  0.00    -0.058 A 
HETATM   27  C17 UNL     1      24.994   5.517  50.032  1.00  0.00     0.009 A 
HETATM   28  C18 UNL     1      24.771   4.357  50.750  1.00  0.00     0.024 A 
HETATM   29  C19 UNL     1      25.566   3.238  50.598  1.00  0.00     0.034 A 
HETATM   30 CL1  UNL     1      25.233   1.796  51.535  1.00  0.00    -0.084 Cl
HETATM   31  C20 UNL     1      26.631   3.232  49.709  1.00  0.00     0.024 A 
HETATM   32  C21 UNL     1      26.842   4.397  49.000  1.00  0.00     0.009 A 
ENDBRANCH  25  26
ENDBRANCH  24  25
ENDBRANCH  15  24
TORSDOF 4
ENDMDL
