MODEL 1
REMARK VINA RESULT:      -7.8      0.000      0.000
REMARK  4 active torsions:
REMARK  status: ('A' for Active; 'I' for Inactive)
REMARK    1  A    between atoms: O1_2  and  C2_3 
REMARK    2  A    between atoms: C8_11  and  N3_12 
REMARK    3  A    between atoms: N3_12  and  C9_13 
REMARK    4  A    between atoms: C16_21  and  O2_22 
ROOT
HETATM    1  C2  UNL     1      22.878   2.846  49.411  1.00  0.00     0.103 A 
HETATM    2  C3  UNL     1      21.817   2.115  49.913  1.00  0.00     0.072 A 
HETATM    3  C4  UNL     1      21.977   1.350  51.058  1.00  0.00     0.071 A 
HETATM    4  N1  UNL     1      21.000   0.609  51.616  1.00  0.00    -0.259 NA
HETATM    5  C5  UNL     1      21.197  -0.120  52.730  1.00  0.00     0.142 A 
HETATM    6  C6  UNL     1      22.432  -0.116  53.329  1.00  0.00     0.089 A 
HETATM    7  C7  UNL     1      22.579  -0.911  54.510  1.00  0.00     0.103 C 
HETATM    8  N2  UNL     1      22.711  -1.559  55.473  1.00  0.00    -0.191 NA
HETATM    9  C8  UNL     1      23.467   0.610  52.820  1.00  0.00     0.067 A 
HETATM   10  C14 UNL     1      23.217   1.351  51.663  1.00  0.00     0.024 A 
HETATM   11  C15 UNL     1      24.273   2.086  51.154  1.00  0.00     0.055 A 
HETATM   12  C16 UNL     1      24.120   2.851  50.012  1.00  0.00     0.102 A 
ENDROOT
BRANCH   9  13
HETATM   13  N3  UNL     1      24.690   0.552  53.498  1.00  0.00    -0.353 N 
HETATM   14  H6  UNL     1      24.480   1.097  54.365  1.00  0.00     0.166 HD
BRANCH  13  15
HETATM   15  C9  UNL     1      25.992   0.005  53.329  1.00  0.00     0.045 C 
HETATM   16  C10 UNL     1      26.060  -1.125  52.643  1.00  0.00     0.004 C 
HETATM   17  C11 UNL     1      27.228  -1.728  52.748  1.00  0.00     0.033 C 
HETATM   18  C12 UNL     1      28.091  -0.714  53.353  1.00  0.00     0.014 C 
HETATM   19 BR1  UNL     1      29.973  -0.700  53.675  1.00  0.00    -0.051 Br
HETATM   20  C13 UNL     1      27.361   0.350  53.714  1.00  0.00     0.049 C 
ENDBRANCH  13  15
ENDBRANCH   9  13
BRANCH  12  21
HETATM   21  O2  UNL     1      25.134   3.605  49.454  1.00  0.00    -0.353 OA
HETATM   22  C17 UNL     1      26.490   3.446  49.723  1.00  0.00     0.210 C 
ENDBRANCH  12  21
BRANCH   1  23
HETATM   23  O1  UNL     1      22.701   3.602  48.269  1.00  0.00    -0.353 OA
HETATM   24  C1  UNL     1      21.628   3.401  47.370  1.00  0.00     0.210 C 
ENDBRANCH   1  23
TORSDOF 4
ENDMDL
MODEL 2
REMARK VINA RESULT:      -7.7      3.518      5.908
REMARK  4 active torsions:
REMARK  status: ('A' for Active; 'I' for Inactive)
REMARK    1  A    between atoms: O1_2  and  C2_3 
REMARK    2  A    between atoms: C8_11  and  N3_12 
REMARK    3  A    between atoms: N3_12  and  C9_13 
REMARK    4  A    between atoms: C16_21  and  O2_22 
ROOT
HETATM    1  C2  UNL     1      27.529   1.191  53.244  1.00  0.00     0.103 A 
HETATM    2  C3  UNL     1      27.137   0.392  54.301  1.00  0.00     0.072 A 
HETATM    3  C4  UNL     1      25.832  -0.073  54.378  1.00  0.00     0.071 A 
HETATM    4  N1  UNL     1      25.364  -0.854  55.370  1.00  0.00    -0.259 NA
HETATM    5  C5  UNL     1      24.089  -1.285  55.406  1.00  0.00     0.142 A 
HETATM    6  C6  UNL     1      23.226  -0.922  54.402  1.00  0.00     0.089 A 
HETATM    7  C7  UNL     1      21.884  -1.410  54.496  1.00  0.00     0.103 C 
HETATM    8  N2  UNL     1      20.785  -1.801  54.566  1.00  0.00    -0.191 NA
HETATM    9  C8  UNL     1      23.631  -0.132  53.367  1.00  0.00     0.067 A 
HETATM   10  C14 UNL     1      24.961   0.290  53.370  1.00  0.00     0.024 A 
HETATM   11  C15 UNL     1      25.364   1.090  52.315  1.00  0.00     0.055 A 
HETATM   12  C16 UNL     1      26.663   1.557  52.234  1.00  0.00     0.102 A 
ENDROOT
BRANCH   9  13
HETATM   13  N3  UNL     1      22.680   0.186  52.390  1.00  0.00    -0.353 N 
HETATM   14  H6  UNL     1      22.854  -0.553  51.673  1.00  0.00     0.166 HD
BRANCH  13  15
HETATM   15  C9  UNL     1      21.659   1.147  52.152  1.00  0.00     0.045 C 
HETATM   16  C10 UNL     1      22.014   2.414  52.292  1.00  0.00     0.004 C 
HETATM   17  C11 UNL     1      20.986   3.241  52.334  1.00  0.00     0.033 C 
HETATM   18  C12 UNL     1      19.859   2.419  51.892  1.00  0.00     0.014 C 
HETATM   19 BR1  UNL     1      18.051   2.883  51.491  1.00  0.00    -0.051 Br
HETATM   20  C13 UNL     1      20.245   1.142  51.774  1.00  0.00     0.049 C 
ENDBRANCH  13  15
ENDBRANCH   9  13
BRANCH  12  21
HETATM   21  O2  UNL     1      27.126   2.358  51.208  1.00  0.00    -0.353 OA
HETATM   22  C17 UNL     1      26.329   3.167  50.403  1.00  0.00     0.210 C 
ENDBRANCH  12  21
BRANCH   1  23
HETATM   23  O1  UNL     1      28.833   1.645  53.184  1.00  0.00    -0.353 OA
HETATM   24  C1  UNL     1      29.516   2.177  54.302  1.00  0.00     0.210 C 
ENDBRANCH   1  23
TORSDOF 4
ENDMDL
MODEL 3
REMARK VINA RESULT:      -7.6      3.908      6.807
REMARK  4 active torsions:
REMARK  status: ('A' for Active; 'I' for Inactive)
REMARK    1  A    between atoms: O1_2  and  C2_3 
REMARK    2  A    between atoms: C8_11  and  N3_12 
REMARK    3  A    between atoms: N3_12  and  C9_13 
REMARK    4  A    between atoms: C16_21  and  O2_22 
ROOT
HETATM    1  C2  UNL     1      27.209  -0.062  53.593  1.00  0.00     0.103 A 
HETATM    2  C3  UNL     1      27.612   0.859  52.644  1.00  0.00     0.072 A 
HETATM    3  C4  UNL     1      26.681   1.690  52.038  1.00  0.00     0.071 A 
HETATM    4  N1  UNL     1      26.985   2.613  51.106  1.00  0.00    -0.259 NA
HETATM    5  C5  UNL     1      26.050   3.402  50.543  1.00  0.00     0.142 A 
HETATM    6  C6  UNL     1      24.738   3.270  50.925  1.00  0.00     0.089 A 
HETATM    7  C7  UNL     1      23.791   4.136  50.292  1.00  0.00     0.103 C 
HETATM    8  N2  UNL     1      23.009   4.836  49.778  1.00  0.00    -0.191 NA
HETATM    9  C8  UNL     1      24.358   2.356  51.864  1.00  0.00     0.067 A 
HETATM   10  C14 UNL     1      25.362   1.561  52.420  1.00  0.00     0.024 A 
HETATM   11  C15 UNL     1      24.967   0.636  53.372  1.00  0.00     0.055 A 
HETATM   12  C16 UNL     1      25.891  -0.195  53.978  1.00  0.00     0.102 A 
ENDROOT
BRANCH   9  13
HETATM   13  N3  UNL     1      22.998   2.294  52.189  1.00  0.00    -0.353 N 
HETATM   14  H6  UNL     1      22.894   3.112  52.830  1.00  0.00     0.166 HD
BRANCH  13  15
HETATM   15  C9  UNL     1      21.857   1.495  51.903  1.00  0.00     0.045 C 
HETATM   16  C10 UNL     1      21.757   1.054  50.659  1.00  0.00     0.004 C 
HETATM   17  C11 UNL     1      20.566   0.561  50.377  1.00  0.00     0.033 C 
HETATM   18  C12 UNL     1      19.925   0.426  51.684  1.00  0.00     0.014 C 
HETATM   19 BR1  UNL     1      18.270  -0.380  52.192  1.00  0.00    -0.051 Br
HETATM   20  C13 UNL     1      20.692   0.986  52.629  1.00  0.00     0.049 C 
ENDBRANCH  13  15
ENDBRANCH   9  13
BRANCH  12  21
HETATM   21  O2  UNL     1      25.562  -1.137  54.934  1.00  0.00    -0.353 OA
HETATM   22  C17 UNL     1      24.319  -1.251  55.550  1.00  0.00     0.210 C 
ENDBRANCH  12  21
BRANCH   1  23
HETATM   23  O1  UNL     1      28.150  -0.882  54.185  1.00  0.00    -0.353 OA
HETATM   24  C1  UNL     1      29.515  -0.879  53.817  1.00  0.00     0.210 C 
ENDBRANCH   1  23
TORSDOF 4
ENDMDL
MODEL 4
REMARK VINA RESULT:      -7.5      2.596      4.422
REMARK  4 active torsions:
REMARK  status: ('A' for Active; 'I' for Inactive)
REMARK    1  A    between atoms: O1_2  and  C2_3 
REMARK    2  A    between atoms: C8_11  and  N3_12 
REMARK    3  A    between atoms: N3_12  and  C9_13 
REMARK    4  A    between atoms: C16_21  and  O2_22 
ROOT
HETATM    1  C2  UNL     1      20.704   0.748  52.280  1.00  0.00     0.103 A 
HETATM    2  C3  UNL     1      20.918   1.455  51.112  1.00  0.00     0.072 A 
HETATM    3  C4  UNL     1      22.184   1.935  50.809  1.00  0.00     0.071 A 
HETATM    4  N1  UNL     1      22.483   2.632  49.696  1.00  0.00    -0.259 NA
HETATM    5  C5  UNL     1      23.727   3.079  49.440  1.00  0.00     0.142 A 
HETATM    6  C6  UNL     1      24.734   2.822  50.336  1.00  0.00     0.089 A 
HETATM    7  C7  UNL     1      26.034   3.323  50.009  1.00  0.00     0.103 C 
HETATM    8  N2  UNL     1      27.098   3.732  49.752  1.00  0.00    -0.191 NA
HETATM    9  C8  UNL     1      24.504   2.122  51.484  1.00  0.00     0.067 A 
HETATM   10  C14 UNL     1      23.199   1.678  51.708  1.00  0.00     0.024 A 
HETATM   11  C15 UNL     1      22.975   0.969  52.875  1.00  0.00     0.055 A 
HETATM   12  C16 UNL     1      21.715   0.488  53.182  1.00  0.00     0.102 A 
ENDROOT
BRANCH   9  13
HETATM   13  N3  UNL     1      25.592   1.909  52.338  1.00  0.00    -0.353 N 
HETATM   14  H6  UNL     1      25.563   2.763  52.939  1.00  0.00     0.166 HD
BRANCH  13  15
HETATM   15  C9  UNL     1      26.609   0.941  52.568  1.00  0.00     0.045 C 
HETATM   16  C10 UNL     1      26.308  -0.303  52.232  1.00  0.00     0.004 C 
HETATM   17  C11 UNL     1      27.158  -1.191  52.711  1.00  0.00     0.033 C 
HETATM   18  C12 UNL     1      28.283  -0.382  53.177  1.00  0.00     0.014 C 
HETATM   19 BR1  UNL     1      30.004  -0.886  53.832  1.00  0.00    -0.051 Br
HETATM   20  C13 UNL     1      27.972   0.919  53.099  1.00  0.00     0.049 C 
ENDBRANCH  13  15
ENDBRANCH   9  13
BRANCH  12  21
HETATM   21  O2  UNL     1      21.426  -0.226  54.329  1.00  0.00    -0.353 OA
HETATM   22  C17 UNL     1      22.292  -1.118  54.955  1.00  0.00     0.210 C 
ENDBRANCH  12  21
BRANCH   1  23
HETATM   23  O1  UNL     1      19.436   0.278  52.565  1.00  0.00    -0.353 OA
HETATM   24  C1  UNL     1      18.527  -0.142  51.567  1.00  0.00     0.210 C 
ENDBRANCH   1  23
TORSDOF 4
ENDMDL
MODEL 5
REMARK VINA RESULT:      -7.5      3.124      5.110
REMARK  4 active torsions:
REMARK  status: ('A' for Active; 'I' for Inactive)
REMARK    1  A    between atoms: O1_2  and  C2_3 
REMARK    2  A    between atoms: C8_11  and  N3_12 
REMARK    3  A    between atoms: N3_12  and  C9_13 
REMARK    4  A    between atoms: C16_21  and  O2_22 
ROOT
HETATM    1  C2  UNL     1      18.994  -0.325  52.391  1.00  0.00     0.103 A 
HETATM    2  C3  UNL     1      19.502  -0.929  53.525  1.00  0.00     0.072 A 
HETATM    3  C4  UNL     1      20.861  -0.869  53.799  1.00  0.00     0.071 A 
HETATM    4  N1  UNL     1      21.441  -1.429  54.878  1.00  0.00    -0.259 NA
HETATM    5  C5  UNL     1      22.765  -1.346  55.107  1.00  0.00     0.142 A 
HETATM    6  C6  UNL     1      23.562  -0.671  54.217  1.00  0.00     0.089 A 
HETATM    7  C7  UNL     1      24.961  -0.617  54.515  1.00  0.00     0.103 C 
HETATM    8  N2  UNL     1      26.105  -0.572  54.747  1.00  0.00    -0.191 NA
HETATM    9  C8  UNL     1      23.043  -0.080  53.103  1.00  0.00     0.067 A 
HETATM   10  C14 UNL     1      21.666  -0.191  52.906  1.00  0.00     0.024 A 
HETATM   11  C15 UNL     1      21.148   0.412  51.773  1.00  0.00     0.055 A 
HETATM   12  C16 UNL     1      19.795   0.355  51.495  1.00  0.00     0.102 A 
ENDROOT
BRANCH   9  13
HETATM   13  N3  UNL     1      23.934   0.586  52.253  1.00  0.00    -0.353 N 
HETATM   14  H6  UNL     1      24.459  -0.210  51.826  1.00  0.00     0.166 HD
BRANCH  13  15
HETATM   15  C9  UNL     1      24.268   1.915  51.868  1.00  0.00     0.045 C 
HETATM   16  C10 UNL     1      23.800   2.877  52.647  1.00  0.00     0.004 C 
HETATM   17  C11 UNL     1      23.898   4.076  52.107  1.00  0.00     0.033 C 
HETATM   18  C12 UNL     1      24.785   3.873  50.962  1.00  0.00     0.014 C 
HETATM   19 BR1  UNL     1      25.588   5.122  49.762  1.00  0.00    -0.051 Br
HETATM   20  C13 UNL     1      25.024   2.566  50.798  1.00  0.00     0.049 C 
ENDBRANCH  13  15
ENDBRANCH   9  13
BRANCH  12  21
HETATM   21  O2  UNL     1      19.216   0.935  50.382  1.00  0.00    -0.353 OA
HETATM   22  C17 UNL     1      19.123   2.304  50.151  1.00  0.00     0.210 C 
ENDBRANCH  12  21
BRANCH   1  23
HETATM   23  O1  UNL     1      17.639  -0.395  52.133  1.00  0.00    -0.353 OA
HETATM   24  C1  UNL     1      16.794  -1.371  52.712  1.00  0.00     0.210 C 
ENDBRANCH   1  23
TORSDOF 4
ENDMDL
MODEL 6
REMARK VINA RESULT:      -7.5      2.968      5.582
REMARK  4 active torsions:
REMARK  status: ('A' for Active; 'I' for Inactive)
REMARK    1  A    between atoms: O1_2  and  C2_3 
REMARK    2  A    between atoms: C8_11  and  N3_12 
REMARK    3  A    between atoms: N3_12  and  C9_13 
REMARK    4  A    between atoms: C16_21  and  O2_22 
ROOT
HETATM    1  C2  UNL     1      27.027   0.901  53.060  1.00  0.00     0.103 A 
HETATM    2  C3  UNL     1      26.362  -0.009  53.860  1.00  0.00     0.072 A 
HETATM    3  C4  UNL     1      24.977  -0.084  53.828  1.00  0.00     0.071 A 
HETATM    4  N1  UNL     1      24.249  -0.938  54.572  1.00  0.00    -0.259 NA
HETATM    5  C5  UNL     1      22.904  -0.979  54.511  1.00  0.00     0.142 A 
HETATM    6  C6  UNL     1      22.242  -0.126  53.665  1.00  0.00     0.089 A 
HETATM    7  C7  UNL     1      20.813  -0.217  53.644  1.00  0.00     0.103 C 
HETATM    8  N2  UNL     1      19.647  -0.281  53.623  1.00  0.00    -0.191 NA
HETATM    9  C8  UNL     1      22.915   0.765  52.882  1.00  0.00     0.067 A 
HETATM   10  C14 UNL     1      24.307   0.772  52.979  1.00  0.00     0.024 A 
HETATM   11  C15 UNL     1      24.982   1.680  52.181  1.00  0.00     0.055 A 
HETATM   12  C16 UNL     1      26.362   1.759  52.208  1.00  0.00     0.102 A 
ENDROOT
BRANCH   9  13
HETATM   13  N3  UNL     1      22.154   1.596  52.051  1.00  0.00    -0.353 N 
HETATM   14  H6  UNL     1      21.650   2.191  52.746  1.00  0.00     0.166 HD
BRANCH  13  15
HETATM   15  C9  UNL     1      21.919   1.809  50.664  1.00  0.00     0.045 C 
HETATM   16  C10 UNL     1      21.387   0.793  50.005  1.00  0.00     0.004 C 
HETATM   17  C11 UNL     1      21.444   0.936  48.695  1.00  0.00     0.033 C 
HETATM   18  C12 UNL     1      21.812   2.340  48.512  1.00  0.00     0.014 C 
HETATM   19 BR1  UNL     1      21.923   3.412  46.936  1.00  0.00    -0.051 Br
HETATM   20  C13 UNL     1      22.104   2.892  49.697  1.00  0.00     0.049 C 
ENDBRANCH  13  15
ENDBRANCH   9  13
BRANCH  12  21
HETATM   21  O2  UNL     1      27.094   2.642  51.437  1.00  0.00    -0.353 OA
HETATM   22  C17 UNL     1      26.601   3.347  50.344  1.00  0.00     0.210 C 
ENDBRANCH  12  21
BRANCH   1  23
HETATM   23  O1  UNL     1      28.407   0.962  53.104  1.00  0.00    -0.353 OA
HETATM   24  C1  UNL     1      29.148   0.795  54.297  1.00  0.00     0.210 C 
ENDBRANCH   1  23
TORSDOF 4
ENDMDL
MODEL 7
REMARK VINA RESULT:      -7.4      3.571      5.985
REMARK  4 active torsions:
REMARK  status: ('A' for Active; 'I' for Inactive)
REMARK    1  A    between atoms: O1_2  and  C2_3 
REMARK    2  A    between atoms: C8_11  and  N3_12 
REMARK    3  A    between atoms: N3_12  and  C9_13 
REMARK    4  A    between atoms: C16_21  and  O2_22 
ROOT
HETATM    1  C2  UNL     1      26.588   0.175  54.077  1.00  0.00     0.103 A 
HETATM    2  C3  UNL     1      25.449  -0.525  53.726  1.00  0.00     0.072 A 
HETATM    3  C4  UNL     1      24.337   0.148  53.244  1.00  0.00     0.071 A 
HETATM    4  N1  UNL     1      23.188  -0.452  52.880  1.00  0.00    -0.259 NA
HETATM    5  C5  UNL     1      22.130   0.239  52.416  1.00  0.00     0.142 A 
HETATM    6  C6  UNL     1      22.214   1.605  52.306  1.00  0.00     0.089 A 
HETATM    7  C7  UNL     1      21.057   2.284  51.806  1.00  0.00     0.103 C 
HETATM    8  N2  UNL     1      20.117   2.848  51.403  1.00  0.00    -0.191 NA
HETATM    9  C8  UNL     1      23.346   2.279  52.656  1.00  0.00     0.067 A 
HETATM   10  C14 UNL     1      24.417   1.521  53.131  1.00  0.00     0.024 A 
HETATM   11  C15 UNL     1      25.562   2.214  53.484  1.00  0.00     0.055 A 
HETATM   12  C16 UNL     1      26.674   1.548  53.965  1.00  0.00     0.102 A 
ENDROOT
BRANCH   9  13
HETATM   13  N3  UNL     1      23.338   3.671  52.509  1.00  0.00    -0.353 N 
HETATM   14  H6  UNL     1      22.791   3.972  53.346  1.00  0.00     0.166 HD
BRANCH  13  15
HETATM   15  C9  UNL     1      23.827   4.664  51.614  1.00  0.00     0.045 C 
HETATM   16  C10 UNL     1      24.457   4.214  50.541  1.00  0.00     0.004 C 
HETATM   17  C11 UNL     1      25.122   5.154  49.897  1.00  0.00     0.033 C 
HETATM   18  C12 UNL     1      24.624   6.398  50.483  1.00  0.00     0.014 C 
HETATM   19 BR1  UNL     1      24.924   8.220  49.998  1.00  0.00    -0.051 Br
HETATM   20  C13 UNL     1      23.834   6.125  51.529  1.00  0.00     0.049 C 
ENDBRANCH  13  15
ENDBRANCH   9  13
BRANCH  12  21
HETATM   21  O2  UNL     1      27.846   2.180  54.334  1.00  0.00    -0.353 OA
HETATM   22  C17 UNL     1      28.850   2.579  53.457  1.00  0.00     0.210 C 
ENDBRANCH  12  21
BRANCH   1  23
HETATM   23  O1  UNL     1      27.687  -0.513  54.555  1.00  0.00    -0.353 OA
HETATM   24  C1  UNL     1      28.672  -1.075  53.710  1.00  0.00     0.210 C 
ENDBRANCH   1  23
TORSDOF 4
ENDMDL
MODEL 8
REMARK VINA RESULT:      -7.2      3.320      5.383
REMARK  4 active torsions:
REMARK  status: ('A' for Active; 'I' for Inactive)
REMARK    1  A    between atoms: O1_2  and  C2_3 
REMARK    2  A    between atoms: C8_11  and  N3_12 
REMARK    3  A    between atoms: N3_12  and  C9_13 
REMARK    4  A    between atoms: C16_21  and  O2_22 
ROOT
HETATM    1  C2  UNL     1      24.802   3.294  50.611  1.00  0.00     0.103 A 
HETATM    2  C3  UNL     1      25.490   2.290  51.265  1.00  0.00     0.072 A 
HETATM    3  C4  UNL     1      24.816   1.410  52.099  1.00  0.00     0.071 A 
HETATM    4  N1  UNL     1      25.405   0.405  52.774  1.00  0.00    -0.259 NA
HETATM    5  C5  UNL     1      24.712  -0.428  53.574  1.00  0.00     0.142 A 
HETATM    6  C6  UNL     1      23.358  -0.256  53.715  1.00  0.00     0.089 A 
HETATM    7  C7  UNL     1      22.677  -1.173  54.578  1.00  0.00     0.103 C 
HETATM    8  N2  UNL     1      22.114  -1.913  55.284  1.00  0.00    -0.191 NA
HETATM    9  C8  UNL     1      22.695   0.741  53.062  1.00  0.00     0.067 A 
HETATM   10  C14 UNL     1      23.454   1.579  52.243  1.00  0.00     0.024 A 
HETATM   11  C15 UNL     1      22.773   2.588  51.584  1.00  0.00     0.055 A 
HETATM   12  C16 UNL     1      23.440   3.468  50.752  1.00  0.00     0.102 A 
ENDROOT
BRANCH   9  13
HETATM   13  N3  UNL     1      21.314   0.838  53.267  1.00  0.00    -0.353 N 
HETATM   14  H6  UNL     1      21.259   1.570  54.010  1.00  0.00     0.166 HD
BRANCH  13  15
HETATM   15  C9  UNL     1      20.108   0.261  52.780  1.00  0.00     0.045 C 
HETATM   16  C10 UNL     1      19.736   0.639  51.567  1.00  0.00     0.004 C 
HETATM   17  C11 UNL     1      18.495   0.300  51.275  1.00  0.00     0.033 C 
HETATM   18  C12 UNL     1      18.133  -0.645  52.331  1.00  0.00     0.014 C 
HETATM   19 BR1  UNL     1      16.589  -1.745  52.553  1.00  0.00    -0.051 Br
HETATM   20  C13 UNL     1      19.100  -0.686  53.258  1.00  0.00     0.049 C 
ENDBRANCH  13  15
ENDBRANCH   9  13
BRANCH  12  21
HETATM   21  O2  UNL     1      22.819   4.495  50.067  1.00  0.00    -0.353 OA
HETATM   22  C17 UNL     1      22.349   5.671  50.643  1.00  0.00     0.210 C 
ENDBRANCH  12  21
BRANCH   1  23
HETATM   23  O1  UNL     1      25.490   4.161  49.785  1.00  0.00    -0.353 OA
HETATM   24  C1  UNL     1      26.828   3.943  49.381  1.00  0.00     0.210 C 
ENDBRANCH   1  23
TORSDOF 4
ENDMDL
MODEL 9
REMARK VINA RESULT:      -7.1      3.090      4.965
REMARK  4 active torsions:
REMARK  status: ('A' for Active; 'I' for Inactive)
REMARK    1  A    between atoms: O1_2  and  C2_3 
REMARK    2  A    between atoms: C8_11  and  N3_12 
REMARK    3  A    between atoms: N3_12  and  C9_13 
REMARK    4  A    between atoms: C16_21  and  O2_22 
ROOT
HETATM    1  C2  UNL     1      25.614   4.150  49.928  1.00  0.00     0.103 A 
HETATM    2  C3  UNL     1      26.594   3.258  50.320  1.00  0.00     0.072 A 
HETATM    3  C4  UNL     1      26.330   2.321  51.308  1.00  0.00     0.071 A 
HETATM    4  N1  UNL     1      27.223   1.416  51.751  1.00  0.00    -0.259 NA
HETATM    5  C5  UNL     1      26.925   0.522  52.713  1.00  0.00     0.142 A 
HETATM    6  C6  UNL     1      25.671   0.523  53.269  1.00  0.00     0.089 A 
HETATM    7  C7  UNL     1      25.414  -0.451  54.287  1.00  0.00     0.103 C 
HETATM    8  N2  UNL     1      25.197  -1.239  55.121  1.00  0.00    -0.191 NA
HETATM    9  C8  UNL     1      24.716   1.411  52.869  1.00  0.00     0.067 A 
HETATM   10  C14 UNL     1      25.069   2.318  51.869  1.00  0.00     0.024 A 
HETATM   11  C15 UNL     1      24.094   3.215  51.470  1.00  0.00     0.055 A 
HETATM   12  C16 UNL     1      24.351   4.151  50.485  1.00  0.00     0.102 A 
ENDROOT
BRANCH   9  13
HETATM   13  N3  UNL     1      23.465   1.336  53.494  1.00  0.00    -0.353 N 
HETATM   14  H6  UNL     1      23.661   1.782  54.418  1.00  0.00     0.166 HD
BRANCH  13  15
HETATM   15  C9  UNL     1      22.151   0.863  53.223  1.00  0.00     0.045 C 
HETATM   16  C10 UNL     1      21.661  -0.009  54.089  1.00  0.00     0.004 C 
HETATM   17  C11 UNL     1      20.574  -0.618  53.655  1.00  0.00     0.033 C 
HETATM   18  C12 UNL     1      20.177   0.168  52.486  1.00  0.00     0.014 C 
HETATM   19 BR1  UNL     1      18.616   0.083  51.390  1.00  0.00    -0.051 Br
HETATM   20  C13 UNL     1      21.121   1.075  52.205  1.00  0.00     0.049 C 
ENDBRANCH  13  15
ENDBRANCH   9  13
BRANCH  12  21
HETATM   21  O2  UNL     1      23.422   5.073  50.043  1.00  0.00    -0.353 OA
HETATM   22  C17 UNL     1      22.340   5.537  50.784  1.00  0.00     0.210 C 
ENDBRANCH  12  21
BRANCH   1  23
HETATM   23  O1  UNL     1      25.894   5.076  48.942  1.00  0.00    -0.353 OA
HETATM   24  C1  UNL     1      27.212   5.427  48.567  1.00  0.00     0.210 C 
ENDBRANCH   1  23
TORSDOF 4
ENDMDL
