MODEL 1
REMARK VINA RESULT:      -7.2      0.000      0.000
REMARK  10 active torsions:
REMARK  status: ('A' for Active; 'I' for Inactive)
REMARK    1  A    between atoms: O1_2  and  C2_3 
REMARK    2  A    between atoms: C2_3  and  C3_4 
REMARK    3  A    between atoms: C4_5  and  C5_6 
REMARK       I    between atoms: C5_6  and  N1_8 
REMARK    4  A    between atoms: N1_8  and  C6_9 
REMARK    5  A    between atoms: C11_15  and  N3_16 
REMARK    6  A    between atoms: C12_17  and  N4_18 
REMARK    7  A    between atoms: N4_18  and  C13_19 
REMARK    8  A    between atoms: C13_19  and  C14_20 
REMARK    9  A    between atoms: C14_20  and  C15_21 
REMARK   10  A    between atoms: C16_22  and  C17_23 
ROOT
HETATM    1  C6  UNL     1      22.413  -0.234  52.939  1.00  0.00     0.036 A 
HETATM    2  C7  UNL     1      21.529  -0.051  53.993  1.00  0.00     0.032 A 
HETATM    3  C8  UNL     1      20.296   0.531  53.756  1.00  0.00     0.035 A 
HETATM    4  C9  UNL     1      20.026   0.898  52.454  1.00  0.00     0.069 A 
HETATM    5  N2  UNL     1      18.855   1.471  52.154  1.00  0.00    -0.258 NA
HETATM    6  C10 UNL     1      18.539   1.857  50.892  1.00  0.00     0.148 A 
HETATM    7  C11 UNL     1      19.415   1.679  49.828  1.00  0.00     0.071 A 
HETATM    8  C12 UNL     1      20.631   1.091  50.099  1.00  0.00     0.072 A 
HETATM    9  C20 UNL     1      20.895   0.718  51.413  1.00  0.00     0.024 A 
HETATM   10  C21 UNL     1      22.130   0.134  51.661  1.00  0.00     0.045 A 
ENDROOT
BRANCH   1  11
HETATM   11  N1  UNL     1      23.644  -0.839  53.395  1.00  0.00    -0.316 N 
HETATM   12  C5  UNL     1      24.516   0.270  53.501  1.00  0.00     0.301 C 
HETATM   13  O2  UNL     1      24.038   1.413  53.194  1.00  0.00    -0.258 OA
HETATM   14  H6  UNL     1      24.092  -1.751  53.660  1.00  0.00     0.170 HD
BRANCH  12  15
HETATM   15  C4  UNL     1      25.897   0.258  53.921  1.00  0.00    -0.003 C 
HETATM   16  C3  UNL     1      27.039   0.234  54.284  1.00  0.00    -0.070 C 
BRANCH  16  17
HETATM   17  C2  UNL     1      28.457   0.184  54.720  1.00  0.00     0.261 C 
BRANCH  17  18
HETATM   18  O1  UNL     1      28.903   1.501  54.987  1.00  0.00    -0.384 OA
HETATM   19  C1  UNL     1      28.859   2.239  53.822  1.00  0.00     0.202 C 
ENDBRANCH  17  18
ENDBRANCH  16  17
ENDBRANCH  12  15
ENDBRANCH   1  11
BRANCH   8  20
HETATM   20  N4  UNL     1      21.598   0.862  49.085  1.00  0.00    -0.363 N 
HETATM   21  H12 UNL     1      21.859   0.146  48.373  1.00  0.00     0.165 HD
BRANCH  20  22
HETATM   22  C13 UNL     1      22.451   1.994  49.067  1.00  0.00     0.088 C 
BRANCH  22  23
HETATM   23  C14 UNL     1      23.040   3.170  49.034  1.00  0.00     0.017 C 
BRANCH  23  24
HETATM   24  C15 UNL     1      23.763   4.404  48.980  1.00  0.00    -0.002 C 
HETATM   25  C16 UNL     1      25.010   4.149  49.306  1.00  0.00    -0.023 C 
BRANCH  25  26
HETATM   26  C17 UNL     1      26.080   5.148  49.372  1.00  0.00    -0.000 C 
HETATM   27  C18 UNL     1      25.720   6.432  48.638  1.00  0.00     0.013 C 
HETATM   28  C19 UNL     1      27.388   4.642  48.788  1.00  0.00     0.013 C 
ENDBRANCH  25  26
ENDBRANCH  23  24
ENDBRANCH  22  23
ENDBRANCH  20  22
ENDBRANCH   8  20
BRANCH   7  29
HETATM   29  N3  UNL     1      19.103   2.079  48.489  1.00  0.00    -0.396 N 
HETATM   30  H10 UNL     1      19.443   1.689  47.568  1.00  0.00     0.156 HD
HETATM   31  H11 UNL     1      18.457   2.860  48.237  1.00  0.00     0.156 HD
ENDBRANCH   7  29
TORSDOF 10
ENDMDL
MODEL 2
REMARK VINA RESULT:      -7.2      2.675      6.295
REMARK  10 active torsions:
REMARK  status: ('A' for Active; 'I' for Inactive)
REMARK    1  A    between atoms: O1_2  and  C2_3 
REMARK    2  A    between atoms: C2_3  and  C3_4 
REMARK    3  A    between atoms: C4_5  and  C5_6 
REMARK       I    between atoms: C5_6  and  N1_8 
REMARK    4  A    between atoms: N1_8  and  C6_9 
REMARK    5  A    between atoms: C11_15  and  N3_16 
REMARK    6  A    between atoms: C12_17  and  N4_18 
REMARK    7  A    between atoms: N4_18  and  C13_19 
REMARK    8  A    between atoms: C13_19  and  C14_20 
REMARK    9  A    between atoms: C14_20  and  C15_21 
REMARK   10  A    between atoms: C16_22  and  C17_23 
ROOT
HETATM    1  C6  UNL     1      24.100   3.995  49.489  1.00  0.00     0.036 A 
HETATM    2  C7  UNL     1      23.326   3.653  48.388  1.00  0.00     0.032 A 
HETATM    3  C8  UNL     1      22.406   2.624  48.494  1.00  0.00     0.035 A 
HETATM    4  C9  UNL     1      22.323   1.994  49.719  1.00  0.00     0.069 A 
HETATM    5  N2  UNL     1      21.459   0.986  49.890  1.00  0.00    -0.258 NA
HETATM    6  C10 UNL     1      21.339   0.328  51.070  1.00  0.00     0.148 A 
HETATM    7  C11 UNL     1      22.108   0.661  52.179  1.00  0.00     0.071 A 
HETATM    8  C12 UNL     1      23.008   1.694  52.040  1.00  0.00     0.072 A 
HETATM    9  C20 UNL     1      23.084   2.329  50.805  1.00  0.00     0.024 A 
HETATM   10  C21 UNL     1      24.004   3.363  50.689  1.00  0.00     0.045 A 
ENDROOT
BRANCH   1  11
HETATM   11  N1  UNL     1      25.004   5.077  49.169  1.00  0.00    -0.316 N 
HETATM   12  C5  UNL     1      26.249   4.416  49.043  1.00  0.00     0.301 C 
HETATM   13  O2  UNL     1      26.255   3.153  49.228  1.00  0.00    -0.258 OA
HETATM   14  H6  UNL     1      25.061   6.112  49.007  1.00  0.00     0.170 HD
BRANCH  12  15
HETATM   15  C4  UNL     1      27.525   5.011  48.725  1.00  0.00    -0.003 C 
HETATM   16  C3  UNL     1      28.584   5.513  48.480  1.00  0.00    -0.070 C 
BRANCH  16  17
HETATM   17  C2  UNL     1      29.908   6.119  48.188  1.00  0.00     0.261 C 
BRANCH  17  18
HETATM   18  O1  UNL     1      30.920   5.313  48.764  1.00  0.00    -0.384 OA
HETATM   19  C1  UNL     1      31.739   4.830  47.765  1.00  0.00     0.202 C 
ENDBRANCH  17  18
ENDBRANCH  16  17
ENDBRANCH  12  15
ENDBRANCH   1  11
BRANCH   8  20
HETATM   20  N4  UNL     1      23.842   2.114  53.110  1.00  0.00    -0.363 N 
HETATM   21  H12 UNL     1      23.881   2.841  53.857  1.00  0.00     0.165 HD
BRANCH  20  22
HETATM   22  C13 UNL     1      24.952   1.234  53.136  1.00  0.00     0.088 C 
BRANCH  22  23
HETATM   23  C14 UNL     1      25.830   0.255  53.075  1.00  0.00     0.017 C 
BRANCH  23  24
HETATM   24  C15 UNL     1      26.797  -0.798  53.103  1.00  0.00    -0.002 C 
HETATM   25  C16 UNL     1      27.893  -0.319  53.647  1.00  0.00    -0.023 C 
BRANCH  25  26
HETATM   26  C17 UNL     1      29.125  -1.082  53.861  1.00  0.00    -0.000 C 
HETATM   27  C18 UNL     1      30.363  -0.326  53.402  1.00  0.00     0.013 C 
HETATM   28  C19 UNL     1      29.116  -2.420  53.140  1.00  0.00     0.013 C 
ENDBRANCH  25  26
ENDBRANCH  23  24
ENDBRANCH  22  23
ENDBRANCH  20  22
ENDBRANCH   8  20
BRANCH   7  29
HETATM   29  N3  UNL     1      21.999  -0.021  53.433  1.00  0.00    -0.396 N 
HETATM   30  H10 UNL     1      22.569   0.087  54.316  1.00  0.00     0.156 HD
HETATM   31  H11 UNL     1      21.294  -0.761  53.648  1.00  0.00     0.156 HD
ENDBRANCH   7  29
TORSDOF 10
ENDMDL
MODEL 3
REMARK VINA RESULT:      -7.1      3.148      6.288
REMARK  10 active torsions:
REMARK  status: ('A' for Active; 'I' for Inactive)
REMARK    1  A    between atoms: O1_2  and  C2_3 
REMARK    2  A    between atoms: C2_3  and  C3_4 
REMARK    3  A    between atoms: C4_5  and  C5_6 
REMARK       I    between atoms: C5_6  and  N1_8 
REMARK    4  A    between atoms: N1_8  and  C6_9 
REMARK    5  A    between atoms: C11_15  and  N3_16 
REMARK    6  A    between atoms: C12_17  and  N4_18 
REMARK    7  A    between atoms: N4_18  and  C13_19 
REMARK    8  A    between atoms: C13_19  and  C14_20 
REMARK    9  A    between atoms: C14_20  and  C15_21 
REMARK   10  A    between atoms: C16_22  and  C17_23 
ROOT
HETATM    1  C6  UNL     1      22.346   3.783  50.941  1.00  0.00     0.036 A 
HETATM    2  C7  UNL     1      21.628   4.839  51.485  1.00  0.00     0.032 A 
HETATM    3  C8  UNL     1      22.164   6.115  51.457  1.00  0.00     0.035 A 
HETATM    4  C9  UNL     1      23.409   6.249  50.876  1.00  0.00     0.069 A 
HETATM    5  N2  UNL     1      23.989   7.454  50.821  1.00  0.00    -0.258 NA
HETATM    6  C10 UNL     1      25.214   7.643  50.267  1.00  0.00     0.148 A 
HETATM    7  C11 UNL     1      25.942   6.594  49.720  1.00  0.00     0.071 A 
HETATM    8  C12 UNL     1      25.375   5.339  49.759  1.00  0.00     0.072 A 
HETATM    9  C20 UNL     1      24.119   5.210  50.340  1.00  0.00     0.024 A 
HETATM   10  C21 UNL     1      23.572   3.934  50.373  1.00  0.00     0.045 A 
ENDROOT
BRANCH   1  11
HETATM   11  N1  UNL     1      21.624   2.539  51.084  1.00  0.00    -0.316 N 
HETATM   12  C5  UNL     1      22.265   1.930  52.188  1.00  0.00     0.301 C 
HETATM   13  O2  UNL     1      23.228   2.574  52.725  1.00  0.00    -0.258 OA
HETATM   14  H6  UNL     1      20.842   1.964  50.684  1.00  0.00     0.170 HD
BRANCH  12  15
HETATM   15  C4  UNL     1      21.953   0.654  52.784  1.00  0.00    -0.003 C 
HETATM   16  C3  UNL     1      21.713  -0.412  53.276  1.00  0.00    -0.070 C 
BRANCH  16  17
HETATM   17  C2  UNL     1      21.425  -1.725  53.906  1.00  0.00     0.261 C 
BRANCH  17  18
HETATM   18  O1  UNL     1      21.691  -1.638  55.294  1.00  0.00    -0.384 OA
HETATM   19  C1  UNL     1      23.043  -1.445  55.486  1.00  0.00     0.202 C 
ENDBRANCH  17  18
ENDBRANCH  16  17
ENDBRANCH  12  15
ENDBRANCH   1  11
BRANCH   8  20
HETATM   20  N4  UNL     1      26.035   4.199  49.227  1.00  0.00    -0.363 N 
HETATM   21  H12 UNL     1      26.316   3.791  48.310  1.00  0.00     0.165 HD
BRANCH  20  22
HETATM   22  C13 UNL     1      26.422   3.397  50.330  1.00  0.00     0.088 C 
BRANCH  22  23
HETATM   23  C14 UNL     1      26.791   2.476  51.194  1.00  0.00     0.017 C 
BRANCH  23  24
HETATM   24  C15 UNL     1      27.130   1.415  52.092  1.00  0.00    -0.002 C 
HETATM   25  C16 UNL     1      26.045   0.701  52.293  1.00  0.00    -0.023 C 
BRANCH  25  26
HETATM   26  C17 UNL     1      25.968  -0.481  53.154  1.00  0.00    -0.000 C 
HETATM   27  C18 UNL     1      26.284  -0.162  54.608  1.00  0.00     0.013 C 
HETATM   28  C19 UNL     1      26.914  -1.586  52.715  1.00  0.00     0.013 C 
ENDBRANCH  25  26
ENDBRANCH  23  24
ENDBRANCH  22  23
ENDBRANCH  20  22
ENDBRANCH   8  20
BRANCH   7  29
HETATM   29  N3  UNL     1      27.236   6.770  49.132  1.00  0.00    -0.396 N 
HETATM   30  H10 UNL     1      27.996   7.468  49.359  1.00  0.00     0.156 HD
HETATM   31  H11 UNL     1      27.617   6.191  48.350  1.00  0.00     0.156 HD
ENDBRANCH   7  29
TORSDOF 10
ENDMDL
MODEL 4
REMARK VINA RESULT:      -7.1      2.127      5.147
REMARK  10 active torsions:
REMARK  status: ('A' for Active; 'I' for Inactive)
REMARK    1  A    between atoms: O1_2  and  C2_3 
REMARK    2  A    between atoms: C2_3  and  C3_4 
REMARK    3  A    between atoms: C4_5  and  C5_6 
REMARK       I    between atoms: C5_6  and  N1_8 
REMARK    4  A    between atoms: N1_8  and  C6_9 
REMARK    5  A    between atoms: C11_15  and  N3_16 
REMARK    6  A    between atoms: C12_17  and  N4_18 
REMARK    7  A    between atoms: N4_18  and  C13_19 
REMARK    8  A    between atoms: C13_19  and  C14_20 
REMARK    9  A    between atoms: C14_20  and  C15_21 
REMARK   10  A    between atoms: C16_22  and  C17_23 
ROOT
HETATM    1  C6  UNL     1      25.144   3.533  49.527  1.00  0.00     0.036 A 
HETATM    2  C7  UNL     1      25.186   4.920  49.570  1.00  0.00     0.032 A 
HETATM    3  C8  UNL     1      24.093   5.649  49.137  1.00  0.00     0.035 A 
HETATM    4  C9  UNL     1      23.010   4.926  48.679  1.00  0.00     0.069 A 
HETATM    5  N2  UNL     1      21.922   5.568  48.239  1.00  0.00    -0.258 NA
HETATM    6  C10 UNL     1      20.831   4.908  47.772  1.00  0.00     0.148 A 
HETATM    7  C11 UNL     1      20.777   3.521  47.725  1.00  0.00     0.071 A 
HETATM    8  C12 UNL     1      21.880   2.827  48.170  1.00  0.00     0.072 A 
HETATM    9  C20 UNL     1      22.966   3.560  48.636  1.00  0.00     0.024 A 
HETATM   10  C21 UNL     1      24.068   2.837  49.073  1.00  0.00     0.045 A 
ENDROOT
BRANCH   1  11
HETATM   11  N1  UNL     1      26.383   2.962  50.006  1.00  0.00    -0.316 N 
HETATM   12  C5  UNL     1      26.051   2.553  51.319  1.00  0.00     0.301 C 
HETATM   13  O2  UNL     1      24.856   2.773  51.709  1.00  0.00    -0.258 OA
HETATM   14  H6  UNL     1      27.377   2.757  49.742  1.00  0.00     0.170 HD
BRANCH  12  15
HETATM   15  C4  UNL     1      26.916   1.908  52.278  1.00  0.00    -0.003 C 
HETATM   16  C3  UNL     1      27.650   1.377  53.062  1.00  0.00    -0.070 C 
BRANCH  16  17
HETATM   17  C2  UNL     1      28.567   0.740  54.041  1.00  0.00     0.261 C 
BRANCH  17  18
HETATM   18  O1  UNL     1      28.255  -0.638  54.135  1.00  0.00    -0.384 OA
HETATM   19  C1  UNL     1      29.143  -1.358  53.364  1.00  0.00     0.202 C 
ENDBRANCH  17  18
ENDBRANCH  16  17
ENDBRANCH  12  15
ENDBRANCH   1  11
BRANCH   8  20
HETATM   20  N4  UNL     1      21.928   1.407  48.164  1.00  0.00    -0.363 N 
HETATM   21  H12 UNL     1      22.170   0.617  47.529  1.00  0.00     0.165 HD
BRANCH  20  22
HETATM   22  C13 UNL     1      21.513   0.976  49.449  1.00  0.00     0.088 C 
BRANCH  22  23
HETATM   23  C14 UNL     1      21.360   0.586  50.696  1.00  0.00     0.017 C 
BRANCH  23  24
HETATM   24  C15 UNL     1      21.286   0.141  52.054  1.00  0.00    -0.002 C 
HETATM   25  C16 UNL     1      22.505   0.156  52.544  1.00  0.00    -0.023 C 
BRANCH  25  26
HETATM   26  C17 UNL     1      22.863  -0.231  53.912  1.00  0.00    -0.000 C 
HETATM   27  C18 UNL     1      24.335  -0.589  54.047  1.00  0.00     0.013 C 
HETATM   28  C19 UNL     1      22.058  -1.417  54.412  1.00  0.00     0.013 C 
ENDBRANCH  25  26
ENDBRANCH  23  24
ENDBRANCH  22  23
ENDBRANCH  20  22
ENDBRANCH   8  20
BRANCH   7  29
HETATM   29  N3  UNL     1      19.638   2.804  47.236  1.00  0.00    -0.396 N 
HETATM   30  H10 UNL     1      19.350   2.582  46.244  1.00  0.00     0.156 HD
HETATM   31  H11 UNL     1      18.897   2.382  47.840  1.00  0.00     0.156 HD
ENDBRANCH   7  29
TORSDOF 10
ENDMDL
MODEL 5
REMARK VINA RESULT:      -6.8      2.408      2.859
REMARK  10 active torsions:
REMARK  status: ('A' for Active; 'I' for Inactive)
REMARK    1  A    between atoms: O1_2  and  C2_3 
REMARK    2  A    between atoms: C2_3  and  C3_4 
REMARK    3  A    between atoms: C4_5  and  C5_6 
REMARK       I    between atoms: C5_6  and  N1_8 
REMARK    4  A    between atoms: N1_8  and  C6_9 
REMARK    5  A    between atoms: C11_15  and  N3_16 
REMARK    6  A    between atoms: C12_17  and  N4_18 
REMARK    7  A    between atoms: N4_18  and  C13_19 
REMARK    8  A    between atoms: C13_19  and  C14_20 
REMARK    9  A    between atoms: C14_20  and  C15_21 
REMARK   10  A    between atoms: C16_22  and  C17_23 
ROOT
HETATM    1  C6  UNL     1      23.290   0.614  53.143  1.00  0.00     0.036 A 
HETATM    2  C7  UNL     1      22.114  -0.084  52.901  1.00  0.00     0.032 A 
HETATM    3  C8  UNL     1      21.034   0.573  52.338  1.00  0.00     0.035 A 
HETATM    4  C9  UNL     1      21.207   1.912  52.051  1.00  0.00     0.069 A 
HETATM    5  N2  UNL     1      20.201   2.611  51.512  1.00  0.00    -0.258 NA
HETATM    6  C10 UNL     1      20.313   3.931  51.215  1.00  0.00     0.148 A 
HETATM    7  C11 UNL     1      21.484   4.640  51.452  1.00  0.00     0.071 A 
HETATM    8  C12 UNL     1      22.541   3.952  52.007  1.00  0.00     0.072 A 
HETATM    9  C20 UNL     1      22.364   2.602  52.289  1.00  0.00     0.024 A 
HETATM   10  C21 UNL     1      23.442   1.934  52.854  1.00  0.00     0.045 A 
ENDROOT
BRANCH   1  11
HETATM   11  N1  UNL     1      24.286  -0.243  53.745  1.00  0.00    -0.316 N 
HETATM   12  C5  UNL     1      25.403  -0.070  52.894  1.00  0.00     0.301 C 
HETATM   13  O2  UNL     1      25.258   0.724  51.904  1.00  0.00    -0.258 OA
HETATM   14  H6  UNL     1      24.464  -0.905  54.539  1.00  0.00     0.170 HD
BRANCH  12  15
HETATM   15  C4  UNL     1      26.699  -0.691  53.017  1.00  0.00    -0.003 C 
HETATM   16  C3  UNL     1      27.785  -1.189  53.118  1.00  0.00    -0.070 C 
BRANCH  16  17
HETATM   17  C2  UNL     1      29.130  -1.799  53.266  1.00  0.00     0.261 C 
BRANCH  17  18
HETATM   18  O1  UNL     1      30.109  -0.780  53.185  1.00  0.00    -0.384 OA
HETATM   19  C1  UNL     1      29.691   0.310  53.921  1.00  0.00     0.202 C 
ENDBRANCH  17  18
ENDBRANCH  16  17
ENDBRANCH  12  15
ENDBRANCH   1  11
BRANCH   8  20
HETATM   20  N4  UNL     1      23.783   4.583  52.289  1.00  0.00    -0.363 N 
HETATM   21  H12 UNL     1      24.260   5.101  53.057  1.00  0.00     0.165 HD
BRANCH  20  22
HETATM   22  C13 UNL     1      24.595   4.425  51.139  1.00  0.00     0.088 C 
BRANCH  22  23
HETATM   23  C14 UNL     1      25.508   4.411  50.191  1.00  0.00     0.017 C 
BRANCH  23  24
HETATM   24  C15 UNL     1      26.527   4.482  49.189  1.00  0.00    -0.002 C 
HETATM   25  C16 UNL     1      26.813   5.751  49.002  1.00  0.00    -0.023 C 
BRANCH  25  26
HETATM   26  C17 UNL     1      27.810   6.253  48.054  1.00  0.00    -0.000 C 
HETATM   27  C18 UNL     1      29.151   5.548  48.195  1.00  0.00     0.013 C 
HETATM   28  C19 UNL     1      28.062   7.744  48.207  1.00  0.00     0.013 C 
ENDBRANCH  25  26
ENDBRANCH  23  24
ENDBRANCH  22  23
ENDBRANCH  20  22
ENDBRANCH   8  20
BRANCH   7  29
HETATM   29  N3  UNL     1      21.625   6.032  51.148  1.00  0.00    -0.396 N 
HETATM   30  H10 UNL     1      20.887   6.780  51.038  1.00  0.00     0.156 HD
HETATM   31  H11 UNL     1      22.536   6.516  50.986  1.00  0.00     0.156 HD
ENDBRANCH   7  29
TORSDOF 10
ENDMDL
MODEL 6
REMARK VINA RESULT:      -6.8      2.691      5.345
REMARK  10 active torsions:
REMARK  status: ('A' for Active; 'I' for Inactive)
REMARK    1  A    between atoms: O1_2  and  C2_3 
REMARK    2  A    between atoms: C2_3  and  C3_4 
REMARK    3  A    between atoms: C4_5  and  C5_6 
REMARK       I    between atoms: C5_6  and  N1_8 
REMARK    4  A    between atoms: N1_8  and  C6_9 
REMARK    5  A    between atoms: C11_15  and  N3_16 
REMARK    6  A    between atoms: C12_17  and  N4_18 
REMARK    7  A    between atoms: N4_18  and  C13_19 
REMARK    8  A    between atoms: C13_19  and  C14_20 
REMARK    9  A    between atoms: C14_20  and  C15_21 
REMARK   10  A    between atoms: C16_22  and  C17_23 
ROOT
HETATM    1  C6  UNL     1      25.975   0.590  52.195  1.00  0.00     0.036 A 
HETATM    2  C7  UNL     1      26.840   0.289  53.238  1.00  0.00     0.032 A 
HETATM    3  C8  UNL     1      26.345  -0.315  54.381  1.00  0.00     0.035 A 
HETATM    4  C9  UNL     1      24.991  -0.579  54.403  1.00  0.00     0.069 A 
HETATM    5  N2  UNL     1      24.445  -1.155  55.481  1.00  0.00    -0.258 NA
HETATM    6  C10 UNL     1      23.118  -1.433  55.559  1.00  0.00     0.148 A 
HETATM    7  C11 UNL     1      22.243  -1.136  54.521  1.00  0.00     0.071 A 
HETATM    8  C12 UNL     1      22.771  -0.542  53.396  1.00  0.00     0.072 A 
HETATM    9  C20 UNL     1      24.137  -0.283  53.377  1.00  0.00     0.024 A 
HETATM   10  C21 UNL     1      24.643   0.322  52.234  1.00  0.00     0.045 A 
ENDROOT
BRANCH   1  11
HETATM   11  N1  UNL     1      26.681   1.227  51.105  1.00  0.00    -0.316 N 
HETATM   12  C5  UNL     1      26.116   2.524  51.083  1.00  0.00     0.301 C 
HETATM   13  O2  UNL     1      25.211   2.776  51.948  1.00  0.00    -0.258 OA
HETATM   14  H6  UNL     1      27.417   1.079  50.373  1.00  0.00     0.170 HD
BRANCH  12  15
HETATM   15  C4  UNL     1      26.448   3.606  50.187  1.00  0.00    -0.003 C 
HETATM   16  C3  UNL     1      26.733   4.513  49.458  1.00  0.00    -0.070 C 
BRANCH  16  17
HETATM   17  C2  UNL     1      27.109   5.628  48.553  1.00  0.00     0.261 C 
BRANCH  17  18
HETATM   18  O1  UNL     1      28.521   5.705  48.479  1.00  0.00    -0.384 OA
HETATM   19  C1  UNL     1      28.875   6.724  47.619  1.00  0.00     0.202 C 
ENDBRANCH  17  18
ENDBRANCH  16  17
ENDBRANCH  12  15
ENDBRANCH   1  11
BRANCH   8  20
HETATM   20  N4  UNL     1      21.964  -0.198  52.279  1.00  0.00    -0.363 N 
HETATM   21  H12 UNL     1      21.569  -0.625  51.414  1.00  0.00     0.165 HD
BRANCH  20  22
HETATM   22  C13 UNL     1      21.598   1.162  52.440  1.00  0.00     0.088 C 
BRANCH  22  23
HETATM   23  C14 UNL     1      21.307   2.443  52.356  1.00  0.00     0.017 C 
BRANCH  23  24
HETATM   24  C15 UNL     1      21.023   3.833  52.175  1.00  0.00    -0.002 C 
HETATM   25  C16 UNL     1      22.124   4.413  51.753  1.00  0.00    -0.023 C 
BRANCH  25  26
HETATM   26  C17 UNL     1      22.254   5.840  51.447  1.00  0.00    -0.000 C 
HETATM   27  C18 UNL     1      21.307   6.285  50.343  1.00  0.00     0.013 C 
HETATM   28  C19 UNL     1      23.662   6.219  51.020  1.00  0.00     0.013 C 
ENDBRANCH  25  26
ENDBRANCH  23  24
ENDBRANCH  22  23
ENDBRANCH  20  22
ENDBRANCH   8  20
BRANCH   7  29
HETATM   29  N3  UNL     1      20.841  -1.419  54.583  1.00  0.00    -0.396 N 
HETATM   30  H10 UNL     1      20.132  -1.181  55.329  1.00  0.00     0.156 HD
HETATM   31  H11 UNL     1      20.305  -1.931  53.847  1.00  0.00     0.156 HD
ENDBRANCH   7  29
TORSDOF 10
ENDMDL
MODEL 7
REMARK VINA RESULT:      -6.8      1.854      2.422
REMARK  10 active torsions:
REMARK  status: ('A' for Active; 'I' for Inactive)
REMARK    1  A    between atoms: O1_2  and  C2_3 
REMARK    2  A    between atoms: C2_3  and  C3_4 
REMARK    3  A    between atoms: C4_5  and  C5_6 
REMARK       I    between atoms: C5_6  and  N1_8 
REMARK    4  A    between atoms: N1_8  and  C6_9 
REMARK    5  A    between atoms: C11_15  and  N3_16 
REMARK    6  A    between atoms: C12_17  and  N4_18 
REMARK    7  A    between atoms: N4_18  and  C13_19 
REMARK    8  A    between atoms: C13_19  and  C14_20 
REMARK    9  A    between atoms: C14_20  and  C15_21 
REMARK   10  A    between atoms: C16_22  and  C17_23 
ROOT
HETATM    1  C6  UNL     1      20.851   0.922  52.961  1.00  0.00     0.036 A 
HETATM    2  C7  UNL     1      19.922  -0.099  52.816  1.00  0.00     0.032 A 
HETATM    3  C8  UNL     1      18.766   0.127  52.089  1.00  0.00     0.035 A 
HETATM    4  C9  UNL     1      18.614   1.387  51.547  1.00  0.00     0.069 A 
HETATM    5  N2  UNL     1      17.517   1.677  50.838  1.00  0.00    -0.258 NA
HETATM    6  C10 UNL     1      17.313   2.901  50.287  1.00  0.00     0.148 A 
HETATM    7  C11 UNL     1      18.235   3.931  50.425  1.00  0.00     0.071 A 
HETATM    8  C12 UNL     1      19.377   3.669  51.149  1.00  0.00     0.072 A 
HETATM    9  C20 UNL     1      19.528   2.396  51.688  1.00  0.00     0.024 A 
HETATM   10  C21 UNL     1      20.684   2.159  52.419  1.00  0.00     0.045 A 
ENDROOT
BRANCH   1  11
HETATM   11  N1  UNL     1      21.974   0.491  53.763  1.00  0.00    -0.316 N 
HETATM   12  C5  UNL     1      23.028   0.438  52.820  1.00  0.00     0.301 C 
HETATM   13  O2  UNL     1      22.744   0.753  51.616  1.00  0.00    -0.258 OA
HETATM   14  H6  UNL     1      22.266   0.222  54.733  1.00  0.00     0.170 HD
BRANCH  12  15
HETATM   15  C4  UNL     1      24.400   0.066  53.066  1.00  0.00    -0.003 C 
HETATM   16  C3  UNL     1      25.540  -0.252  53.252  1.00  0.00    -0.070 C 
BRANCH  16  17
HETATM   17  C2  UNL     1      26.960  -0.629  53.468  1.00  0.00     0.261 C 
BRANCH  17  18
HETATM   18  O1  UNL     1      27.310  -0.355  54.813  1.00  0.00    -0.384 OA
HETATM   19  C1  UNL     1      28.577   0.190  54.849  1.00  0.00     0.202 C 
ENDBRANCH  17  18
ENDBRANCH  16  17
ENDBRANCH  12  15
ENDBRANCH   1  11
BRANCH   8  20
HETATM   20  N4  UNL     1      20.383   4.652  51.349  1.00  0.00    -0.363 N 
HETATM   21  H12 UNL     1      20.562   5.511  51.912  1.00  0.00     0.165 HD
BRANCH  20  22
HETATM   22  C13 UNL     1      21.466   4.311  50.501  1.00  0.00     0.088 C 
BRANCH  22  23
HETATM   23  C14 UNL     1      22.598   4.142  49.853  1.00  0.00     0.017 C 
BRANCH  23  24
HETATM   24  C15 UNL     1      23.874   3.960  49.232  1.00  0.00    -0.002 C 
HETATM   25  C16 UNL     1      24.657   3.359  50.099  1.00  0.00    -0.023 C 
BRANCH  25  26
HETATM   26  C17 UNL     1      26.053   2.990  49.851  1.00  0.00    -0.000 C 
HETATM   27  C18 UNL     1      26.767   2.537  51.117  1.00  0.00     0.013 C 
HETATM   28  C19 UNL     1      26.862   4.130  49.257  1.00  0.00     0.013 C 
ENDBRANCH  25  26
ENDBRANCH  23  24
ENDBRANCH  22  23
ENDBRANCH  20  22
ENDBRANCH   8  20
BRANCH   7  29
HETATM   29  N3  UNL     1      18.040   5.230  49.854  1.00  0.00    -0.396 N 
HETATM   30  H10 UNL     1      17.519   5.516  48.980  1.00  0.00     0.156 HD
HETATM   31  H11 UNL     1      18.414   6.118  50.256  1.00  0.00     0.156 HD
ENDBRANCH   7  29
TORSDOF 10
ENDMDL
MODEL 8
REMARK VINA RESULT:      -6.7      2.341      4.711
REMARK  10 active torsions:
REMARK  status: ('A' for Active; 'I' for Inactive)
REMARK    1  A    between atoms: O1_2  and  C2_3 
REMARK    2  A    between atoms: C2_3  and  C3_4 
REMARK    3  A    between atoms: C4_5  and  C5_6 
REMARK       I    between atoms: C5_6  and  N1_8 
REMARK    4  A    between atoms: N1_8  and  C6_9 
REMARK    5  A    between atoms: C11_15  and  N3_16 
REMARK    6  A    between atoms: C12_17  and  N4_18 
REMARK    7  A    between atoms: N4_18  and  C13_19 
REMARK    8  A    between atoms: C13_19  and  C14_20 
REMARK    9  A    between atoms: C14_20  and  C15_21 
REMARK   10  A    between atoms: C16_22  and  C17_23 
ROOT
HETATM    1  C6  UNL     1      24.460   1.678  53.086  1.00  0.00     0.036 A 
HETATM    2  C7  UNL     1      25.222   0.647  53.617  1.00  0.00     0.032 A 
HETATM    3  C8  UNL     1      24.597  -0.503  54.068  1.00  0.00     0.035 A 
HETATM    4  C9  UNL     1      23.222  -0.542  53.955  1.00  0.00     0.069 A 
HETATM    5  N2  UNL     1      22.552  -1.621  54.378  1.00  0.00    -0.258 NA
HETATM    6  C10 UNL     1      21.200  -1.711  54.297  1.00  0.00     0.148 A 
HETATM    7  C11 UNL     1      20.426  -0.686  53.767  1.00  0.00     0.071 A 
HETATM    8  C12 UNL     1      21.082   0.440  53.321  1.00  0.00     0.072 A 
HETATM    9  C20 UNL     1      22.468   0.473  53.432  1.00  0.00     0.024 A 
HETATM   10  C21 UNL     1      23.105   1.621  52.982  1.00  0.00     0.045 A 
ENDROOT
BRANCH   1  11
HETATM   11  N1  UNL     1      25.296   2.789  52.689  1.00  0.00    -0.316 N 
HETATM   12  C5  UNL     1      25.246   2.728  51.277  1.00  0.00     0.301 C 
HETATM   13  O2  UNL     1      24.543   1.795  50.762  1.00  0.00    -0.258 OA
HETATM   14  H6  UNL     1      25.888   3.574  53.055  1.00  0.00     0.170 HD
BRANCH  12  15
HETATM   15  C4  UNL     1      25.903   3.609  50.342  1.00  0.00    -0.003 C 
HETATM   16  C3  UNL     1      26.456   4.351  49.580  1.00  0.00    -0.070 C 
BRANCH  16  17
HETATM   17  C2  UNL     1      27.162   5.260  48.642  1.00  0.00     0.261 C 
BRANCH  17  18
HETATM   18  O1  UNL     1      28.505   4.833  48.511  1.00  0.00    -0.384 OA
HETATM   19  C1  UNL     1      29.271   5.883  48.048  1.00  0.00     0.202 C 
ENDBRANCH  17  18
ENDBRANCH  16  17
ENDBRANCH  12  15
ENDBRANCH   1  11
BRANCH   8  20
HETATM   20  N4  UNL     1      20.385   1.545  52.762  1.00  0.00    -0.363 N 
HETATM   21  H12 UNL     1      19.781   2.342  53.057  1.00  0.00     0.165 HD
BRANCH  20  22
HETATM   22  C13 UNL     1      20.621   1.516  51.366  1.00  0.00     0.088 C 
BRANCH  22  23
HETATM   23  C14 UNL     1      20.852   1.726  50.087  1.00  0.00     0.017 C 
BRANCH  23  24
HETATM   24  C15 UNL     1      21.172   1.890  48.702  1.00  0.00    -0.002 C 
HETATM   25  C16 UNL     1      21.653   3.102  48.545  1.00  0.00    -0.023 C 
BRANCH  25  26
HETATM   26  C17 UNL     1      22.102   3.667  47.270  1.00  0.00    -0.000 C 
HETATM   27  C18 UNL     1      22.680   5.065  47.426  1.00  0.00     0.013 C 
HETATM   28  C19 UNL     1      20.987   3.747  46.242  1.00  0.00     0.013 C 
ENDBRANCH  25  26
ENDBRANCH  23  24
ENDBRANCH  22  23
ENDBRANCH  20  22
ENDBRANCH   8  20
BRANCH   7  29
HETATM   29  N3  UNL     1      18.999  -0.759  53.672  1.00  0.00    -0.396 N 
HETATM   30  H10 UNL     1      18.390  -1.314  53.010  1.00  0.00     0.156 HD
HETATM   31  H11 UNL     1      18.335  -0.238  54.287  1.00  0.00     0.156 HD
ENDBRANCH   7  29
TORSDOF 10
ENDMDL
MODEL 9
REMARK VINA RESULT:      -6.6      4.814      8.471
REMARK  10 active torsions:
REMARK  status: ('A' for Active; 'I' for Inactive)
REMARK    1  A    between atoms: O1_2  and  C2_3 
REMARK    2  A    between atoms: C2_3  and  C3_4 
REMARK    3  A    between atoms: C4_5  and  C5_6 
REMARK       I    between atoms: C5_6  and  N1_8 
REMARK    4  A    between atoms: N1_8  and  C6_9 
REMARK    5  A    between atoms: C11_15  and  N3_16 
REMARK    6  A    between atoms: C12_17  and  N4_18 
REMARK    7  A    between atoms: N4_18  and  C13_19 
REMARK    8  A    between atoms: C13_19  and  C14_20 
REMARK    9  A    between atoms: C14_20  and  C15_21 
REMARK   10  A    between atoms: C16_22  and  C17_23 
ROOT
HETATM    1  C6  UNL     1      28.443   6.756  48.060  1.00  0.00     0.036 A 
HETATM    2  C7  UNL     1      28.390   8.066  48.517  1.00  0.00     0.032 A 
HETATM    3  C8  UNL     1      27.365   8.453  49.363  1.00  0.00     0.035 A 
HETATM    4  C9  UNL     1      26.443   7.482  49.700  1.00  0.00     0.069 A 
HETATM    5  N2  UNL     1      25.422   7.789  50.509  1.00  0.00    -0.258 NA
HETATM    6  C10 UNL     1      24.484   6.876  50.868  1.00  0.00     0.148 A 
HETATM    7  C11 UNL     1      24.527   5.562  50.417  1.00  0.00     0.071 A 
HETATM    8  C12 UNL     1      25.565   5.211  49.583  1.00  0.00     0.072 A 
HETATM    9  C20 UNL     1      26.493   6.191  49.251  1.00  0.00     0.024 A 
HETATM   10  C21 UNL     1      27.526   5.813  48.402  1.00  0.00     0.045 A 
ENDROOT
BRANCH   1  11
HETATM   11  N1  UNL     1      29.574   6.561  47.181  1.00  0.00    -0.316 N 
HETATM   12  C5  UNL     1      30.435   5.748  47.955  1.00  0.00     0.301 C 
HETATM   13  O2  UNL     1      30.032   5.427  49.123  1.00  0.00    -0.258 OA
HETATM   14  H6  UNL     1      29.958   6.792  46.232  1.00  0.00     0.170 HD
BRANCH  12  15
HETATM   15  C4  UNL     1      31.728   5.234  47.573  1.00  0.00    -0.003 C 
HETATM   16  C3  UNL     1      32.811   4.822  47.266  1.00  0.00    -0.070 C 
BRANCH  16  17
HETATM   17  C2  UNL     1      34.154   4.302  46.908  1.00  0.00     0.261 C 
BRANCH  17  18
HETATM   18  O1  UNL     1      34.885   4.058  48.095  1.00  0.00    -0.384 OA
HETATM   19  C1  UNL     1      35.144   5.258  48.724  1.00  0.00     0.202 C 
ENDBRANCH  17  18
ENDBRANCH  16  17
ENDBRANCH  12  15
ENDBRANCH   1  11
BRANCH   8  20
HETATM   20  N4  UNL     1      25.701   3.895  49.066  1.00  0.00    -0.363 N 
HETATM   21  H12 UNL     1      25.551   3.362  48.182  1.00  0.00     0.165 HD
BRANCH  20  22
HETATM   22  C13 UNL     1      26.212   3.092  50.116  1.00  0.00     0.088 C 
BRANCH  22  23
HETATM   23  C14 UNL     1      26.707   2.552  51.209  1.00  0.00     0.017 C 
BRANCH  23  24
HETATM   24  C15 UNL     1      27.208   2.038  52.446  1.00  0.00    -0.002 C 
HETATM   25  C16 UNL     1      27.107   0.729  52.405  1.00  0.00    -0.023 C 
BRANCH  25  26
HETATM   26  C17 UNL     1      27.514  -0.177  53.482  1.00  0.00    -0.000 C 
HETATM   27  C18 UNL     1      26.966   0.247  54.836  1.00  0.00     0.013 C 
HETATM   28  C19 UNL     1      29.023  -0.285  53.615  1.00  0.00     0.013 C 
ENDBRANCH  25  26
ENDBRANCH  23  24
ENDBRANCH  22  23
ENDBRANCH  20  22
ENDBRANCH   8  20
BRANCH   7  29
HETATM   29  N3  UNL     1      23.548   4.583  50.782  1.00  0.00    -0.396 N 
HETATM   30  H10 UNL     1      23.008   4.466  51.684  1.00  0.00     0.156 HD
HETATM   31  H11 UNL     1      23.221   3.809  50.162  1.00  0.00     0.156 HD
ENDBRANCH   7  29
TORSDOF 10
ENDMDL
