MODEL 1
REMARK VINA RESULT:      -6.8      0.000      0.000
REMARK  6 active torsions:
REMARK  status: ('A' for Active; 'I' for Inactive)
REMARK    1  A    between atoms: N1_2  and  C2_3 
REMARK    2  A    between atoms: N1_2  and  C14_18 
REMARK    3  A    between atoms: C2_3  and  C3_4 
REMARK    4  A    between atoms: C4_5  and  C5_6 
REMARK       I    between atoms: C5_6  and  N2_8 
REMARK    5  A    between atoms: N2_8  and  C6_9 
REMARK    6  A    between atoms: C14_18  and  N4_19 
ROOT
HETATM    1  N4  UNL     1      27.758   1.318  54.456  1.00  0.00     0.051 NA
HETATM    2  C15 UNL     1      28.913   0.766  54.250  1.00  0.00     0.783 C 
HETATM    3  C16 UNL     1      28.964  -0.574  53.875  1.00  0.00     0.100 C 
HETATM    4  N5  UNL     1      29.005  -1.656  53.552  1.00  0.00    -0.195 NA
ENDROOT
BRANCH   1   5
HETATM    5  C14 UNL     1      26.557   0.496  54.279  1.00  0.00     0.372 C 
BRANCH   5   6
HETATM    6  N1  UNL     1      25.745   1.159  53.324  1.00  0.00    -0.391 N 
HETATM    7  C1  UNL     1      25.308   2.464  53.664  1.00  0.00     0.145 C 
BRANCH   6   8
HETATM    8  C2  UNL     1      26.012   0.896  51.949  1.00  0.00     0.145 C 
BRANCH   8   9
HETATM    9  C3  UNL     1      26.144   2.173  51.219  1.00  0.00    -0.002 C 
HETATM   10  C4  UNL     1      26.391   2.892  50.161  1.00  0.00     0.072 C 
BRANCH  10  11
HETATM   11  C5  UNL     1      26.433   4.281  49.750  1.00  0.00     0.245 C 
HETATM   12  O1  UNL     1      25.458   4.938  50.165  1.00  0.00    -0.268 OA
HETATM   13  N2  UNL     1      27.542   4.635  48.973  1.00  0.00    -0.324 N 
HETATM   14  H8  UNL     1      28.310   4.007  48.678  1.00  0.00     0.169 HD
BRANCH  13  15
HETATM   15  C6  UNL     1      28.063   5.784  48.333  1.00  0.00     0.035 A 
HETATM   16  C7  UNL     1      29.404   5.845  48.011  1.00  0.00     0.030 A 
HETATM   17  C8  UNL     1      30.010   6.926  47.383  1.00  0.00     0.012 A 
HETATM   18  C9  UNL     1      29.165   7.972  47.090  1.00  0.00    -0.022 A 
HETATM   19  C10 UNL     1      27.818   7.981  47.381  1.00  0.00    -0.020 A 
HETATM   20  C13 UNL     1      29.565   9.247  46.417  1.00  0.00     0.309 C 
HETATM   21  C11 UNL     1      27.267   6.889  48.001  1.00  0.00     0.039 A 
HETATM   22  C12 UNL     1      27.312   9.296  46.887  1.00  0.00     0.309 C 
HETATM   23  N3  UNL     1      28.504  10.132  46.873  1.00  0.00     0.091 N 
HETATM   24  H14 UNL     1      28.752  10.354  47.869  1.00  0.00     0.316 HD
ENDBRANCH  13  15
ENDBRANCH  10  11
ENDBRANCH   8   9
ENDBRANCH   6   8
ENDBRANCH   5   6
ENDBRANCH   1   5
TORSDOF 6
ENDMDL
MODEL 2
REMARK VINA RESULT:      -6.7      6.260      8.507
REMARK  6 active torsions:
REMARK  status: ('A' for Active; 'I' for Inactive)
REMARK    1  A    between atoms: N1_2  and  C2_3 
REMARK    2  A    between atoms: N1_2  and  C14_18 
REMARK    3  A    between atoms: C2_3  and  C3_4 
REMARK    4  A    between atoms: C4_5  and  C5_6 
REMARK       I    between atoms: C5_6  and  N2_8 
REMARK    5  A    between atoms: N2_8  and  C6_9 
REMARK    6  A    between atoms: C14_18  and  N4_19 
ROOT
HETATM    1  N4  UNL     1      20.691   2.007  50.701  1.00  0.00     0.051 NA
HETATM    2  C15 UNL     1      21.545   2.944  50.970  1.00  0.00     0.783 C 
HETATM    3  C16 UNL     1      22.495   2.727  51.965  1.00  0.00     0.100 C 
HETATM    4  N5  UNL     1      23.277   2.544  52.760  1.00  0.00    -0.195 NA
ENDROOT
BRANCH   1   5
HETATM    5  C14 UNL     1      20.772   0.757  51.463  1.00  0.00     0.372 C 
BRANCH   5   6
HETATM    6  N1  UNL     1      19.484   0.528  52.011  1.00  0.00    -0.391 N 
HETATM    7  C1  UNL     1      18.472   0.131  51.100  1.00  0.00     0.145 C 
BRANCH   6   8
HETATM    8  C2  UNL     1      19.424  -0.011  53.329  1.00  0.00     0.145 C 
BRANCH   8   9
HETATM    9  C3  UNL     1      20.791  -0.298  53.807  1.00  0.00    -0.002 C 
HETATM   10  C4  UNL     1      21.773  -1.093  54.125  1.00  0.00     0.072 C 
BRANCH  10  11
HETATM   11  C5  UNL     1      23.135  -1.030  54.618  1.00  0.00     0.245 C 
HETATM   12  O1  UNL     1      23.249  -1.462  55.782  1.00  0.00    -0.268 OA
HETATM   13  N2  UNL     1      24.066  -0.504  53.716  1.00  0.00    -0.324 N 
HETATM   14  H8  UNL     1      23.870  -0.168  52.757  1.00  0.00     0.169 HD
BRANCH  13  15
HETATM   15  C6  UNL     1      25.452  -0.224  53.668  1.00  0.00     0.035 A 
HETATM   16  C7  UNL     1      26.355  -1.251  53.479  1.00  0.00     0.030 A 
HETATM   17  C8  UNL     1      27.733  -1.079  53.417  1.00  0.00     0.012 A 
HETATM   18  C9  UNL     1      28.161   0.220  53.561  1.00  0.00    -0.022 A 
HETATM   19  C10 UNL     1      27.318   1.294  53.753  1.00  0.00    -0.020 A 
HETATM   20  C13 UNL     1      29.587   0.672  53.532  1.00  0.00     0.309 C 
HETATM   21  C11 UNL     1      25.965   1.072  53.806  1.00  0.00     0.039 A 
HETATM   22  C12 UNL     1      28.208   2.488  53.852  1.00  0.00     0.309 C 
HETATM   23  N3  UNL     1      29.485   1.923  54.268  1.00  0.00     0.091 N 
HETATM   24  H14 UNL     1      29.394   1.634  55.274  1.00  0.00     0.316 HD
ENDBRANCH  13  15
ENDBRANCH  10  11
ENDBRANCH   8   9
ENDBRANCH   6   8
ENDBRANCH   5   6
ENDBRANCH   1   5
TORSDOF 6
ENDMDL
MODEL 3
REMARK VINA RESULT:      -6.6      2.507      8.799
REMARK  6 active torsions:
REMARK  status: ('A' for Active; 'I' for Inactive)
REMARK    1  A    between atoms: N1_2  and  C2_3 
REMARK    2  A    between atoms: N1_2  and  C14_18 
REMARK    3  A    between atoms: C2_3  and  C3_4 
REMARK    4  A    between atoms: C4_5  and  C5_6 
REMARK       I    between atoms: C5_6  and  N2_8 
REMARK    5  A    between atoms: N2_8  and  C6_9 
REMARK    6  A    between atoms: C14_18  and  N4_19 
ROOT
HETATM    1  N4  UNL     1      31.360   6.651  46.822  1.00  0.00     0.051 NA
HETATM    2  C15 UNL     1      32.641   6.596  46.634  1.00  0.00     0.783 C 
HETATM    3  C16 UNL     1      33.472   6.311  47.715  1.00  0.00     0.100 C 
HETATM    4  N5  UNL     1      34.144   6.061  48.588  1.00  0.00    -0.195 NA
ENDROOT
BRANCH   1   5
HETATM    5  C14 UNL     1      30.848   6.405  48.174  1.00  0.00     0.372 C 
BRANCH   5   6
HETATM    6  N1  UNL     1      29.738   7.269  48.355  1.00  0.00    -0.391 N 
HETATM    7  C1  UNL     1      30.035   8.623  48.649  1.00  0.00     0.145 C 
BRANCH   6   8
HETATM    8  C2  UNL     1      28.578   7.010  47.570  1.00  0.00     0.145 C 
BRANCH   8   9
HETATM    9  C3  UNL     1      27.705   6.054  48.280  1.00  0.00    -0.002 C 
HETATM   10  C4  UNL     1      27.481   5.017  49.038  1.00  0.00     0.072 C 
BRANCH  10  11
HETATM   11  C5  UNL     1      26.371   4.273  49.598  1.00  0.00     0.245 C 
HETATM   12  O1  UNL     1      25.272   4.601  49.110  1.00  0.00    -0.268 OA
HETATM   13  N2  UNL     1      26.723   3.333  50.574  1.00  0.00    -0.324 N 
HETATM   14  H8  UNL     1      27.678   3.131  50.916  1.00  0.00     0.169 HD
BRANCH  13  15
HETATM   15  C6  UNL     1      26.085   2.385  51.408  1.00  0.00     0.035 A 
HETATM   16  C7  UNL     1      24.781   2.592  51.814  1.00  0.00     0.030 A 
HETATM   17  C8  UNL     1      24.068   1.722  52.630  1.00  0.00     0.012 A 
HETATM   18  C9  UNL     1      24.762   0.602  53.026  1.00  0.00    -0.022 A 
HETATM   19  C10 UNL     1      26.063   0.330  52.662  1.00  0.00    -0.020 A 
HETATM   20  C13 UNL     1      24.224  -0.486  53.902  1.00  0.00     0.309 C 
HETATM   21  C11 UNL     1      26.723   1.220  51.853  1.00  0.00     0.039 A 
HETATM   22  C12 UNL     1      26.396  -0.972  53.311  1.00  0.00     0.309 C 
HETATM   23  N3  UNL     1      25.463  -1.040  54.428  1.00  0.00     0.091 N 
HETATM   24  H14 UNL     1      25.779  -0.348  55.151  1.00  0.00     0.316 HD
ENDBRANCH  13  15
ENDBRANCH  10  11
ENDBRANCH   8   9
ENDBRANCH   6   8
ENDBRANCH   5   6
ENDBRANCH   1   5
TORSDOF 6
ENDMDL
MODEL 4
REMARK VINA RESULT:      -6.5      1.713      9.313
REMARK  6 active torsions:
REMARK  status: ('A' for Active; 'I' for Inactive)
REMARK    1  A    between atoms: N1_2  and  C2_3 
REMARK    2  A    between atoms: N1_2  and  C14_18 
REMARK    3  A    between atoms: C2_3  and  C3_4 
REMARK    4  A    between atoms: C4_5  and  C5_6 
REMARK       I    between atoms: C5_6  and  N2_8 
REMARK    5  A    between atoms: N2_8  and  C6_9 
REMARK    6  A    between atoms: C14_18  and  N4_19 
ROOT
HETATM    1  N4  UNL     1      29.773   9.548  48.059  1.00  0.00     0.051 NA
HETATM    2  C15 UNL     1      29.614  10.834  48.071  1.00  0.00     0.783 C 
HETATM    3  C16 UNL     1      28.416  11.363  48.544  1.00  0.00     0.100 C 
HETATM    4  N5  UNL     1      27.450  11.793  48.944  1.00  0.00    -0.195 NA
ENDROOT
BRANCH   1   5
HETATM    5  C14 UNL     1      28.674   8.711  48.549  1.00  0.00     0.372 C 
BRANCH   5   6
HETATM    6  N1  UNL     1      28.447   7.715  47.565  1.00  0.00    -0.391 N 
HETATM    7  C1  UNL     1      28.370   8.162  46.222  1.00  0.00     0.145 C 
BRANCH   6   8
HETATM    8  C2  UNL     1      29.020   6.431  47.795  1.00  0.00     0.145 C 
BRANCH   8   9
HETATM    9  C3  UNL     1      28.016   5.547  48.419  1.00  0.00    -0.002 C 
HETATM   10  C4  UNL     1      26.915   5.311  49.075  1.00  0.00     0.072 C 
BRANCH  10  11
HETATM   11  C5  UNL     1      26.141   4.192  49.575  1.00  0.00     0.245 C 
HETATM   12  O1  UNL     1      25.139   3.945  48.874  1.00  0.00    -0.268 OA
HETATM   13  N2  UNL     1      26.645   3.597  50.737  1.00  0.00    -0.324 N 
HETATM   14  H8  UNL     1      27.497   3.879  51.251  1.00  0.00     0.169 HD
BRANCH  13  15
HETATM   15  C6  UNL     1      26.313   2.534  51.611  1.00  0.00     0.035 A 
HETATM   16  C7  UNL     1      25.034   2.015  51.609  1.00  0.00     0.030 A 
HETATM   17  C8  UNL     1      24.611   0.973  52.425  1.00  0.00     0.012 A 
HETATM   18  C9  UNL     1      25.576   0.471  53.267  1.00  0.00    -0.022 A 
HETATM   19  C10 UNL     1      26.872   0.939  53.324  1.00  0.00    -0.020 A 
HETATM   20  C13 UNL     1      25.380  -0.647  54.242  1.00  0.00     0.309 C 
HETATM   21  C11 UNL     1      27.240   1.969  52.496  1.00  0.00     0.039 A 
HETATM   22  C12 UNL     1      27.552   0.108  54.361  1.00  0.00     0.309 C 
HETATM   23  N3  UNL     1      26.450  -0.367  55.188  1.00  0.00     0.091 N 
HETATM   24  H14 UNL     1      26.100   0.446  55.753  1.00  0.00     0.316 HD
ENDBRANCH  13  15
ENDBRANCH  10  11
ENDBRANCH   8   9
ENDBRANCH   6   8
ENDBRANCH   5   6
ENDBRANCH   1   5
TORSDOF 6
ENDMDL
MODEL 5
REMARK VINA RESULT:      -6.3      6.254      9.704
REMARK  6 active torsions:
REMARK  status: ('A' for Active; 'I' for Inactive)
REMARK    1  A    between atoms: N1_2  and  C2_3 
REMARK    2  A    between atoms: N1_2  and  C14_18 
REMARK    3  A    between atoms: C2_3  and  C3_4 
REMARK    4  A    between atoms: C4_5  and  C5_6 
REMARK       I    between atoms: C5_6  and  N2_8 
REMARK    5  A    between atoms: N2_8  and  C6_9 
REMARK    6  A    between atoms: C14_18  and  N4_19 
ROOT
HETATM    1  N4  UNL     1      27.214   0.410  54.530  1.00  0.00     0.051 NA
HETATM    2  C15 UNL     1      28.481   0.533  54.776  1.00  0.00     0.783 C 
HETATM    3  C16 UNL     1      29.380  -0.312  54.129  1.00  0.00     0.100 C 
HETATM    4  N5  UNL     1      30.111  -0.985  53.591  1.00  0.00    -0.195 NA
ENDROOT
BRANCH   1   5
HETATM    5  C14 UNL     1      26.791  -0.620  53.576  1.00  0.00     0.372 C 
BRANCH   5   6
HETATM    6  N1  UNL     1      25.545  -0.199  53.045  1.00  0.00    -0.391 N 
HETATM    7  C1  UNL     1      24.390  -0.566  53.781  1.00  0.00     0.145 C 
BRANCH   6   8
HETATM    8  C2  UNL     1      25.517   1.053  52.366  1.00  0.00     0.145 C 
BRANCH   8   9
HETATM    9  C3  UNL     1      24.126   1.386  52.000  1.00  0.00    -0.002 C 
HETATM   10  C4  UNL     1      23.218   1.944  51.250  1.00  0.00     0.072 C 
BRANCH  10  11
HETATM   11  C5  UNL     1      21.778   2.086  51.174  1.00  0.00     0.245 C 
HETATM   12  O1  UNL     1      21.416   3.266  50.995  1.00  0.00    -0.268 OA
HETATM   13  N2  UNL     1      21.058   0.893  51.313  1.00  0.00    -0.324 N 
HETATM   14  H8  UNL     1      21.456  -0.050  51.459  1.00  0.00     0.169 HD
BRANCH  13  15
HETATM   15  C6  UNL     1      19.709   0.466  51.321  1.00  0.00     0.035 A 
HETATM   16  C7  UNL     1      18.903   0.711  50.228  1.00  0.00     0.030 A 
HETATM   17  C8  UNL     1      17.569   0.332  50.138  1.00  0.00     0.012 A 
HETATM   18  C9  UNL     1      17.080  -0.325  51.244  1.00  0.00    -0.022 A 
HETATM   19  C10 UNL     1      17.825  -0.604  52.370  1.00  0.00    -0.020 A 
HETATM   20  C13 UNL     1      15.683  -0.837  51.400  1.00  0.00     0.309 C 
HETATM   21  C11 UNL     1      19.138  -0.209  52.408  1.00  0.00     0.039 A 
HETATM   22  C12 UNL     1      16.899  -1.320  53.295  1.00  0.00     0.309 C 
HETATM   23  N3  UNL     1      15.580  -0.889  52.851  1.00  0.00     0.091 N 
HETATM   24  H14 UNL     1      15.453   0.111  53.146  1.00  0.00     0.316 HD
ENDBRANCH  13  15
ENDBRANCH  10  11
ENDBRANCH   8   9
ENDBRANCH   6   8
ENDBRANCH   5   6
ENDBRANCH   1   5
TORSDOF 6
ENDMDL
MODEL 6
REMARK VINA RESULT:      -6.2      1.652      2.203
REMARK  6 active torsions:
REMARK  status: ('A' for Active; 'I' for Inactive)
REMARK    1  A    between atoms: N1_2  and  C2_3 
REMARK    2  A    between atoms: N1_2  and  C14_18 
REMARK    3  A    between atoms: C2_3  and  C3_4 
REMARK    4  A    between atoms: C4_5  and  C5_6 
REMARK       I    between atoms: C5_6  and  N2_8 
REMARK    5  A    between atoms: N2_8  and  C6_9 
REMARK    6  A    between atoms: C14_18  and  N4_19 
ROOT
HETATM    1  N4  UNL     1      25.035   0.505  52.841  1.00  0.00     0.051 NA
HETATM    2  C15 UNL     1      24.885  -0.621  53.465  1.00  0.00     0.783 C 
HETATM    3  C16 UNL     1      25.302  -0.721  54.790  1.00  0.00     0.100 C 
HETATM    4  N5  UNL     1      25.625  -0.797  55.870  1.00  0.00    -0.195 NA
ENDROOT
BRANCH   1   5
HETATM    5  C14 UNL     1      25.640   1.624  53.570  1.00  0.00     0.372 C 
BRANCH   5   6
HETATM    6  N1  UNL     1      26.745   2.066  52.797  1.00  0.00    -0.391 N 
HETATM    7  C1  UNL     1      28.007   2.061  53.442  1.00  0.00     0.145 C 
BRANCH   6   8
HETATM    8  C2  UNL     1      26.721   1.773  51.403  1.00  0.00     0.145 C 
BRANCH   8   9
HETATM    9  C3  UNL     1      26.584   3.028  50.637  1.00  0.00    -0.002 C 
HETATM   10  C4  UNL     1      26.290   3.719  49.572  1.00  0.00     0.072 C 
BRANCH  10  11
HETATM   11  C5  UNL     1      26.269   5.095  49.115  1.00  0.00     0.245 C 
HETATM   12  O1  UNL     1      25.114   5.545  48.988  1.00  0.00    -0.268 OA
HETATM   13  N2  UNL     1      27.529   5.665  48.897  1.00  0.00    -0.324 N 
HETATM   14  H8  UNL     1      28.444   5.201  49.033  1.00  0.00     0.169 HD
BRANCH  13  15
HETATM   15  C6  UNL     1      28.072   6.900  48.472  1.00  0.00     0.035 A 
HETATM   16  C7  UNL     1      29.079   6.920  47.529  1.00  0.00     0.030 A 
HETATM   17  C8  UNL     1      29.677   8.079  47.046  1.00  0.00     0.012 A 
HETATM   18  C9  UNL     1      29.188   9.247  47.584  1.00  0.00    -0.022 A 
HETATM   19  C10 UNL     1      28.186   9.304  48.529  1.00  0.00    -0.020 A 
HETATM   20  C13 UNL     1      29.658  10.625  47.235  1.00  0.00     0.309 C 
HETATM   21  C11 UNL     1      27.629   8.131  48.972  1.00  0.00     0.039 A 
HETATM   22  C12 UNL     1      27.985  10.755  48.812  1.00  0.00     0.309 C 
HETATM   23  N3  UNL     1      29.258  11.352  48.430  1.00  0.00     0.091 N 
HETATM   24  H14 UNL     1      29.968  11.084  49.156  1.00  0.00     0.316 HD
ENDBRANCH  13  15
ENDBRANCH  10  11
ENDBRANCH   8   9
ENDBRANCH   6   8
ENDBRANCH   5   6
ENDBRANCH   1   5
TORSDOF 6
ENDMDL
MODEL 7
REMARK VINA RESULT:      -6.1      6.644     10.271
REMARK  6 active torsions:
REMARK  status: ('A' for Active; 'I' for Inactive)
REMARK    1  A    between atoms: N1_2  and  C2_3 
REMARK    2  A    between atoms: N1_2  and  C14_18 
REMARK    3  A    between atoms: C2_3  and  C3_4 
REMARK    4  A    between atoms: C4_5  and  C5_6 
REMARK       I    between atoms: C5_6  and  N2_8 
REMARK    5  A    between atoms: N2_8  and  C6_9 
REMARK    6  A    between atoms: C14_18  and  N4_19 
ROOT
HETATM    1  N4  UNL     1      16.308  -0.912  51.650  1.00  0.00     0.051 NA
HETATM    2  C15 UNL     1      15.150  -0.537  51.202  1.00  0.00     0.783 C 
HETATM    3  C16 UNL     1      14.218  -0.011  52.093  1.00  0.00     0.100 C 
HETATM    4  N5  UNL     1      13.469   0.432  52.814  1.00  0.00    -0.195 NA
ENDROOT
BRANCH   1   5
HETATM    5  C14 UNL     1      16.577  -0.761  53.083  1.00  0.00     0.372 C 
BRANCH   5   6
HETATM    6  N1  UNL     1      17.911  -1.190  53.296  1.00  0.00    -0.391 N 
HETATM    7  C1  UNL     1      18.083  -2.540  53.696  1.00  0.00     0.145 C 
BRANCH   6   8
HETATM    8  C2  UNL     1      18.918  -0.622  52.464  1.00  0.00     0.145 C 
BRANCH   8   9
HETATM    9  C3  UNL     1      20.219  -0.670  53.161  1.00  0.00    -0.002 C 
HETATM   10  C4  UNL     1      21.000  -0.987  54.155  1.00  0.00     0.072 C 
BRANCH  10  11
HETATM   11  C5  UNL     1      22.388  -0.866  54.556  1.00  0.00     0.245 C 
HETATM   12  O1  UNL     1      22.656  -1.527  55.579  1.00  0.00    -0.268 OA
HETATM   13  N2  UNL     1      23.170  -0.041  53.739  1.00  0.00    -0.324 N 
HETATM   14  H8  UNL     1      22.850   0.471  52.899  1.00  0.00     0.169 HD
BRANCH  13  15
HETATM   15  C6  UNL     1      24.508   0.412  53.664  1.00  0.00     0.035 A 
HETATM   16  C7  UNL     1      24.815   1.531  52.916  1.00  0.00     0.030 A 
HETATM   17  C8  UNL     1      26.095   2.055  52.780  1.00  0.00     0.012 A 
HETATM   18  C9  UNL     1      27.075   1.369  53.461  1.00  0.00    -0.022 A 
HETATM   19  C10 UNL     1      26.843   0.246  54.226  1.00  0.00    -0.020 A 
HETATM   20  C13 UNL     1      28.528   1.725  53.480  1.00  0.00     0.309 C 
HETATM   21  C11 UNL     1      25.561  -0.231  54.328  1.00  0.00     0.039 A 
HETATM   22  C12 UNL     1      28.176  -0.151  54.768  1.00  0.00     0.309 C 
HETATM   23  N3  UNL     1      29.113   0.437  53.820  1.00  0.00     0.091 N 
HETATM   24  H14 UNL     1      29.063  -0.121  52.932  1.00  0.00     0.316 HD
ENDBRANCH  13  15
ENDBRANCH  10  11
ENDBRANCH   8   9
ENDBRANCH   6   8
ENDBRANCH   5   6
ENDBRANCH   1   5
TORSDOF 6
ENDMDL
MODEL 8
REMARK VINA RESULT:      -6.1      4.050      8.125
REMARK  6 active torsions:
REMARK  status: ('A' for Active; 'I' for Inactive)
REMARK    1  A    between atoms: N1_2  and  C2_3 
REMARK    2  A    between atoms: N1_2  and  C14_18 
REMARK    3  A    between atoms: C2_3  and  C3_4 
REMARK    4  A    between atoms: C4_5  and  C5_6 
REMARK       I    between atoms: C5_6  and  N2_8 
REMARK    5  A    between atoms: N2_8  and  C6_9 
REMARK    6  A    between atoms: C14_18  and  N4_19 
ROOT
HETATM    1  N4  UNL     1      21.721   4.698  48.718  1.00  0.00     0.051 NA
HETATM    2  C15 UNL     1      22.008   3.723  47.914  1.00  0.00     0.783 C 
HETATM    3  C16 UNL     1      21.686   2.421  48.288  1.00  0.00     0.100 C 
HETATM    4  N5  UNL     1      21.408   1.366  48.585  1.00  0.00    -0.195 NA
ENDROOT
BRANCH   1   5
HETATM    5  C14 UNL     1      21.067   4.377  49.989  1.00  0.00     0.372 C 
BRANCH   5   6
HETATM    6  N1  UNL     1      21.831   4.995  51.011  1.00  0.00    -0.391 N 
HETATM    7  C1  UNL     1      21.981   4.263  52.216  1.00  0.00     0.145 C 
BRANCH   6   8
HETATM    8  C2  UNL     1      22.925   5.811  50.602  1.00  0.00     0.145 C 
BRANCH   8   9
HETATM    9  C3  UNL     1      24.153   4.994  50.537  1.00  0.00    -0.002 C 
HETATM   10  C4  UNL     1      25.163   4.451  49.917  1.00  0.00     0.072 C 
BRANCH  10  11
HETATM   11  C5  UNL     1      26.311   3.610  50.192  1.00  0.00     0.245 C 
HETATM   12  O1  UNL     1      27.189   3.686  49.311  1.00  0.00    -0.268 OA
HETATM   13  N2  UNL     1      26.233   2.873  51.380  1.00  0.00    -0.324 N 
HETATM   14  H8  UNL     1      25.449   2.880  52.055  1.00  0.00     0.169 HD
BRANCH  13  15
HETATM   15  C6  UNL     1      27.018   1.945  52.103  1.00  0.00     0.035 A 
HETATM   16  C7  UNL     1      28.046   2.393  52.908  1.00  0.00     0.030 A 
HETATM   17  C8  UNL     1      28.872   1.563  53.657  1.00  0.00     0.012 A 
HETATM   18  C9  UNL     1      28.596   0.220  53.545  1.00  0.00    -0.022 A 
HETATM   19  C10 UNL     1      27.587  -0.299  52.762  1.00  0.00    -0.020 A 
HETATM   20  C13 UNL     1      29.333  -0.878  54.246  1.00  0.00     0.309 C 
HETATM   21  C11 UNL     1      26.799   0.563  52.042  1.00  0.00     0.039 A 
HETATM   22  C12 UNL     1      27.657  -1.778  52.949  1.00  0.00     0.309 C 
HETATM   23  N3  UNL     1      29.034  -2.000  53.369  1.00  0.00     0.091 N 
HETATM   24  H14 UNL     1      29.651  -1.857  52.532  1.00  0.00     0.316 HD
ENDBRANCH  13  15
ENDBRANCH  10  11
ENDBRANCH   8   9
ENDBRANCH   6   8
ENDBRANCH   5   6
ENDBRANCH   1   5
TORSDOF 6
ENDMDL
MODEL 9
REMARK VINA RESULT:      -6.1      7.532     11.133
REMARK  6 active torsions:
REMARK  status: ('A' for Active; 'I' for Inactive)
REMARK    1  A    between atoms: N1_2  and  C2_3 
REMARK    2  A    between atoms: N1_2  and  C14_18 
REMARK    3  A    between atoms: C2_3  and  C3_4 
REMARK    4  A    between atoms: C4_5  and  C5_6 
REMARK       I    between atoms: C5_6  and  N2_8 
REMARK    5  A    between atoms: N2_8  and  C6_9 
REMARK    6  A    between atoms: C14_18  and  N4_19 
ROOT
HETATM    1  N4  UNL     1      13.981   1.689  52.639  1.00  0.00     0.051 NA
HETATM    2  C15 UNL     1      13.864   2.949  52.921  1.00  0.00     0.783 C 
HETATM    3  C16 UNL     1      15.005   3.748  52.935  1.00  0.00     0.100 C 
HETATM    4  N5  UNL     1      15.928   4.399  52.928  1.00  0.00    -0.195 NA
ENDROOT
BRANCH   1   5
HETATM    5  C14 UNL     1      15.319   1.168  52.345  1.00  0.00     0.372 C 
BRANCH   5   6
HETATM    6  N1  UNL     1      15.148  -0.162  51.882  1.00  0.00    -0.391 N 
HETATM    7  C1  UNL     1      13.814  -0.578  51.638  1.00  0.00     0.145 C 
BRANCH   6   8
HETATM    8  C2  UNL     1      16.163  -0.692  51.035  1.00  0.00     0.145 C 
BRANCH   8   9
HETATM    9  C3  UNL     1      17.462  -0.079  51.379  1.00  0.00    -0.002 C 
HETATM   10  C4  UNL     1      18.677   0.309  51.110  1.00  0.00     0.072 C 
BRANCH  10  11
HETATM   11  C5  UNL     1      19.804   0.950  51.758  1.00  0.00     0.245 C 
HETATM   12  O1  UNL     1      19.535   2.093  52.179  1.00  0.00    -0.268 OA
HETATM   13  N2  UNL     1      20.977   0.187  51.795  1.00  0.00    -0.324 N 
HETATM   14  H8  UNL     1      21.101  -0.766  51.412  1.00  0.00     0.169 HD
BRANCH  13  15
HETATM   15  C6  UNL     1      22.303   0.307  52.273  1.00  0.00     0.035 A 
HETATM   16  C7  UNL     1      23.168   1.206  51.683  1.00  0.00     0.030 A 
HETATM   17  C8  UNL     1      24.486   1.399  52.079  1.00  0.00     0.012 A 
HETATM   18  C9  UNL     1      24.894   0.613  53.132  1.00  0.00    -0.022 A 
HETATM   19  C10 UNL     1      24.086  -0.304  53.770  1.00  0.00    -0.020 A 
HETATM   20  C13 UNL     1      26.258   0.627  53.748  1.00  0.00     0.309 C 
HETATM   21  C11 UNL     1      22.792  -0.457  53.341  1.00  0.00     0.039 A 
HETATM   22  C12 UNL     1      24.936  -0.912  54.836  1.00  0.00     0.309 C 
HETATM   23  N3  UNL     1      26.292  -0.697  54.349  1.00  0.00     0.091 N 
HETATM   24  H14 UNL     1      26.451  -1.352  53.543  1.00  0.00     0.316 HD
ENDBRANCH  13  15
ENDBRANCH  10  11
ENDBRANCH   8   9
ENDBRANCH   6   8
ENDBRANCH   5   6
ENDBRANCH   1   5
TORSDOF 6
ENDMDL
