MODEL 1
REMARK VINA RESULT:      -9.4      0.000      0.000
REMARK  3 active torsions:
REMARK  status: ('A' for Active; 'I' for Inactive)
REMARK    1  A    between atoms: O1_2  and  C2_3 
REMARK    2  A    between atoms: C10_11  and  N1_12 
REMARK    3  A    between atoms: N3_20  and  C17_21 
ROOT
HETATM    1  C2  UNL     1      26.695  -0.356  53.234  1.00  0.00     0.069 A 
HETATM    2  C3  UNL     1      25.359  -0.414  53.510  1.00  0.00     0.037 A 
HETATM    3  C4  UNL     1      24.416   0.430  53.001  1.00  0.00     0.017 A 
HETATM    4  C5  UNL     1      24.835   1.441  52.124  1.00  0.00     0.000 A 
HETATM    5  C6  UNL     1      26.181   1.460  51.875  1.00  0.00    -0.024 A 
HETATM    6  C7  UNL     1      27.134   0.626  52.375  1.00  0.00     0.048 A 
HETATM    7  C8  UNL     1      26.723   2.454  50.967  1.00  0.00    -0.003 C 
HETATM    8  C9  UNL     1      26.736   3.487  50.170  1.00  0.00     0.072 C 
HETATM    9  C10 UNL     1      26.032   4.582  49.523  1.00  0.00     0.011 C 
HETATM   10  C11 UNL     1      25.054   5.414  49.153  1.00  0.00     0.025 C 
HETATM   11  C12 UNL     1      23.636   5.553  49.440  1.00  0.00     0.000 C 
HETATM   12  C13 UNL     1      22.621   5.046  50.118  1.00  0.00     0.000 C 
HETATM   13  C14 UNL     1      22.223   3.964  51.075  1.00  0.00     0.135 C 
HETATM   14  C15 UNL     1      23.363   3.674  52.011  1.00  0.00     0.093 C 
HETATM   15  C16 UNL     1      23.793   2.322  51.615  1.00  0.00     0.068 C 
HETATM   16  N2  UNL     1      23.095   1.846  50.643  1.00  0.00    -0.178 NA
HETATM   17  N3  UNL     1      22.036   2.749  50.353  1.00  0.00    -0.272 N 
ENDROOT
BRANCH  17  18
HETATM   18  C17 UNL     1      20.940   2.429  49.453  1.00  0.00     0.123 C 
HETATM   19  C18 UNL     1      20.779   0.926  49.295  1.00  0.00     0.058 C 
HETATM   20  S1  UNL     1      19.357   3.060  50.081  1.00  0.00    -0.104 SA
HETATM   21  C19 UNL     1      19.296   4.784  49.596  1.00  0.00     0.045 C 
HETATM   22  C20 UNL     1      19.643   4.983  48.324  1.00  0.00    -0.007 C 
HETATM   23  C21 UNL     1      20.015   3.814  47.514  1.00  0.00     0.063 A 
HETATM   24  C22 UNL     1      20.534   4.184  46.180  1.00  0.00    -0.014 A 
HETATM   25  C25 UNL     1      21.106   2.991  48.091  1.00  0.00    -0.029 A 
HETATM   26  C23 UNL     1      21.738   3.690  45.941  1.00  0.00    -0.003 A 
HETATM   27  C24 UNL     1      22.046   2.955  47.162  1.00  0.00     0.007 A 
ENDBRANCH  17  18
BRANCH   9  28
HETATM   28  N1  UNL     1      27.345   4.837  48.962  1.00  0.00    -0.402 N 
HETATM   29  H9  UNL     1      28.294   5.278  49.051  1.00  0.00     0.156 HD
HETATM   30  H10 UNL     1      28.021   4.693  48.162  1.00  0.00     0.156 HD
ENDBRANCH   9  28
BRANCH   1  31
HETATM   31  O1  UNL     1      27.570  -1.261  53.805  1.00  0.00    -0.356 OA
HETATM   32  C1  UNL     1      28.934  -1.207  53.433  1.00  0.00     0.210 C 
ENDBRANCH   1  31
TORSDOF 3
ENDMDL
MODEL 2
REMARK VINA RESULT:      -9.2      1.520      2.780
REMARK  3 active torsions:
REMARK  status: ('A' for Active; 'I' for Inactive)
REMARK    1  A    between atoms: O1_2  and  C2_3 
REMARK    2  A    between atoms: C10_11  and  N1_12 
REMARK    3  A    between atoms: N3_20  and  C17_21 
ROOT
HETATM    1  C2  UNL     1      26.693  -0.513  53.277  1.00  0.00     0.069 A 
HETATM    2  C3  UNL     1      25.460  -0.365  53.844  1.00  0.00     0.037 A 
HETATM    3  C4  UNL     1      24.582   0.640  53.562  1.00  0.00     0.017 A 
HETATM    4  C5  UNL     1      24.961   1.604  52.617  1.00  0.00     0.000 A 
HETATM    5  C6  UNL     1      26.203   1.416  52.074  1.00  0.00    -0.024 A 
HETATM    6  C7  UNL     1      27.090   0.420  52.345  1.00  0.00     0.048 A 
HETATM    7  C8  UNL     1      26.690   2.345  51.071  1.00  0.00    -0.003 C 
HETATM    8  C9  UNL     1      26.700   3.395  50.295  1.00  0.00     0.072 C 
HETATM    9  C10 UNL     1      26.064   4.615  49.825  1.00  0.00     0.011 C 
HETATM   10  C11 UNL     1      25.181   5.608  49.686  1.00  0.00     0.025 C 
HETATM   11  C12 UNL     1      23.904   5.962  50.283  1.00  0.00     0.000 C 
HETATM   12  C13 UNL     1      22.993   5.599  51.169  1.00  0.00     0.000 C 
HETATM   13  C14 UNL     1      22.639   4.557  52.187  1.00  0.00     0.135 C 
HETATM   14  C15 UNL     1      23.893   4.049  52.844  1.00  0.00     0.093 C 
HETATM   15  C16 UNL     1      23.994   2.663  52.356  1.00  0.00     0.068 C 
HETATM   16  N2  UNL     1      23.031   2.346  51.563  1.00  0.00    -0.178 NA
HETATM   17  N3  UNL     1      22.099   3.419  51.520  1.00  0.00    -0.272 N 
ENDROOT
BRANCH  17  18
HETATM   18  C17 UNL     1      20.795   3.317  50.886  1.00  0.00     0.123 C 
HETATM   19  C18 UNL     1      19.897   4.477  51.285  1.00  0.00     0.058 C 
HETATM   20  S1  UNL     1      20.930   3.362  49.075  1.00  0.00    -0.104 SA
HETATM   21  C19 UNL     1      21.339   1.689  48.580  1.00  0.00     0.045 C 
HETATM   22  C20 UNL     1      20.583   0.766  49.176  1.00  0.00    -0.007 C 
HETATM   23  C21 UNL     1      19.554   1.217  50.123  1.00  0.00     0.063 A 
HETATM   24  C22 UNL     1      18.901   0.097  50.835  1.00  0.00    -0.014 A 
HETATM   25  C25 UNL     1      20.065   2.071  51.223  1.00  0.00    -0.029 A 
HETATM   26  C23 UNL     1      18.978   0.210  52.151  1.00  0.00    -0.003 A 
HETATM   27  C24 UNL     1      19.711   1.456  52.338  1.00  0.00     0.007 A 
ENDBRANCH  17  18
BRANCH   9  28
HETATM   28  N1  UNL     1      27.245   4.677  48.987  1.00  0.00    -0.402 N 
HETATM   29  H9  UNL     1      28.143   4.243  48.660  1.00  0.00     0.156 HD
HETATM   30  H10 UNL     1      27.800   5.205  48.259  1.00  0.00     0.156 HD
ENDBRANCH   9  28
BRANCH   1  31
HETATM   31  O1  UNL     1      27.509  -1.570  53.635  1.00  0.00    -0.356 OA
HETATM   32  C1  UNL     1      27.713  -2.611  52.699  1.00  0.00     0.210 C 
ENDBRANCH   1  31
TORSDOF 3
ENDMDL
MODEL 3
REMARK VINA RESULT:      -9.0      2.126      4.324
REMARK  3 active torsions:
REMARK  status: ('A' for Active; 'I' for Inactive)
REMARK    1  A    between atoms: O1_2  and  C2_3 
REMARK    2  A    between atoms: C10_11  and  N1_12 
REMARK    3  A    between atoms: N3_20  and  C17_21 
ROOT
HETATM    1  C2  UNL     1      26.940  -0.307  53.436  1.00  0.00     0.069 A 
HETATM    2  C3  UNL     1      27.143   0.458  52.323  1.00  0.00     0.037 A 
HETATM    3  C4  UNL     1      26.169   1.130  51.644  1.00  0.00     0.017 A 
HETATM    4  C5  UNL     1      24.851   1.039  52.114  1.00  0.00     0.000 A 
HETATM    5  C6  UNL     1      24.694   0.264  53.231  1.00  0.00    -0.024 A 
HETATM    6  C7  UNL     1      25.655  -0.413  53.919  1.00  0.00     0.048 A 
HETATM    7  C8  UNL     1      23.374   0.114  53.814  1.00  0.00    -0.003 C 
HETATM    8  C9  UNL     1      22.081   0.242  53.933  1.00  0.00     0.072 C 
HETATM    9  C10 UNL     1      20.817   0.749  53.422  1.00  0.00     0.011 C 
HETATM   10  C11 UNL     1      19.923   1.361  52.640  1.00  0.00     0.025 C 
HETATM   11  C12 UNL     1      19.963   2.105  51.393  1.00  0.00     0.000 C 
HETATM   12  C13 UNL     1      20.752   2.554  50.432  1.00  0.00     0.000 C 
HETATM   13  C14 UNL     1      22.172   2.606  49.956  1.00  0.00     0.135 C 
HETATM   14  C15 UNL     1      22.876   1.332  50.330  1.00  0.00     0.093 C 
HETATM   15  C16 UNL     1      23.845   1.766  51.351  1.00  0.00     0.068 C 
HETATM   16  N2  UNL     1      23.782   3.030  51.586  1.00  0.00    -0.178 NA
HETATM   17  N3  UNL     1      22.867   3.622  50.674  1.00  0.00    -0.272 N 
ENDROOT
BRANCH  17  18
HETATM   18  C17 UNL     1      22.709   5.060  50.524  1.00  0.00     0.123 C 
HETATM   19  C18 UNL     1      21.453   5.551  51.224  1.00  0.00     0.058 C 
HETATM   20  S1  UNL     1      24.103   5.963  51.260  1.00  0.00    -0.104 SA
HETATM   21  C19 UNL     1      25.399   5.943  50.023  1.00  0.00     0.045 C 
HETATM   22  C20 UNL     1      24.963   6.257  48.802  1.00  0.00    -0.007 C 
HETATM   23  C21 UNL     1      23.537   6.565  48.632  1.00  0.00     0.063 A 
HETATM   24  C22 UNL     1      23.153   6.733  47.214  1.00  0.00    -0.014 A 
HETATM   25  C25 UNL     1      22.618   5.505  49.113  1.00  0.00    -0.029 A 
HETATM   26  C23 UNL     1      22.168   5.929  46.849  1.00  0.00    -0.003 A 
HETATM   27  C24 UNL     1      21.872   5.187  48.068  1.00  0.00     0.007 A 
ENDBRANCH  17  18
BRANCH   9  28
HETATM   28  N1  UNL     1      20.301   0.110  54.617  1.00  0.00    -0.402 N 
HETATM   29  H9  UNL     1      19.519  -0.391  55.107  1.00  0.00     0.156 HD
HETATM   30  H10 UNL     1      20.468  -0.185  55.619  1.00  0.00     0.156 HD
ENDBRANCH   9  28
BRANCH   1  31
HETATM   31  O1  UNL     1      27.999  -0.949  54.050  1.00  0.00    -0.356 OA
HETATM   32  C1  UNL     1      29.308  -0.469  53.814  1.00  0.00     0.210 C 
ENDBRANCH   1  31
TORSDOF 3
ENDMDL
MODEL 4
REMARK VINA RESULT:      -8.8      2.435      4.806
REMARK  3 active torsions:
REMARK  status: ('A' for Active; 'I' for Inactive)
REMARK    1  A    between atoms: O1_2  and  C2_3 
REMARK    2  A    between atoms: C10_11  and  N1_12 
REMARK    3  A    between atoms: N3_20  and  C17_21 
ROOT
HETATM    1  C2  UNL     1      26.491   2.358  51.848  1.00  0.00     0.069 A 
HETATM    2  C3  UNL     1      26.085   2.858  50.645  1.00  0.00     0.037 A 
HETATM    3  C4  UNL     1      24.812   2.796  50.159  1.00  0.00     0.017 A 
HETATM    4  C5  UNL     1      23.833   2.174  50.946  1.00  0.00     0.000 A 
HETATM    5  C6  UNL     1      24.283   1.689  52.143  1.00  0.00    -0.024 A 
HETATM    6  C7  UNL     1      25.549   1.742  52.641  1.00  0.00     0.048 A 
HETATM    7  C8  UNL     1      23.350   1.040  53.046  1.00  0.00    -0.003 C 
HETATM    8  C9  UNL     1      22.221   0.539  53.465  1.00  0.00     0.072 C 
HETATM    9  C10 UNL     1      20.819   0.231  53.230  1.00  0.00     0.011 C 
HETATM   10  C11 UNL     1      19.629   0.135  52.631  1.00  0.00     0.025 C 
HETATM   11  C12 UNL     1      19.076   0.509  51.340  1.00  0.00     0.000 C 
HETATM   12  C13 UNL     1      19.349   1.065  50.173  1.00  0.00     0.000 C 
HETATM   13  C14 UNL     1      20.434   1.703  49.358  1.00  0.00     0.135 C 
HETATM   14  C15 UNL     1      21.752   1.057  49.682  1.00  0.00     0.093 C 
HETATM   15  C16 UNL     1      22.490   2.124  50.380  1.00  0.00     0.068 C 
HETATM   16  N2  UNL     1      21.807   3.210  50.488  1.00  0.00    -0.178 NA
HETATM   17  N3  UNL     1      20.589   3.058  49.770  1.00  0.00    -0.272 N 
ENDROOT
BRANCH  17  18
HETATM   18  C17 UNL     1      19.675   4.159  49.511  1.00  0.00     0.123 C 
HETATM   19  C18 UNL     1      20.299   5.493  49.888  1.00  0.00     0.058 C 
HETATM   20  S1  UNL     1      19.242   4.264  47.750  1.00  0.00    -0.104 SA
HETATM   21  C19 UNL     1      17.929   3.071  47.502  1.00  0.00     0.045 C 
HETATM   22  C20 UNL     1      16.978   3.138  48.434  1.00  0.00    -0.007 C 
HETATM   23  C21 UNL     1      17.120   4.138  49.501  1.00  0.00     0.063 A 
HETATM   24  C22 UNL     1      16.092   4.000  50.555  1.00  0.00    -0.014 A 
HETATM   25  C25 UNL     1      18.395   4.057  50.253  1.00  0.00    -0.029 A 
HETATM   26  C23 UNL     1      16.611   3.856  51.764  1.00  0.00    -0.003 A 
HETATM   27  C24 UNL     1      18.047   3.899  51.519  1.00  0.00     0.007 A 
ENDBRANCH  17  18
BRANCH   9  28
HETATM   28  N1  UNL     1      20.911  -0.299  54.577  1.00  0.00    -0.402 N 
HETATM   29  H9  UNL     1      20.478  -0.842  55.364  1.00  0.00     0.156 HD
HETATM   30  H10 UNL     1      21.483  -0.411  55.459  1.00  0.00     0.156 HD
ENDBRANCH   9  28
BRANCH   1  31
HETATM   31  O1  UNL     1      27.810   2.472  52.248  1.00  0.00    -0.356 OA
HETATM   32  C1  UNL     1      28.137   2.161  53.589  1.00  0.00     0.210 C 
ENDBRANCH   1  31
TORSDOF 3
ENDMDL
MODEL 5
REMARK VINA RESULT:      -8.3      7.274     10.753
REMARK  3 active torsions:
REMARK  status: ('A' for Active; 'I' for Inactive)
REMARK    1  A    between atoms: O1_2  and  C2_3 
REMARK    2  A    between atoms: C10_11  and  N1_12 
REMARK    3  A    between atoms: N3_20  and  C17_21 
ROOT
HETATM    1  C2  UNL     1      26.048   6.950  49.717  1.00  0.00     0.069 A 
HETATM    2  C3  UNL     1      26.612   6.040  48.870  1.00  0.00     0.037 A 
HETATM    3  C4  UNL     1      27.752   6.241  48.148  1.00  0.00     0.017 A 
HETATM    4  C5  UNL     1      28.407   7.473  48.275  1.00  0.00     0.000 A 
HETATM    5  C6  UNL     1      27.809   8.354  49.134  1.00  0.00    -0.024 A 
HETATM    6  C7  UNL     1      26.672   8.169  49.861  1.00  0.00     0.048 A 
HETATM    7  C8  UNL     1      28.413   9.655  49.356  1.00  0.00    -0.003 C 
HETATM    8  C9  UNL     1      29.251  10.643  49.203  1.00  0.00     0.072 C 
HETATM    9  C10 UNL     1      30.413  11.212  48.539  1.00  0.00     0.011 C 
HETATM   10  C11 UNL     1      31.462  11.350  47.723  1.00  0.00     0.025 C 
HETATM   11  C12 UNL     1      32.110  10.538  46.707  1.00  0.00     0.000 C 
HETATM   12  C13 UNL     1      32.073   9.380  46.070  1.00  0.00     0.000 C 
HETATM   13  C14 UNL     1      31.326   8.086  45.951  1.00  0.00     0.135 C 
HETATM   14  C15 UNL     1      29.862   8.324  46.194  1.00  0.00     0.093 C 
HETATM   15  C16 UNL     1      29.615   7.644  47.477  1.00  0.00     0.068 C 
HETATM   16  N2  UNL     1      30.675   7.094  47.957  1.00  0.00    -0.178 NA
HETATM   17  N3  UNL     1      31.727   7.218  47.009  1.00  0.00    -0.272 N 
ENDROOT
BRANCH  17  18
HETATM   18  C17 UNL     1      33.002   6.532  47.139  1.00  0.00     0.123 C 
HETATM   19  C18 UNL     1      34.059   7.445  47.739  1.00  0.00     0.058 C 
HETATM   20  S1  UNL     1      32.873   5.091  48.237  1.00  0.00    -0.104 SA
HETATM   21  C19 UNL     1      32.225   3.765  47.221  1.00  0.00     0.045 C 
HETATM   22  C20 UNL     1      32.840   3.660  46.042  1.00  0.00    -0.007 C 
HETATM   23  C21 UNL     1      33.924   4.605  45.737  1.00  0.00     0.063 A 
HETATM   24  C22 UNL     1      34.407   4.490  44.345  1.00  0.00    -0.014 A 
HETATM   25  C25 UNL     1      33.543   6.033  45.852  1.00  0.00    -0.029 A 
HETATM   26  C23 UNL     1      34.349   5.635  43.684  1.00  0.00    -0.003 A 
HETATM   27  C24 UNL     1      33.805   6.562  44.669  1.00  0.00     0.007 A 
ENDBRANCH  17  18
BRANCH   9  28
HETATM   28  N1  UNL     1      30.127  12.328  49.419  1.00  0.00    -0.402 N 
HETATM   29  H9  UNL     1      30.410  12.935  50.228  1.00  0.00     0.156 HD
HETATM   30  H10 UNL     1      29.472  13.114  49.686  1.00  0.00     0.156 HD
ENDBRANCH   9  28
BRANCH   1  31
HETATM   31  O1  UNL     1      24.887   6.647  50.403  1.00  0.00    -0.356 OA
HETATM   32  C1  UNL     1      24.072   7.712  50.853  1.00  0.00     0.210 C 
ENDBRANCH   1  31
TORSDOF 3
ENDMDL
MODEL 6
REMARK VINA RESULT:      -8.1      2.806      5.124
REMARK  3 active torsions:
REMARK  status: ('A' for Active; 'I' for Inactive)
REMARK    1  A    between atoms: O1_2  and  C2_3 
REMARK    2  A    between atoms: C10_11  and  N1_12 
REMARK    3  A    between atoms: N3_20  and  C17_21 
ROOT
HETATM    1  C2  UNL     1      22.292  -0.510  53.078  1.00  0.00     0.069 A 
HETATM    2  C3  UNL     1      23.466   0.184  53.134  1.00  0.00     0.037 A 
HETATM    3  C4  UNL     1      23.792   1.241  52.335  1.00  0.00     0.017 A 
HETATM    4  C5  UNL     1      22.857   1.659  51.378  1.00  0.00     0.000 A 
HETATM    5  C6  UNL     1      21.695   0.937  51.358  1.00  0.00    -0.024 A 
HETATM    6  C7  UNL     1      21.356  -0.120  52.147  1.00  0.00     0.048 A 
HETATM    7  C8  UNL     1      20.649   1.295  50.417  1.00  0.00    -0.003 C 
HETATM    8  C9  UNL     1      20.068   1.929  49.436  1.00  0.00     0.072 C 
HETATM    9  C10 UNL     1      20.115   2.941  48.392  1.00  0.00     0.011 C 
HETATM   10  C11 UNL     1      20.560   3.918  47.597  1.00  0.00     0.025 C 
HETATM   11  C12 UNL     1      21.796   4.670  47.457  1.00  0.00     0.000 C 
HETATM   12  C13 UNL     1      23.019   4.827  47.933  1.00  0.00     0.000 C 
HETATM   13  C14 UNL     1      23.994   4.332  48.957  1.00  0.00     0.135 C 
HETATM   14  C15 UNL     1      23.793   2.858  49.173  1.00  0.00     0.093 C 
HETATM   15  C16 UNL     1      23.253   2.786  50.542  1.00  0.00     0.068 C 
HETATM   16  N2  UNL     1      23.131   3.946  51.087  1.00  0.00    -0.178 NA
HETATM   17  N3  UNL     1      23.687   4.923  50.217  1.00  0.00    -0.272 N 
ENDROOT
BRANCH  17  18
HETATM   18  C17 UNL     1      23.901   6.307  50.607  1.00  0.00     0.123 C 
HETATM   19  C18 UNL     1      23.977   6.448  52.118  1.00  0.00     0.058 C 
HETATM   20  S1  UNL     1      25.464   6.951  49.944  1.00  0.00    -0.104 SA
HETATM   21  C19 UNL     1      25.108   7.445  48.259  1.00  0.00     0.045 C 
HETATM   22  C20 UNL     1      23.986   8.157  48.147  1.00  0.00    -0.007 C 
HETATM   23  C21 UNL     1      23.215   8.434  49.368  1.00  0.00     0.063 A 
HETATM   24  C22 UNL     1      21.917   9.085  49.089  1.00  0.00    -0.014 A 
HETATM   25  C25 UNL     1      22.835   7.227  50.141  1.00  0.00    -0.029 A 
HETATM   26  C23 UNL     1      20.890   8.419  49.591  1.00  0.00    -0.003 A 
HETATM   27  C24 UNL     1      21.517   7.272  50.236  1.00  0.00     0.007 A 
ENDBRANCH  17  18
BRANCH   9  28
HETATM   28  N1  UNL     1      18.760   2.482  48.157  1.00  0.00    -0.402 N 
HETATM   29  H9  UNL     1      17.907   2.463  47.545  1.00  0.00     0.156 HD
HETATM   30  H10 UNL     1      17.935   1.913  48.495  1.00  0.00     0.156 HD
ENDBRANCH   9  28
BRANCH   1  31
HETATM   31  O1  UNL     1      22.060  -1.570  53.935  1.00  0.00    -0.356 OA
HETATM   32  C1  UNL     1      22.668  -1.550  55.212  1.00  0.00     0.210 C 
ENDBRANCH   1  31
TORSDOF 3
ENDMDL
MODEL 7
REMARK VINA RESULT:      -8.0      2.307      2.909
REMARK  3 active torsions:
REMARK  status: ('A' for Active; 'I' for Inactive)
REMARK    1  A    between atoms: O1_2  and  C2_3 
REMARK    2  A    between atoms: C10_11  and  N1_12 
REMARK    3  A    between atoms: N3_20  and  C17_21 
ROOT
HETATM    1  C2  UNL     1      24.513   0.629  52.656  1.00  0.00     0.069 A 
HETATM    2  C3  UNL     1      23.336   1.277  52.902  1.00  0.00     0.037 A 
HETATM    3  C4  UNL     1      22.986   2.491  52.386  1.00  0.00     0.017 A 
HETATM    4  C5  UNL     1      23.895   3.135  51.535  1.00  0.00     0.000 A 
HETATM    5  C6  UNL     1      25.059   2.450  51.315  1.00  0.00    -0.024 A 
HETATM    6  C7  UNL     1      25.423   1.240  51.823  1.00  0.00     0.048 A 
HETATM    7  C8  UNL     1      26.065   3.016  50.435  1.00  0.00    -0.003 C 
HETATM    8  C9  UNL     1      26.637   3.893  49.656  1.00  0.00     0.072 C 
HETATM    9  C10 UNL     1      26.626   5.195  49.011  1.00  0.00     0.011 C 
HETATM   10  C11 UNL     1      26.237   6.417  48.633  1.00  0.00     0.025 C 
HETATM   11  C12 UNL     1      25.092   7.275  48.891  1.00  0.00     0.000 C 
HETATM   12  C13 UNL     1      23.944   7.371  49.538  1.00  0.00     0.000 C 
HETATM   13  C14 UNL     1      23.013   6.654  50.469  1.00  0.00     0.135 C 
HETATM   14  C15 UNL     1      23.809   5.809  51.425  1.00  0.00     0.093 C 
HETATM   15  C16 UNL     1      23.481   4.433  51.016  1.00  0.00     0.068 C 
HETATM   16  N2  UNL     1      22.663   4.393  50.022  1.00  0.00    -0.178 NA
HETATM   17  N3  UNL     1      22.240   5.717  49.723  1.00  0.00    -0.272 N 
ENDROOT
BRANCH  17  18
HETATM   18  C17 UNL     1      21.163   6.018  48.794  1.00  0.00     0.123 C 
HETATM   19  C18 UNL     1      20.298   4.794  48.539  1.00  0.00     0.058 C 
HETATM   20  S1  UNL     1      20.062   7.308  49.446  1.00  0.00    -0.104 SA
HETATM   21  C19 UNL     1      20.866   8.864  49.072  1.00  0.00     0.045 C 
HETATM   22  C20 UNL     1      21.315   8.934  47.818  1.00  0.00    -0.007 C 
HETATM   23  C21 UNL     1      21.104   7.775  46.940  1.00  0.00     0.063 A 
HETATM   24  C22 UNL     1      21.790   7.913  45.636  1.00  0.00    -0.014 A 
HETATM   25  C25 UNL     1      21.634   6.496  47.472  1.00  0.00    -0.029 A 
HETATM   26  C23 UNL     1      22.610   6.908  45.378  1.00  0.00    -0.003 A 
HETATM   27  C24 UNL     1      22.474   6.054  46.552  1.00  0.00     0.007 A 
ENDBRANCH  17  18
BRANCH   9  28
HETATM   28  N1  UNL     1      27.894   4.729  48.484  1.00  0.00    -0.402 N 
HETATM   29  H9  UNL     1      28.777   4.926  47.952  1.00  0.00     0.156 HD
HETATM   30  H10 UNL     1      28.582   3.933  48.379  1.00  0.00     0.156 HD
ENDBRANCH   9  28
BRANCH   1  31
HETATM   31  O1  UNL     1      24.771  -0.601  53.231  1.00  0.00    -0.356 OA
HETATM   32  C1  UNL     1      26.104  -0.913  53.587  1.00  0.00     0.210 C 
ENDBRANCH   1  31
TORSDOF 3
ENDMDL
MODEL 8
REMARK VINA RESULT:      -8.0      2.239      2.873
REMARK  3 active torsions:
REMARK  status: ('A' for Active; 'I' for Inactive)
REMARK    1  A    between atoms: O1_2  and  C2_3 
REMARK    2  A    between atoms: C10_11  and  N1_12 
REMARK    3  A    between atoms: N3_20  and  C17_21 
ROOT
HETATM    1  C2  UNL     1      22.081  -0.297  54.212  1.00  0.00     0.069 A 
HETATM    2  C3  UNL     1      20.895   0.360  54.043  1.00  0.00     0.037 A 
HETATM    3  C4  UNL     1      20.698   1.420  53.208  1.00  0.00     0.017 A 
HETATM    4  C5  UNL     1      21.788   1.884  52.458  1.00  0.00     0.000 A 
HETATM    5  C6  UNL     1      22.955   1.197  52.657  1.00  0.00    -0.024 A 
HETATM    6  C7  UNL     1      23.167   0.138  53.486  1.00  0.00     0.048 A 
HETATM    7  C8  UNL     1      24.143   1.581  51.918  1.00  0.00    -0.003 C 
HETATM    8  C9  UNL     1      24.895   2.278  51.111  1.00  0.00     0.072 C 
HETATM    9  C10 UNL     1      25.058   3.406  50.208  1.00  0.00     0.011 C 
HETATM   10  C11 UNL     1      24.792   4.503  49.494  1.00  0.00     0.025 C 
HETATM   11  C12 UNL     1      23.641   5.368  49.298  1.00  0.00     0.000 C 
HETATM   12  C13 UNL     1      22.380   5.575  49.637  1.00  0.00     0.000 C 
HETATM   13  C14 UNL     1      21.250   5.058  50.474  1.00  0.00     0.135 C 
HETATM   14  C15 UNL     1      21.794   4.465  51.745  1.00  0.00     0.093 C 
HETATM   15  C16 UNL     1      21.530   3.024  51.587  1.00  0.00     0.068 C 
HETATM   16  N2  UNL     1      20.952   2.746  50.471  1.00  0.00    -0.178 NA
HETATM   17  N3  UNL     1      20.637   3.960  49.802  1.00  0.00    -0.272 N 
ENDROOT
BRANCH  17  18
HETATM   18  C17 UNL     1      19.800   4.022  48.615  1.00  0.00     0.123 C 
HETATM   19  C18 UNL     1      18.940   2.775  48.483  1.00  0.00     0.058 C 
HETATM   20  S1  UNL     1      18.662   5.437  48.676  1.00  0.00    -0.104 SA
HETATM   21  C19 UNL     1      19.614   6.848  48.119  1.00  0.00     0.045 C 
HETATM   22  C20 UNL     1      20.322   6.600  47.015  1.00  0.00    -0.007 C 
HETATM   23  C21 UNL     1      20.235   5.259  46.422  1.00  0.00     0.063 A 
HETATM   24  C22 UNL     1      21.187   5.064  45.307  1.00  0.00    -0.014 A 
HETATM   25  C25 UNL     1      20.566   4.153  47.353  1.00  0.00    -0.029 A 
HETATM   26  C23 UNL     1      21.985   4.024  45.487  1.00  0.00    -0.003 A 
HETATM   27  C24 UNL     1      21.555   3.492  46.775  1.00  0.00     0.007 A 
ENDBRANCH  17  18
BRANCH   9  28
HETATM   28  N1  UNL     1      26.399   2.867  50.090  1.00  0.00    -0.402 N 
HETATM   29  H9  UNL     1      27.429   2.963  50.267  1.00  0.00     0.156 HD
HETATM   30  H10 UNL     1      27.022   2.078  49.762  1.00  0.00     0.156 HD
ENDBRANCH   9  28
BRANCH   1  31
HETATM   31  O1  UNL     1      22.175  -1.363  55.086  1.00  0.00    -0.356 OA
HETATM   32  C1  UNL     1      23.400  -1.575  55.762  1.00  0.00     0.210 C 
ENDBRANCH   1  31
TORSDOF 3
ENDMDL
MODEL 9
REMARK VINA RESULT:      -7.9      8.242     12.137
REMARK  3 active torsions:
REMARK  status: ('A' for Active; 'I' for Inactive)
REMARK    1  A    between atoms: O1_2  and  C2_3 
REMARK    2  A    between atoms: C10_11  and  N1_12 
REMARK    3  A    between atoms: N3_20  and  C17_21 
ROOT
HETATM    1  C2  UNL     1      28.807  12.946  48.302  1.00  0.00     0.069 A 
HETATM    2  C3  UNL     1      30.140  12.935  48.596  1.00  0.00     0.037 A 
HETATM    3  C4  UNL     1      30.904  11.812  48.735  1.00  0.00     0.017 A 
HETATM    4  C5  UNL     1      30.285  10.566  48.566  1.00  0.00     0.000 A 
HETATM    5  C6  UNL     1      28.950  10.624  48.271  1.00  0.00    -0.024 A 
HETATM    6  C7  UNL     1      28.175  11.735  48.129  1.00  0.00     0.048 A 
HETATM    7  C8  UNL     1      28.213   9.392  48.057  1.00  0.00    -0.003 C 
HETATM    8  C9  UNL     1      27.993   8.107  47.997  1.00  0.00     0.072 C 
HETATM    9  C10 UNL     1      28.473   6.743  48.149  1.00  0.00     0.011 C 
HETATM   10  C11 UNL     1      29.277   5.705  48.398  1.00  0.00     0.025 C 
HETATM   11  C12 UNL     1      30.656   5.530  48.819  1.00  0.00     0.000 C 
HETATM   12  C13 UNL     1      31.766   6.163  49.160  1.00  0.00     0.000 C 
HETATM   13  C14 UNL     1      32.379   7.517  49.352  1.00  0.00     0.135 C 
HETATM   14  C15 UNL     1      31.337   8.473  49.864  1.00  0.00     0.093 C 
HETATM   15  C16 UNL     1      31.139   9.397  48.733  1.00  0.00     0.068 C 
HETATM   16  N2  UNL     1      31.879   9.105  47.721  1.00  0.00    -0.178 NA
HETATM   17  N3  UNL     1      32.753   8.043  48.081  1.00  0.00    -0.272 N 
ENDROOT
BRANCH  17  18
HETATM   18  C17 UNL     1      33.859   7.603  47.247  1.00  0.00     0.123 C 
HETATM   19  C18 UNL     1      34.193   8.639  46.186  1.00  0.00     0.058 C 
HETATM   20  S1  UNL     1      35.370   7.350  48.223  1.00  0.00    -0.104 SA
HETATM   21  C19 UNL     1      35.215   5.715  48.938  1.00  0.00     0.045 C 
HETATM   22  C20 UNL     1      34.820   4.794  48.058  1.00  0.00    -0.007 C 
HETATM   23  C21 UNL     1      34.571   5.217  46.673  1.00  0.00     0.063 A 
HETATM   24  C22 UNL     1      33.983   4.143  45.844  1.00  0.00    -0.014 A 
HETATM   25  C25 UNL     1      33.598   6.328  46.537  1.00  0.00    -0.029 A 
HETATM   26  C23 UNL     1      32.841   4.498  45.278  1.00  0.00    -0.003 A 
HETATM   27  C24 UNL     1      32.648   5.867  45.741  1.00  0.00     0.007 A 
ENDBRANCH  17  18
BRANCH   9  28
HETATM   28  N1  UNL     1      27.118   6.428  47.738  1.00  0.00    -0.402 N 
HETATM   29  H9  UNL     1      26.460   5.823  47.188  1.00  0.00     0.156 HD
HETATM   30  H10 UNL     1      26.088   6.656  47.797  1.00  0.00     0.156 HD
ENDBRANCH   9  28
BRANCH   1  31
HETATM   31  O1  UNL     1      28.123  14.141  48.183  1.00  0.00    -0.356 OA
HETATM   32  C1  UNL     1      26.709  14.110  48.162  1.00  0.00     0.210 C 
ENDBRANCH   1  31
TORSDOF 3
ENDMDL
