MODEL 1
REMARK VINA RESULT:      -9.2      0.000      0.000
REMARK  0 active torsions:
REMARK  status: ('A' for Active; 'I' for Inactive)
ROOT
HETATM    1  C1  UNL     1      22.665  -0.293  53.927  1.00  0.00    -0.000 C 
HETATM    2  C2  UNL     1      21.531  -0.529  54.665  1.00  0.00    -0.000 C 
HETATM    3  C3  UNL     1      20.994   0.533  53.828  1.00  0.00    -0.002 C 
HETATM    4  C4  UNL     1      21.383   1.310  52.861  1.00  0.00     0.003 C 
HETATM    5  C5  UNL     1      22.151   1.980  51.833  1.00  0.00     0.302 C 
HETATM    6  N1  UNL     1      22.299   3.414  52.009  1.00  0.00     0.114 N 
HETATM    7  C6  UNL     1      21.898   4.177  50.848  1.00  0.00     0.305 C 
HETATM    8  C7  UNL     1      21.969   5.637  51.210  1.00  0.00     0.299 C 
HETATM    9  N2  UNL     1      23.165   6.044  51.872  1.00  0.00     0.088 N 
HETATM   10  C8  UNL     1      23.682   5.136  52.852  1.00  0.00     0.322 C 
HETATM   11  C9  UNL     1      23.695   3.735  52.268  1.00  0.00     0.342 C 
HETATM   12  N3  UNL     1      24.377   2.773  53.087  1.00  0.00    -0.206 NA
HETATM   13  N4  UNL     1      25.698   2.615  52.592  1.00  0.00    -0.319 N 
HETATM   14  C10 UNL     1      26.792   1.856  53.018  1.00  0.00     0.049 A 
HETATM   15  C11 UNL     1      27.870   2.647  53.447  1.00  0.00     0.031 A 
HETATM   16  C12 UNL     1      29.075   2.119  53.928  1.00  0.00     0.002 A 
HETATM   17  C13 UNL     1      29.209   0.750  53.981  1.00  0.00     0.001 A 
HETATM   18  C14 UNL     1      28.148  -0.002  53.559  1.00  0.00     0.010 A 
HETATM   19  C15 UNL     1      26.956   0.465  53.084  1.00  0.00    -0.027 A 
HETATM   20  C16 UNL     1      25.869  -0.430  52.653  1.00  0.00     0.068 C 
HETATM   21  C17 UNL     1      25.340  -1.286  53.751  1.00  0.00    -0.022 C 
HETATM   22  C18 UNL     1      24.027  -0.990  54.031  1.00  0.00    -0.004 C 
HETATM   23  H11 UNL     1      23.877   6.282  51.158  1.00  0.00     0.316 HD
HETATM   24  H15 UNL     1      24.489   3.200  54.055  1.00  0.00     0.149 HD
HETATM   25  H16 UNL     1      26.008   3.148  51.726  1.00  0.00     0.181 HD
ENDROOT
TORSDOF 0
ENDMDL
MODEL 2
REMARK VINA RESULT:      -8.9      2.168      5.739
REMARK  0 active torsions:
REMARK  status: ('A' for Active; 'I' for Inactive)
ROOT
HETATM    1  C1  UNL     1      24.748  -0.307  53.251  1.00  0.00    -0.000 C 
HETATM    2  C2  UNL     1      25.984  -0.878  53.070  1.00  0.00    -0.000 C 
HETATM    3  C3  UNL     1      26.276   0.406  52.452  1.00  0.00    -0.002 C 
HETATM    4  C4  UNL     1      25.678   1.534  52.202  1.00  0.00     0.003 C 
HETATM    5  C5  UNL     1      24.712   2.606  52.098  1.00  0.00     0.302 C 
HETATM    6  N1  UNL     1      24.406   3.033  50.745  1.00  0.00     0.114 N 
HETATM    7  C6  UNL     1      24.563   4.457  50.545  1.00  0.00     0.305 C 
HETATM    8  C7  UNL     1      24.353   4.741  49.081  1.00  0.00     0.299 C 
HETATM    9  N2  UNL     1      23.204   4.128  48.499  1.00  0.00     0.088 N 
HETATM   10  C8  UNL     1      22.930   2.785  48.916  1.00  0.00     0.322 C 
HETATM   11  C9  UNL     1      23.022   2.709  50.428  1.00  0.00     0.342 C 
HETATM   12  N3  UNL     1      22.573   1.460  50.974  1.00  0.00    -0.206 NA
HETATM   13  N4  UNL     1      21.232   1.616  51.414  1.00  0.00    -0.319 N 
HETATM   14  C10 UNL     1      20.303   0.734  51.974  1.00  0.00     0.049 A 
HETATM   15  C11 UNL     1      19.194   0.510  51.142  1.00  0.00     0.031 A 
HETATM   16  C12 UNL     1      18.133  -0.340  51.479  1.00  0.00     0.002 A 
HETATM   17  C13 UNL     1      18.181  -0.989  52.691  1.00  0.00     0.001 A 
HETATM   18  C14 UNL     1      19.268  -0.759  53.486  1.00  0.00     0.010 A 
HETATM   19  C15 UNL     1      20.326   0.059  53.202  1.00  0.00    -0.027 A 
HETATM   20  C16 UNL     1      21.457   0.242  54.127  1.00  0.00     0.068 C 
HETATM   21  C17 UNL     1      22.218  -1.012  54.382  1.00  0.00    -0.022 C 
HETATM   22  C18 UNL     1      23.508  -0.919  53.913  1.00  0.00    -0.004 C 
HETATM   23  H11 UNL     1      22.386   4.748  48.642  1.00  0.00     0.316 HD
HETATM   24  H15 UNL     1      22.526   0.760  50.174  1.00  0.00     0.149 HD
HETATM   25  H16 UNL     1      20.754   2.562  51.334  1.00  0.00     0.181 HD
ENDROOT
TORSDOF 0
ENDMDL
MODEL 3
REMARK VINA RESULT:      -8.7      2.341      5.196
REMARK  0 active torsions:
REMARK  status: ('A' for Active; 'I' for Inactive)
ROOT
HETATM    1  C1  UNL     1      26.415   3.802  50.129  1.00  0.00    -0.000 C 
HETATM    2  C2  UNL     1      27.148   4.125  49.013  1.00  0.00    -0.000 C 
HETATM    3  C3  UNL     1      26.295   5.303  49.027  1.00  0.00    -0.002 C 
HETATM    4  C4  UNL     1      25.330   5.807  49.739  1.00  0.00     0.003 C 
HETATM    5  C5  UNL     1      24.311   6.042  50.739  1.00  0.00     0.302 C 
HETATM    6  N1  UNL     1      22.959   6.168  50.226  1.00  0.00     0.114 N 
HETATM    7  C6  UNL     1      22.293   7.376  50.660  1.00  0.00     0.305 C 
HETATM    8  C7  UNL     1      20.966   7.449  49.951  1.00  0.00     0.299 C 
HETATM    9  N2  UNL     1      20.200   6.246  49.964  1.00  0.00     0.088 N 
HETATM   10  C8  UNL     1      20.936   5.030  49.779  1.00  0.00     0.322 C 
HETATM   11  C9  UNL     1      22.152   5.047  50.686  1.00  0.00     0.342 C 
HETATM   12  N3  UNL     1      22.856   3.797  50.734  1.00  0.00    -0.206 NA
HETATM   13  N4  UNL     1      22.437   3.088  51.891  1.00  0.00    -0.319 N 
HETATM   14  C10 UNL     1      22.755   1.826  52.402  1.00  0.00     0.049 A 
HETATM   15  C11 UNL     1      21.657   0.949  52.407  1.00  0.00     0.031 A 
HETATM   16  C12 UNL     1      21.726  -0.374  52.864  1.00  0.00     0.002 A 
HETATM   17  C13 UNL     1      22.934  -0.837  53.334  1.00  0.00     0.001 A 
HETATM   18  C14 UNL     1      23.989   0.032  53.321  1.00  0.00     0.010 A 
HETATM   19  C15 UNL     1      23.972   1.327  52.886  1.00  0.00    -0.027 A 
HETATM   20  C16 UNL     1      25.167   2.187  52.910  1.00  0.00     0.068 C 
HETATM   21  C17 UNL     1      26.271   1.686  52.046  1.00  0.00    -0.022 C 
HETATM   22  C18 UNL     1      26.538   2.557  51.016  1.00  0.00    -0.004 C 
HETATM   23  H11 UNL     1      19.631   6.222  50.830  1.00  0.00     0.316 HD
HETATM   24  H15 UNL     1      22.523   3.212  49.910  1.00  0.00     0.149 HD
HETATM   25  H16 UNL     1      21.738   3.528  52.559  1.00  0.00     0.181 HD
ENDROOT
TORSDOF 0
ENDMDL
MODEL 4
REMARK VINA RESULT:      -7.8      2.229      2.936
REMARK  0 active torsions:
REMARK  status: ('A' for Active; 'I' for Inactive)
ROOT
HETATM    1  C1  UNL     1      20.248  -0.041  52.512  1.00  0.00    -0.000 C 
HETATM    2  C2  UNL     1      18.914   0.221  52.706  1.00  0.00    -0.000 C 
HETATM    3  C3  UNL     1      19.017   0.754  51.356  1.00  0.00    -0.002 C 
HETATM    4  C4  UNL     1      19.914   0.902  50.426  1.00  0.00     0.003 C 
HETATM    5  C5  UNL     1      21.141   0.897  49.659  1.00  0.00     0.302 C 
HETATM    6  N1  UNL     1      21.621   2.205  49.253  1.00  0.00     0.114 N 
HETATM    7  C6  UNL     1      21.871   2.307  47.832  1.00  0.00     0.305 C 
HETATM    8  C7  UNL     1      22.226   3.739  47.529  1.00  0.00     0.299 C 
HETATM    9  N2  UNL     1      23.190   4.326  48.401  1.00  0.00     0.088 N 
HETATM   10  C8  UNL     1      23.064   3.999  49.790  1.00  0.00     0.322 C 
HETATM   11  C9  UNL     1      22.877   2.499  49.929  1.00  0.00     0.342 C 
HETATM   12  N3  UNL     1      22.937   2.031  51.284  1.00  0.00    -0.206 NA
HETATM   13  N4  UNL     1      24.246   1.538  51.533  1.00  0.00    -0.319 N 
HETATM   14  C10 UNL     1      24.867   1.013  52.669  1.00  0.00     0.049 A 
HETATM   15  C11 UNL     1      25.913   1.823  53.142  1.00  0.00     0.031 A 
HETATM   16  C12 UNL     1      26.681   1.513  54.271  1.00  0.00     0.002 A 
HETATM   17  C13 UNL     1      26.395   0.353  54.954  1.00  0.00     0.001 A 
HETATM   18  C14 UNL     1      25.373  -0.420  54.479  1.00  0.00     0.010 A 
HETATM   19  C15 UNL     1      24.597  -0.162  53.385  1.00  0.00    -0.027 A 
HETATM   20  C16 UNL     1      23.514  -1.060  52.951  1.00  0.00     0.068 C 
HETATM   21  C17 UNL     1      22.425  -1.199  53.958  1.00  0.00    -0.022 C 
HETATM   22  C18 UNL     1      21.236  -0.697  53.483  1.00  0.00    -0.004 C 
HETATM   23  H11 UNL     1      24.139   4.113  48.042  1.00  0.00     0.316 HD
HETATM   24  H15 UNL     1      22.831   2.878  51.919  1.00  0.00     0.149 HD
HETATM   25  H16 UNL     1      24.968   1.534  50.753  1.00  0.00     0.181 HD
ENDROOT
TORSDOF 0
ENDMDL
MODEL 5
REMARK VINA RESULT:      -7.6      2.567      4.669
REMARK  0 active torsions:
REMARK  status: ('A' for Active; 'I' for Inactive)
ROOT
HETATM    1  C1  UNL     1      25.159   0.929  52.626  1.00  0.00    -0.000 C 
HETATM    2  C2  UNL     1      25.291   0.274  53.827  1.00  0.00    -0.000 C 
HETATM    3  C3  UNL     1      23.892  -0.045  53.590  1.00  0.00    -0.002 C 
HETATM    4  C4  UNL     1      22.975   0.169  52.693  1.00  0.00     0.003 C 
HETATM    5  C5  UNL     1      22.245   0.602  51.521  1.00  0.00     0.302 C 
HETATM    6  N1  UNL     1      21.085   1.434  51.787  1.00  0.00     0.114 N 
HETATM    7  C6  UNL     1      19.875   0.941  51.167  1.00  0.00     0.305 C 
HETATM    8  C7  UNL     1      18.735   1.807  51.634  1.00  0.00     0.299 C 
HETATM    9  N2  UNL     1      18.970   3.212  51.570  1.00  0.00     0.088 N 
HETATM   10  C8  UNL     1      20.279   3.649  51.958  1.00  0.00     0.322 C 
HETATM   11  C9  UNL     1      21.313   2.776  51.271  1.00  0.00     0.342 C 
HETATM   12  N3  UNL     1      22.661   3.243  51.427  1.00  0.00    -0.206 NA
HETATM   13  N4  UNL     1      23.021   3.977  50.265  1.00  0.00    -0.319 N 
HETATM   14  C10 UNL     1      24.173   4.679  49.900  1.00  0.00     0.049 A 
HETATM   15  C11 UNL     1      23.950   6.060  49.766  1.00  0.00     0.031 A 
HETATM   16  C12 UNL     1      24.951   6.975  49.416  1.00  0.00     0.002 A 
HETATM   17  C13 UNL     1      26.220   6.494  49.190  1.00  0.00     0.001 A 
HETATM   18  C14 UNL     1      26.417   5.148  49.325  1.00  0.00     0.010 A 
HETATM   19  C15 UNL     1      25.475   4.218  49.664  1.00  0.00    -0.027 A 
HETATM   20  C16 UNL     1      25.786   2.784  49.786  1.00  0.00     0.068 C 
HETATM   21  C17 UNL     1      26.777   2.485  50.857  1.00  0.00    -0.022 C 
HETATM   22  C18 UNL     1      26.221   1.722  51.857  1.00  0.00    -0.004 C 
HETATM   23  H11 UNL     1      18.718   3.551  50.624  1.00  0.00     0.316 HD
HETATM   24  H15 UNL     1      22.663   3.953  52.219  1.00  0.00     0.149 HD
HETATM   25  H16 UNL     1      22.332   4.066  49.460  1.00  0.00     0.181 HD
ENDROOT
TORSDOF 0
ENDMDL
MODEL 6
REMARK VINA RESULT:      -7.6      2.929      7.469
REMARK  0 active torsions:
REMARK  status: ('A' for Active; 'I' for Inactive)
ROOT
HETATM    1  C1  UNL     1      22.163   3.711  51.683  1.00  0.00    -0.000 C 
HETATM    2  C2  UNL     1      22.703   4.864  52.197  1.00  0.00    -0.000 C 
HETATM    3  C3  UNL     1      23.657   3.932  52.778  1.00  0.00    -0.002 C 
HETATM    4  C4  UNL     1      23.892   2.653  52.798  1.00  0.00     0.003 C 
HETATM    5  C5  UNL     1      23.837   1.222  52.590  1.00  0.00     0.302 C 
HETATM    6  N1  UNL     1      23.684   0.429  53.796  1.00  0.00     0.114 N 
HETATM    7  C6  UNL     1      24.686  -0.605  53.931  1.00  0.00     0.305 C 
HETATM    8  C7  UNL     1      24.499  -1.254  55.277  1.00  0.00     0.299 C 
HETATM    9  N2  UNL     1      23.156  -1.607  55.603  1.00  0.00     0.088 N 
HETATM   10  C8  UNL     1      22.148  -0.661  55.225  1.00  0.00     0.322 C 
HETATM   11  C9  UNL     1      22.387  -0.233  53.789  1.00  0.00     0.342 C 
HETATM   12  N3  UNL     1      21.327   0.561  53.237  1.00  0.00    -0.206 NA
HETATM   13  N4  UNL     1      20.479  -0.286  52.475  1.00  0.00    -0.319 N 
HETATM   14  C10 UNL     1      19.294  -0.062  51.767  1.00  0.00     0.049 A 
HETATM   15  C11 UNL     1      18.194  -0.740  52.318  1.00  0.00     0.031 A 
HETATM   16  C12 UNL     1      16.898  -0.668  51.792  1.00  0.00     0.002 A 
HETATM   17  C13 UNL     1      16.693   0.110  50.675  1.00  0.00     0.001 A 
HETATM   18  C14 UNL     1      17.775   0.761  50.154  1.00  0.00     0.010 A 
HETATM   19  C15 UNL     1      19.056   0.723  50.630  1.00  0.00    -0.027 A 
HETATM   20  C16 UNL     1      20.159   1.464  49.998  1.00  0.00     0.068 C 
HETATM   21  C17 UNL     1      19.967   2.941  50.022  1.00  0.00    -0.022 C 
HETATM   22  C18 UNL     1      20.931   3.560  50.782  1.00  0.00    -0.004 C 
HETATM   23  H11 UNL     1      22.957  -2.551  55.224  1.00  0.00     0.316 HD
HETATM   24  H15 UNL     1      20.728   0.902  54.047  1.00  0.00     0.149 HD
HETATM   25  H16 UNL     1      20.713  -1.318  52.372  1.00  0.00     0.181 HD
ENDROOT
TORSDOF 0
ENDMDL
MODEL 7
REMARK VINA RESULT:      -7.6      1.928      5.865
REMARK  0 active torsions:
REMARK  status: ('A' for Active; 'I' for Inactive)
ROOT
HETATM    1  C1  UNL     1      21.011   1.853  51.165  1.00  0.00    -0.000 C 
HETATM    2  C2  UNL     1      20.477   0.698  50.648  1.00  0.00    -0.000 C 
HETATM    3  C3  UNL     1      21.522   0.080  51.449  1.00  0.00    -0.002 C 
HETATM    4  C4  UNL     1      22.477   0.435  52.258  1.00  0.00     0.003 C 
HETATM    5  C5  UNL     1      23.404   1.187  53.075  1.00  0.00     0.302 C 
HETATM    6  N1  UNL     1      24.805   1.018  52.734  1.00  0.00     0.114 N 
HETATM    7  C6  UNL     1      25.626   0.637  53.862  1.00  0.00     0.305 C 
HETATM    8  C7  UNL     1      27.014   0.361  53.347  1.00  0.00     0.299 C 
HETATM    9  N2  UNL     1      27.545   1.347  52.464  1.00  0.00     0.088 N 
HETATM   10  C8  UNL     1      26.627   1.894  51.509  1.00  0.00     0.322 C 
HETATM   11  C9  UNL     1      25.341   2.271  52.221  1.00  0.00     0.342 C 
HETATM   12  N3  UNL     1      24.422   3.011  51.404  1.00  0.00    -0.206 NA
HETATM   13  N4  UNL     1      24.576   4.394  51.692  1.00  0.00    -0.319 N 
HETATM   14  C10 UNL     1      23.982   5.548  51.173  1.00  0.00     0.049 A 
HETATM   15  C11 UNL     1      24.895   6.374  50.497  1.00  0.00     0.031 A 
HETATM   16  C12 UNL     1      24.539   7.582  49.884  1.00  0.00     0.002 A 
HETATM   17  C13 UNL     1      23.223   7.980  49.948  1.00  0.00     0.001 A 
HETATM   18  C14 UNL     1      22.350   7.162  50.609  1.00  0.00     0.010 A 
HETATM   19  C15 UNL     1      22.648   5.977  51.221  1.00  0.00    -0.027 A 
HETATM   20  C16 UNL     1      21.633   5.164  51.910  1.00  0.00     0.068 C 
HETATM   21  C17 UNL     1      20.558   4.671  51.004  1.00  0.00    -0.022 C 
HETATM   22  C18 UNL     1      20.569   3.299  50.912  1.00  0.00    -0.004 C 
HETATM   23  H11 UNL     1      28.001   2.088  53.025  1.00  0.00     0.316 HD
HETATM   24  H15 UNL     1      24.733   2.900  50.393  1.00  0.00     0.149 HD
HETATM   25  H16 UNL     1      25.265   4.707  52.438  1.00  0.00     0.181 HD
ENDROOT
TORSDOF 0
ENDMDL
MODEL 8
REMARK VINA RESULT:      -7.4      3.541      5.219
REMARK  0 active torsions:
REMARK  status: ('A' for Active; 'I' for Inactive)
ROOT
HETATM    1  C1  UNL     1      19.090  -0.793  52.981  1.00  0.00    -0.000 C 
HETATM    2  C2  UNL     1      18.131  -1.463  53.701  1.00  0.00    -0.000 C 
HETATM    3  C3  UNL     1      17.255  -0.927  52.671  1.00  0.00    -0.002 C 
HETATM    4  C4  UNL     1      17.334  -0.193  51.600  1.00  0.00     0.003 C 
HETATM    5  C5  UNL     1      17.801   0.629  50.505  1.00  0.00     0.302 C 
HETATM    6  N1  UNL     1      17.216   1.957  50.436  1.00  0.00     0.114 N 
HETATM    7  C6  UNL     1      16.641   2.261  49.144  1.00  0.00     0.305 C 
HETATM    8  C7  UNL     1      15.953   3.596  49.251  1.00  0.00     0.299 C 
HETATM    9  N2  UNL     1      16.713   4.626  49.880  1.00  0.00     0.088 N 
HETATM   10  C8  UNL     1      17.481   4.230  51.024  1.00  0.00     0.322 C 
HETATM   11  C9  UNL     1      18.240   2.959  50.693  1.00  0.00     0.342 C 
HETATM   12  N3  UNL     1      19.196   2.578  51.693  1.00  0.00    -0.206 NA
HETATM   13  N4  UNL     1      20.479   3.033  51.288  1.00  0.00    -0.319 N 
HETATM   14  C10 UNL     1      21.742   2.980  51.885  1.00  0.00     0.049 A 
HETATM   15  C11 UNL     1      22.242   4.251  52.215  1.00  0.00     0.031 A 
HETATM   16  C12 UNL     1      23.484   4.458  52.829  1.00  0.00     0.002 A 
HETATM   17  C13 UNL     1      24.254   3.356  53.124  1.00  0.00     0.001 A 
HETATM   18  C14 UNL     1      23.749   2.129  52.796  1.00  0.00     0.010 A 
HETATM   19  C15 UNL     1      22.547   1.876  52.198  1.00  0.00    -0.027 A 
HETATM   20  C16 UNL     1      22.089   0.513  51.884  1.00  0.00     0.068 C 
HETATM   21  C17 UNL     1      21.911  -0.341  53.091  1.00  0.00    -0.022 C 
HETATM   22  C18 UNL     1      20.595  -0.703  53.260  1.00  0.00    -0.004 C 
HETATM   23  H11 UNL     1      17.302   5.091  49.166  1.00  0.00     0.316 HD
HETATM   24  H15 UNL     1      18.969   3.126  52.576  1.00  0.00     0.149 HD
HETATM   25  H16 UNL     1      20.595   3.532  50.357  1.00  0.00     0.181 HD
ENDROOT
TORSDOF 0
ENDMDL
MODEL 9
REMARK VINA RESULT:      -7.3      3.049      5.469
REMARK  0 active torsions:
REMARK  status: ('A' for Active; 'I' for Inactive)
ROOT
HETATM    1  C1  UNL     1      22.263   2.861  48.772  1.00  0.00    -0.000 C 
HETATM    2  C2  UNL     1      22.072   2.861  47.412  1.00  0.00    -0.000 C 
HETATM    3  C3  UNL     1      20.672   2.924  47.800  1.00  0.00    -0.002 C 
HETATM    4  C4  UNL     1      19.955   2.967  48.884  1.00  0.00     0.003 C 
HETATM    5  C5  UNL     1      19.509   3.002  50.260  1.00  0.00     0.302 C 
HETATM    6  N1  UNL     1      18.646   1.904  50.658  1.00  0.00     0.114 N 
HETATM    7  C6  UNL     1      17.406   2.341  51.260  1.00  0.00     0.305 C 
HETATM    8  C7  UNL     1      16.554   1.122  51.494  1.00  0.00     0.299 C 
HETATM    9  N2  UNL     1      17.220   0.021  52.110  1.00  0.00     0.088 N 
HETATM   10  C8  UNL     1      18.558  -0.233  51.663  1.00  0.00     0.322 C 
HETATM   11  C9  UNL     1      19.327   1.074  51.641  1.00  0.00     0.342 C 
HETATM   12  N3  UNL     1      20.733   0.915  51.401  1.00  0.00    -0.206 NA
HETATM   13  N4  UNL     1      21.410   0.942  52.649  1.00  0.00    -0.319 N 
HETATM   14  C10 UNL     1      22.753   0.791  53.009  1.00  0.00     0.049 A 
HETATM   15  C11 UNL     1      22.984  -0.360  53.780  1.00  0.00     0.031 A 
HETATM   16  C12 UNL     1      24.248  -0.732  54.254  1.00  0.00     0.002 A 
HETATM   17  C13 UNL     1      25.320   0.075  53.949  1.00  0.00     0.001 A 
HETATM   18  C14 UNL     1      25.074   1.190  53.199  1.00  0.00     0.010 A 
HETATM   19  C15 UNL     1      23.863   1.595  52.713  1.00  0.00    -0.027 A 
HETATM   20  C16 UNL     1      23.699   2.817  51.909  1.00  0.00     0.068 C 
HETATM   21  C17 UNL     1      24.443   2.778  50.620  1.00  0.00    -0.022 C 
HETATM   22  C18 UNL     1      23.587   2.809  49.544  1.00  0.00    -0.004 C 
HETATM   23  H11 UNL     1      17.175   0.136  53.139  1.00  0.00     0.316 HD
HETATM   24  H15 UNL     1      20.883  -0.068  51.022  1.00  0.00     0.149 HD
HETATM   25  H16 UNL     1      20.862   1.098  53.546  1.00  0.00     0.181 HD
ENDROOT
TORSDOF 0
ENDMDL
