MODEL 1
REMARK VINA RESULT:      -8.3      0.000      0.000
REMARK  2 active torsions:
REMARK  status: ('A' for Active; 'I' for Inactive)
REMARK    1  A    between atoms: C13_17  and  C14_18 
REMARK    2  A    between atoms: C14_18  and  S1_19 
ROOT
HETATM    1  O1  UNL     1      21.634   4.852  51.979  1.00  0.00    -0.289 OA
HETATM    2  C1  UNL     1      21.638   3.574  51.852  1.00  0.00     0.199 C 
HETATM    3  C2  UNL     1      20.465   2.842  52.204  1.00  0.00     0.092 C 
HETATM    4  C3  UNL     1      20.484   1.573  52.910  1.00  0.00     0.002 C 
HETATM    5  C4  UNL     1      20.770   0.417  53.558  1.00  0.00    -0.004 C 
HETATM    6  C5  UNL     1      21.934  -0.407  54.045  1.00  0.00    -0.014 C 
HETATM    7  C6  UNL     1      23.204  -0.844  54.321  1.00  0.00     0.044 C 
HETATM    8  C7  UNL     1      24.644  -0.558  54.209  1.00  0.00    -0.024 C 
HETATM    9  C8  UNL     1      25.683   0.162  53.853  1.00  0.00    -0.012 C 
HETATM   10  C9  UNL     1      26.092   1.412  53.201  1.00  0.00     0.047 C 
HETATM   11  C10 UNL     1      25.331   2.567  53.727  1.00  0.00     0.013 C 
HETATM   12  C11 UNL     1      24.240   2.525  53.050  1.00  0.00     0.138 C 
HETATM   13  N1  UNL     1      24.104   1.443  52.050  1.00  0.00    -0.161 NA
HETATM   14  N2  UNL     1      23.349   1.753  51.032  1.00  0.00    -0.127 NA
HETATM   15  C12 UNL     1      22.936   3.134  51.346  1.00  0.00     0.217 C 
HETATM   16  N3  UNL     1      23.971   3.858  51.129  1.00  0.00    -0.229 NA
HETATM   17  C13 UNL     1      25.249   3.627  50.668  1.00  0.00     0.044 C 
HETATM   18  C15 UNL     1      26.153   2.687  50.975  1.00  0.00     0.034 C 
HETATM   19  C16 UNL     1      26.372   1.523  51.805  1.00  0.00     0.164 C 
HETATM   20  O2  UNL     1      27.761   1.393  52.100  1.00  0.00    -0.379 OA
HETATM   21  C17 UNL     1      27.567   1.689  53.432  1.00  0.00     0.189 C 
ENDROOT
BRANCH  17  22
HETATM   22  C14 UNL     1      25.472   4.722  49.683  1.00  0.00     0.129 C 
BRANCH  22  23
HETATM   23  S1  UNL     1      27.127   4.698  48.964  1.00  0.00    -0.176 SA
HETATM   24  H13 UNL     1      27.127   5.412  47.740  1.00  0.00     0.102 HD
ENDBRANCH  22  23
ENDBRANCH  17  22
TORSDOF 2
ENDMDL
MODEL 2
REMARK VINA RESULT:      -8.1      1.783      4.653
REMARK  2 active torsions:
REMARK  status: ('A' for Active; 'I' for Inactive)
REMARK    1  A    between atoms: C13_17  and  C14_18 
REMARK    2  A    between atoms: C14_18  and  S1_19 
ROOT
HETATM    1  O1  UNL     1      25.862   3.180  49.508  1.00  0.00    -0.289 OA
HETATM    2  C1  UNL     1      25.716   2.832  50.735  1.00  0.00     0.199 C 
HETATM    3  C2  UNL     1      26.677   1.958  51.324  1.00  0.00     0.092 C 
HETATM    4  C3  UNL     1      26.338   0.870  52.225  1.00  0.00     0.002 C 
HETATM    5  C4  UNL     1      25.768  -0.059  53.031  1.00  0.00    -0.004 C 
HETATM    6  C5  UNL     1      24.427  -0.504  53.556  1.00  0.00    -0.014 C 
HETATM    7  C6  UNL     1      23.081  -0.594  53.800  1.00  0.00     0.044 C 
HETATM    8  C7  UNL     1      21.750  -0.030  53.519  1.00  0.00    -0.024 C 
HETATM    9  C8  UNL     1      20.917   0.809  52.947  1.00  0.00    -0.012 C 
HETATM   10  C9  UNL     1      20.828   1.949  52.026  1.00  0.00     0.047 C 
HETATM   11  C10 UNL     1      21.606   1.705  50.792  1.00  0.00     0.013 C 
HETATM   12  C11 UNL     1      22.801   2.026  51.135  1.00  0.00     0.138 C 
HETATM   13  N1  UNL     1      23.003   2.499  52.523  1.00  0.00    -0.161 NA
HETATM   14  N2  UNL     1      23.994   3.337  52.658  1.00  0.00    -0.127 NA
HETATM   15  C12 UNL     1      24.510   3.452  51.281  1.00  0.00     0.217 C 
HETATM   16  N3  UNL     1      23.652   4.166  50.653  1.00  0.00    -0.229 NA
HETATM   17  C13 UNL     1      22.484   4.816  50.989  1.00  0.00     0.044 C 
HETATM   18  C15 UNL     1      21.418   4.425  51.701  1.00  0.00     0.034 C 
HETATM   19  C16 UNL     1      20.872   3.313  52.448  1.00  0.00     0.164 C 
HETATM   20  O2  UNL     1      19.448   3.348  52.397  1.00  0.00    -0.379 OA
HETATM   21  C17 UNL     1      19.388   2.210  51.621  1.00  0.00     0.189 C 
ENDROOT
BRANCH  17  22
HETATM   22  C14 UNL     1      22.625   6.152  50.347  1.00  0.00     0.129 C 
BRANCH  22  23
HETATM   23  S1  UNL     1      24.047   7.081  50.956  1.00  0.00    -0.176 SA
HETATM   24  H13 UNL     1      24.084   8.357  50.341  1.00  0.00     0.102 HD
ENDBRANCH  22  23
ENDBRANCH  17  22
TORSDOF 2
ENDMDL
MODEL 3
REMARK VINA RESULT:      -7.8      2.704      4.948
REMARK  2 active torsions:
REMARK  status: ('A' for Active; 'I' for Inactive)
REMARK    1  A    between atoms: C13_17  and  C14_18 
REMARK    2  A    between atoms: C14_18  and  S1_19 
ROOT
HETATM    1  O1  UNL     1      23.571   3.700  48.778  1.00  0.00    -0.289 OA
HETATM    2  C1  UNL     1      24.145   3.538  49.915  1.00  0.00     0.199 C 
HETATM    3  C2  UNL     1      25.570   3.518  49.972  1.00  0.00     0.092 C 
HETATM    4  C3  UNL     1      26.335   2.605  50.804  1.00  0.00     0.002 C 
HETATM    5  C4  UNL     1      26.806   1.665  51.660  1.00  0.00    -0.004 C 
HETATM    6  C5  UNL     1      26.338   0.602  52.620  1.00  0.00    -0.014 C 
HETATM    7  C6  UNL     1      25.544  -0.230  53.367  1.00  0.00     0.044 C 
HETATM    8  C7  UNL     1      24.166  -0.624  53.703  1.00  0.00    -0.024 C 
HETATM    9  C8  UNL     1      22.858  -0.552  53.607  1.00  0.00    -0.012 C 
HETATM   10  C9  UNL     1      21.755   0.144  52.932  1.00  0.00     0.047 C 
HETATM   11  C10 UNL     1      21.978   0.214  51.471  1.00  0.00     0.013 C 
HETATM   12  C11 UNL     1      22.749   1.233  51.345  1.00  0.00     0.138 C 
HETATM   13  N1  UNL     1      23.130   1.951  52.583  1.00  0.00    -0.161 NA
HETATM   14  N2  UNL     1      23.366   3.222  52.407  1.00  0.00    -0.127 NA
HETATM   15  C12 UNL     1      23.134   3.397  50.960  1.00  0.00     0.217 C 
HETATM   16  N3  UNL     1      21.863   3.346  50.810  1.00  0.00    -0.229 NA
HETATM   17  C13 UNL     1      20.780   3.217  51.653  1.00  0.00     0.044 C 
HETATM   18  C15 UNL     1      20.543   2.391  52.681  1.00  0.00     0.034 C 
HETATM   19  C16 UNL     1      21.119   1.312  53.452  1.00  0.00     0.164 C 
HETATM   20  O2  UNL     1      20.083   0.483  53.975  1.00  0.00    -0.379 OA
HETATM   21  C17 UNL     1      20.437  -0.574  53.164  1.00  0.00     0.189 C 
ENDROOT
BRANCH  17  22
HETATM   22  C14 UNL     1      19.825   4.249  51.163  1.00  0.00     0.129 C 
BRANCH  22  23
HETATM   23  S1  UNL     1      18.109   3.691  51.185  1.00  0.00    -0.176 SA
HETATM   24  H13 UNL     1      17.390   4.395  52.183  1.00  0.00     0.102 HD
ENDBRANCH  22  23
ENDBRANCH  17  22
TORSDOF 2
ENDMDL
MODEL 4
REMARK VINA RESULT:      -7.5      2.393      3.692
REMARK  2 active torsions:
REMARK  status: ('A' for Active; 'I' for Inactive)
REMARK    1  A    between atoms: C13_17  and  C14_18 
REMARK    2  A    between atoms: C14_18  and  S1_19 
ROOT
HETATM    1  O1  UNL     1      20.062   2.462  53.040  1.00  0.00    -0.289 OA
HETATM    2  C1  UNL     1      20.904   1.605  52.586  1.00  0.00     0.199 C 
HETATM    3  C2  UNL     1      21.118   0.396  53.312  1.00  0.00     0.092 C 
HETATM    4  C3  UNL     1      22.423  -0.214  53.504  1.00  0.00     0.002 C 
HETATM    5  C4  UNL     1      23.729  -0.576  53.534  1.00  0.00    -0.004 C 
HETATM    6  C5  UNL     1      25.085  -0.144  53.041  1.00  0.00    -0.014 C 
HETATM    7  C6  UNL     1      26.095   0.555  52.430  1.00  0.00     0.044 C 
HETATM    8  C7  UNL     1      26.447   1.732  51.620  1.00  0.00    -0.024 C 
HETATM    9  C8  UNL     1      26.182   2.838  50.962  1.00  0.00    -0.012 C 
HETATM   10  C9  UNL     1      25.105   3.755  50.569  1.00  0.00     0.047 C 
HETATM   11  C10 UNL     1      24.248   4.104  51.723  1.00  0.00     0.013 C 
HETATM   12  C11 UNL     1      23.433   3.113  51.788  1.00  0.00     0.138 C 
HETATM   13  N1  UNL     1      23.591   2.039  50.781  1.00  0.00    -0.161 NA
HETATM   14  N2  UNL     1      22.481   1.420  50.488  1.00  0.00    -0.127 NA
HETATM   15  C12 UNL     1      21.493   2.104  51.345  1.00  0.00     0.217 C 
HETATM   16  N3  UNL     1      21.302   3.247  50.800  1.00  0.00    -0.229 NA
HETATM   17  C13 UNL     1      21.758   3.880  49.663  1.00  0.00     0.044 C 
HETATM   18  C15 UNL     1      22.987   4.001  49.142  1.00  0.00     0.034 C 
HETATM   19  C16 UNL     1      24.371   3.638  49.349  1.00  0.00     0.164 C 
HETATM   20  O2  UNL     1      25.223   4.623  48.772  1.00  0.00    -0.379 OA
HETATM   21  C17 UNL     1      25.669   5.047  50.006  1.00  0.00     0.189 C 
ENDROOT
BRANCH  17  22
HETATM   22  C14 UNL     1      20.528   4.471  49.069  1.00  0.00     0.129 C 
BRANCH  22  23
HETATM   23  S1  UNL     1      19.651   3.331  47.979  1.00  0.00    -0.176 SA
HETATM   24  H13 UNL     1      18.402   3.888  47.609  1.00  0.00     0.102 HD
ENDBRANCH  22  23
ENDBRANCH  17  22
TORSDOF 2
ENDMDL
MODEL 5
REMARK VINA RESULT:      -7.4      2.765      4.881
REMARK  2 active torsions:
REMARK  status: ('A' for Active; 'I' for Inactive)
REMARK    1  A    between atoms: C13_17  and  C14_18 
REMARK    2  A    between atoms: C14_18  and  S1_19 
ROOT
HETATM    1  O1  UNL     1      21.160   0.497  54.760  1.00  0.00    -0.289 OA
HETATM    2  C1  UNL     1      21.972   0.155  53.826  1.00  0.00     0.199 C 
HETATM    3  C2  UNL     1      22.907  -0.892  54.074  1.00  0.00     0.092 C 
HETATM    4  C3  UNL     1      24.289  -0.868  53.623  1.00  0.00     0.002 C 
HETATM    5  C4  UNL     1      25.510  -0.607  53.095  1.00  0.00    -0.004 C 
HETATM    6  C5  UNL     1      26.252   0.430  52.294  1.00  0.00    -0.014 C 
HETATM    7  C6  UNL     1      26.561   1.562  51.582  1.00  0.00     0.044 C 
HETATM    8  C7  UNL     1      26.066   2.842  51.052  1.00  0.00    -0.024 C 
HETATM    9  C8  UNL     1      25.155   3.769  50.855  1.00  0.00    -0.012 C 
HETATM   10  C9  UNL     1      23.761   4.138  51.129  1.00  0.00     0.047 C 
HETATM   11  C10 UNL     1      23.427   3.956  52.558  1.00  0.00     0.013 C 
HETATM   12  C11 UNL     1      23.150   2.704  52.633  1.00  0.00     0.138 C 
HETATM   13  N1  UNL     1      23.239   1.915  51.384  1.00  0.00    -0.161 NA
HETATM   14  N2  UNL     1      22.428   0.894  51.342  1.00  0.00    -0.127 NA
HETATM   15  C12 UNL     1      21.735   0.979  52.642  1.00  0.00     0.217 C 
HETATM   16  N3  UNL     1      20.920   1.961  52.530  1.00  0.00    -0.229 NA
HETATM   17  C13 UNL     1      20.570   2.835  51.524  1.00  0.00     0.044 C 
HETATM   18  C15 UNL     1      21.310   3.542  50.658  1.00  0.00     0.034 C 
HETATM   19  C16 UNL     1      22.672   3.820  50.261  1.00  0.00     0.164 C 
HETATM   20  O2  UNL     1      22.760   5.132  49.712  1.00  0.00    -0.379 OA
HETATM   21  C17 UNL     1      23.505   5.592  50.777  1.00  0.00     0.189 C 
ENDROOT
BRANCH  17  22
HETATM   22  C14 UNL     1      19.082   2.866  51.582  1.00  0.00     0.129 C 
BRANCH  22  23
HETATM   23  S1  UNL     1      18.321   1.337  50.999  1.00  0.00    -0.176 SA
HETATM   24  H13 UNL     1      18.094   0.467  52.095  1.00  0.00     0.102 HD
ENDBRANCH  22  23
ENDBRANCH  17  22
TORSDOF 2
ENDMDL
MODEL 6
REMARK VINA RESULT:      -7.1      3.046      5.273
REMARK  2 active torsions:
REMARK  status: ('A' for Active; 'I' for Inactive)
REMARK    1  A    between atoms: C13_17  and  C14_18 
REMARK    2  A    between atoms: C14_18  and  S1_19 
ROOT
HETATM    1  O1  UNL     1      22.727   5.171  47.700  1.00  0.00    -0.289 OA
HETATM    2  C1  UNL     1      23.461   5.109  48.752  1.00  0.00     0.199 C 
HETATM    3  C2  UNL     1      24.854   5.396  48.640  1.00  0.00     0.092 C 
HETATM    4  C3  UNL     1      25.893   4.650  49.329  1.00  0.00     0.002 C 
HETATM    5  C4  UNL     1      26.655   3.813  50.075  1.00  0.00    -0.004 C 
HETATM    6  C5  UNL     1      26.548   2.652  51.028  1.00  0.00    -0.014 C 
HETATM    7  C6  UNL     1      26.048   1.649  51.820  1.00  0.00     0.044 C 
HETATM    8  C7  UNL     1      24.838   0.959  52.295  1.00  0.00    -0.024 C 
HETATM    9  C8  UNL     1      23.543   0.749  52.358  1.00  0.00    -0.012 C 
HETATM   10  C9  UNL     1      22.242   1.206  51.853  1.00  0.00     0.047 C 
HETATM   11  C10 UNL     1      22.260   1.358  50.382  1.00  0.00     0.013 C 
HETATM   12  C11 UNL     1      22.775   2.522  50.218  1.00  0.00     0.138 C 
HETATM   13  N1  UNL     1      23.149   3.275  51.437  1.00  0.00    -0.161 NA
HETATM   14  N2  UNL     1      23.086   4.571  51.300  1.00  0.00    -0.127 NA
HETATM   15  C12 UNL     1      22.642   4.727  49.901  1.00  0.00     0.217 C 
HETATM   16  N3  UNL     1      21.402   4.406  49.898  1.00  0.00    -0.229 NA
HETATM   17  C13 UNL     1      20.486   4.026  50.855  1.00  0.00     0.044 C 
HETATM   18  C15 UNL     1      20.560   3.143  51.860  1.00  0.00     0.034 C 
HETATM   19  C16 UNL     1      21.443   2.195  52.503  1.00  0.00     0.164 C 
HETATM   20  O2  UNL     1      20.681   1.150  53.101  1.00  0.00    -0.379 OA
HETATM   21  C17 UNL     1      21.146   0.215  52.201  1.00  0.00     0.189 C 
ENDROOT
BRANCH  17  22
HETATM   22  C14 UNL     1      19.280   4.839  50.533  1.00  0.00     0.129 C 
BRANCH  22  23
HETATM   23  S1  UNL     1      17.734   3.984  50.899  1.00  0.00    -0.176 SA
HETATM   24  H13 UNL     1      17.705   2.737  50.226  1.00  0.00     0.102 HD
ENDBRANCH  22  23
ENDBRANCH  17  22
TORSDOF 2
ENDMDL
MODEL 7
REMARK VINA RESULT:      -6.9      2.737      4.848
REMARK  2 active torsions:
REMARK  status: ('A' for Active; 'I' for Inactive)
REMARK    1  A    between atoms: C13_17  and  C14_18 
REMARK    2  A    between atoms: C14_18  and  S1_19 
ROOT
HETATM    1  O1  UNL     1      23.367   5.056  51.955  1.00  0.00    -0.289 OA
HETATM    2  C1  UNL     1      22.896   4.270  51.056  1.00  0.00     0.199 C 
HETATM    3  C2  UNL     1      22.232   4.832  49.925  1.00  0.00     0.092 C 
HETATM    4  C3  UNL     1      21.025   4.278  49.337  1.00  0.00     0.002 C 
HETATM    5  C4  UNL     1      19.924   3.572  48.978  1.00  0.00    -0.004 C 
HETATM    6  C5  UNL     1      19.132   2.348  49.357  1.00  0.00    -0.014 C 
HETATM    7  C6  UNL     1      18.704   1.209  49.991  1.00  0.00     0.044 C 
HETATM    8  C7  UNL     1      18.955   0.252  51.081  1.00  0.00    -0.024 C 
HETATM    9  C8  UNL     1      19.615  -0.217  52.116  1.00  0.00    -0.012 C 
HETATM   10  C9  UNL     1      20.771   0.017  52.989  1.00  0.00     0.047 C 
HETATM   11  C10 UNL     1      20.820   1.421  53.453  1.00  0.00     0.013 C 
HETATM   12  C11 UNL     1      21.388   2.029  52.474  1.00  0.00     0.138 C 
HETATM   13  N1  UNL     1      21.781   1.210  51.305  1.00  0.00    -0.161 NA
HETATM   14  N2  UNL     1      22.818   1.670  50.661  1.00  0.00    -0.127 NA
HETATM   15  C12 UNL     1      23.164   2.882  51.428  1.00  0.00     0.217 C 
HETATM   16  N3  UNL     1      23.701   2.458  52.511  1.00  0.00    -0.229 NA
HETATM   17  C13 UNL     1      24.024   1.222  53.027  1.00  0.00     0.044 C 
HETATM   18  C15 UNL     1      23.334   0.075  53.094  1.00  0.00     0.034 C 
HETATM   19  C16 UNL     1      22.067  -0.533  52.751  1.00  0.00     0.164 C 
HETATM   20  O2  UNL     1      21.765  -1.577  53.674  1.00  0.00    -0.379 OA
HETATM   21  C17 UNL     1      20.712  -0.873  54.218  1.00  0.00     0.189 C 
ENDROOT
BRANCH  17  22
HETATM   22  C14 UNL     1      25.403   1.409  53.557  1.00  0.00     0.129 C 
BRANCH  22  23
HETATM   23  S1  UNL     1      26.071  -0.080  54.328  1.00  0.00    -0.176 SA
HETATM   24  H13 UNL     1      26.991  -0.703  53.449  1.00  0.00     0.102 HD
ENDBRANCH  22  23
ENDBRANCH  17  22
TORSDOF 2
ENDMDL
MODEL 8
REMARK VINA RESULT:      -6.6      4.134      6.926
REMARK  2 active torsions:
REMARK  status: ('A' for Active; 'I' for Inactive)
REMARK    1  A    between atoms: C13_17  and  C14_18 
REMARK    2  A    between atoms: C14_18  and  S1_19 
ROOT
HETATM    1  O1  UNL     1      23.289   9.022  47.239  1.00  0.00    -0.289 OA
HETATM    2  C1  UNL     1      24.354   8.740  47.898  1.00  0.00     0.199 C 
HETATM    3  C2  UNL     1      25.615   9.181  47.396  1.00  0.00     0.092 C 
HETATM    4  C3  UNL     1      26.824   8.376  47.424  1.00  0.00     0.002 C 
HETATM    5  C4  UNL     1      27.796   7.442  47.571  1.00  0.00    -0.004 C 
HETATM    6  C5  UNL     1      28.028   6.056  48.112  1.00  0.00    -0.014 C 
HETATM    7  C6  UNL     1      27.838   4.828  48.693  1.00  0.00     0.044 C 
HETATM    8  C7  UNL     1      26.876   3.918  49.334  1.00  0.00    -0.024 C 
HETATM    9  C8  UNL     1      25.689   3.574  49.782  1.00  0.00    -0.012 C 
HETATM   10  C9  UNL     1      24.299   4.025  49.924  1.00  0.00     0.047 C 
HETATM   11  C10 UNL     1      23.783   4.584  48.655  1.00  0.00     0.013 C 
HETATM   12  C11 UNL     1      24.217   5.792  48.675  1.00  0.00     0.138 C 
HETATM   13  N1  UNL     1      25.017   6.206  49.850  1.00  0.00    -0.161 NA
HETATM   14  N2  UNL     1      24.924   7.476  50.134  1.00  0.00    -0.127 NA
HETATM   15  C12 UNL     1      24.005   7.974  49.092  1.00  0.00     0.217 C 
HETATM   16  N3  UNL     1      22.844   7.548  49.430  1.00  0.00    -0.229 NA
HETATM   17  C13 UNL     1      22.334   6.827  50.488  1.00  0.00     0.044 C 
HETATM   18  C15 UNL     1      22.758   5.709  51.093  1.00  0.00     0.034 C 
HETATM   19  C16 UNL     1      23.803   4.710  51.074  1.00  0.00     0.164 C 
HETATM   20  O2  UNL     1      23.297   3.470  51.563  1.00  0.00    -0.379 OA
HETATM   21  C17 UNL     1      23.393   2.875  50.323  1.00  0.00     0.189 C 
ENDROOT
BRANCH  17  22
HETATM   22  C14 UNL     1      21.103   7.576  50.865  1.00  0.00     0.129 C 
BRANCH  22  23
HETATM   23  S1  UNL     1      20.170   8.167  49.438  1.00  0.00    -0.176 SA
HETATM   24  H13 UNL     1      21.064   8.594  48.425  1.00  0.00     0.102 HD
ENDBRANCH  22  23
ENDBRANCH  17  22
TORSDOF 2
ENDMDL
MODEL 9
REMARK VINA RESULT:      -6.6      6.866      9.343
REMARK  2 active torsions:
REMARK  status: ('A' for Active; 'I' for Inactive)
REMARK    1  A    between atoms: C13_17  and  C14_18 
REMARK    2  A    between atoms: C14_18  and  S1_19 
ROOT
HETATM    1  O1  UNL     1      25.001   8.574  50.342  1.00  0.00    -0.289 OA
HETATM    2  C1  UNL     1      25.564   7.938  49.380  1.00  0.00     0.199 C 
HETATM    3  C2  UNL     1      25.409   6.521  49.305  1.00  0.00     0.092 C 
HETATM    4  C3  UNL     1      26.480   5.608  48.941  1.00  0.00     0.002 C 
HETATM    5  C4  UNL     1      27.625   4.982  48.575  1.00  0.00    -0.004 C 
HETATM    6  C5  UNL     1      29.053   5.264  48.190  1.00  0.00    -0.014 C 
HETATM    7  C6  UNL     1      30.230   5.908  47.903  1.00  0.00     0.044 C 
HETATM    8  C7  UNL     1      30.916   7.206  47.805  1.00  0.00    -0.024 C 
HETATM    9  C8  UNL     1      30.991   8.515  47.888  1.00  0.00    -0.012 C 
HETATM   10  C9  UNL     1      30.230   9.728  48.214  1.00  0.00     0.047 C 
HETATM   11  C10 UNL     1      29.497   9.575  49.490  1.00  0.00     0.013 C 
HETATM   12  C11 UNL     1      28.430   8.954  49.139  1.00  0.00     0.138 C 
HETATM   13  N1  UNL     1      28.281   8.622  47.703  1.00  0.00    -0.161 NA
HETATM   14  N2  UNL     1      27.043   8.566  47.297  1.00  0.00    -0.127 NA
HETATM   15  C12 UNL     1      26.286   8.877  48.525  1.00  0.00     0.217 C 
HETATM   16  N3  UNL     1      26.441  10.135  48.711  1.00  0.00    -0.229 NA
HETATM   17  C13 UNL     1      27.074  11.156  48.036  1.00  0.00     0.044 C 
HETATM   18  C15 UNL     1      28.291  11.239  47.481  1.00  0.00     0.034 C 
HETATM   19  C16 UNL     1      29.508  10.493  47.249  1.00  0.00     0.164 C 
HETATM   20  O2  UNL     1      30.615  11.386  47.166  1.00  0.00    -0.379 OA
HETATM   21  C17 UNL     1      31.150  10.927  48.351  1.00  0.00     0.189 C 
ENDROOT
BRANCH  17  22
HETATM   22  C14 UNL     1      26.074  12.260  48.044  1.00  0.00     0.129 C 
BRANCH  22  23
HETATM   23  S1  UNL     1      26.830  13.898  48.073  1.00  0.00    -0.176 SA
HETATM   24  H13 UNL     1      28.208  13.783  48.385  1.00  0.00     0.102 HD
ENDBRANCH  22  23
ENDBRANCH  17  22
TORSDOF 2
ENDMDL
