MODEL 1
REMARK VINA RESULT:      -7.1      0.000      0.000
REMARK  8 active torsions:
REMARK  status: ('A' for Active; 'I' for Inactive)
REMARK    1  A    between atoms: C2_2  and  C3_3 
REMARK    2  A    between atoms: C3_3  and  N1_4 
REMARK    3  A    between atoms: C8_11  and  N4_12 
REMARK    4  A    between atoms: N4_12  and  C9_13 
REMARK    5  A    between atoms: C12_16  and  O1_17 
REMARK    6  A    between atoms: O1_17  and  C13_18 
REMARK    7  A    between atoms: C13_18  and  C14_19 
REMARK    8  A    between atoms: C14_19  and  C15_20 
ROOT
HETATM    1  N4  UNL     1      23.383   2.574  51.689  1.00  0.00    -0.351 N 
HETATM    2  H15 UNL     1      22.371   2.285  51.811  1.00  0.00     0.163 HD
ENDROOT
BRANCH   1   3
HETATM    3  C8  UNL     1      23.958   3.758  51.147  1.00  0.00     0.310 C 
HETATM    4  N1  UNL     1      23.889   3.966  49.767  1.00  0.00    -0.374 N 
HETATM    5  C4  UNL     1      23.280   3.034  48.915  1.00  0.00     0.140 C 
HETATM    6  C5  UNL     1      21.820   3.464  48.727  1.00  0.00     0.138 C 
HETATM    7  N2  UNL     1      21.128   3.615  49.967  1.00  0.00    -0.395 N 
HETATM    8  C6  UNL     1      21.116   4.481  51.095  1.00  0.00     0.117 C 
HETATM    9  H12 UNL     1      20.398   2.865  50.104  1.00  0.00     0.159 HD
HETATM   10  C7  UNL     1      22.004   5.294  51.633  1.00  0.00     0.100 C 
HETATM   11  N3  UNL     1      23.202   4.876  51.769  1.00  0.00    -0.241 NA
BRANCH   4  12
HETATM   12  C3  UNL     1      24.553   5.079  49.226  1.00  0.00     0.120 C 
BRANCH  12  13
HETATM   13  C2  UNL     1      25.970   5.307  49.685  1.00  0.00     0.015 C 
HETATM   14  C1  UNL     1      26.910   4.282  49.074  1.00  0.00     0.006 C 
ENDBRANCH  12  13
ENDBRANCH   4  12
ENDBRANCH   1   3
BRANCH   1  15
HETATM   15  C9  UNL     1      24.291   1.576  52.168  1.00  0.00     0.032 A 
HETATM   16  C10 UNL     1      25.521   1.330  51.598  1.00  0.00     0.032 A 
HETATM   17  C11 UNL     1      26.404   0.380  52.053  1.00  0.00     0.041 A 
HETATM   18  C12 UNL     1      26.067  -0.386  53.139  1.00  0.00     0.090 A 
HETATM   19  C17 UNL     1      24.837  -0.206  53.784  1.00  0.00     0.069 A 
HETATM   20 CL1  UNL     1      24.394  -1.168  55.163  1.00  0.00    -0.081 Cl
HETATM   21  C18 UNL     1      24.024   0.771  53.251  1.00  0.00     0.056 A 
BRANCH  18  22
HETATM   22  O1  UNL     1      26.928  -1.375  53.657  1.00  0.00    -0.349 OA
BRANCH  22  23
HETATM   23  C13 UNL     1      28.080  -1.641  52.892  1.00  0.00     0.179 C 
BRANCH  23  24
HETATM   24  C14 UNL     1      29.370  -1.323  53.616  1.00  0.00     0.056 C 
BRANCH  24  25
HETATM   25  C15 UNL     1      29.711   0.116  53.506  1.00  0.00     0.005 C 
HETATM   26  C16 UNL     1      29.374   1.069  54.302  1.00  0.00     0.184 C 
HETATM   27  F1  UNL     1      28.614   0.542  55.319  1.00  0.00    -0.220 F 
ENDBRANCH  24  25
ENDBRANCH  23  24
ENDBRANCH  22  23
ENDBRANCH  18  22
ENDBRANCH   1  15
TORSDOF 8
ENDMDL
MODEL 2
REMARK VINA RESULT:      -6.9      1.274      2.448
REMARK  8 active torsions:
REMARK  status: ('A' for Active; 'I' for Inactive)
REMARK    1  A    between atoms: C2_2  and  C3_3 
REMARK    2  A    between atoms: C3_3  and  N1_4 
REMARK    3  A    between atoms: C8_11  and  N4_12 
REMARK    4  A    between atoms: N4_12  and  C9_13 
REMARK    5  A    between atoms: C12_16  and  O1_17 
REMARK    6  A    between atoms: O1_17  and  C13_18 
REMARK    7  A    between atoms: C13_18  and  C14_19 
REMARK    8  A    between atoms: C14_19  and  C15_20 
ROOT
HETATM    1  N4  UNL     1      24.780   3.786  51.701  1.00  0.00    -0.351 N 
HETATM    2  H15 UNL     1      24.704   4.446  52.526  1.00  0.00     0.163 HD
ENDROOT
BRANCH   1   3
HETATM    3  C8  UNL     1      24.558   3.998  50.311  1.00  0.00     0.310 C 
HETATM    4  N1  UNL     1      23.246   4.159  49.858  1.00  0.00    -0.374 N 
HETATM    5  C4  UNL     1      22.155   4.107  50.737  1.00  0.00     0.140 C 
HETATM    6  C5  UNL     1      21.840   5.543  51.170  1.00  0.00     0.138 C 
HETATM    7  N2  UNL     1      22.972   6.208  51.733  1.00  0.00    -0.395 N 
HETATM    8  C6  UNL     1      24.229   6.732  51.318  1.00  0.00     0.117 C 
HETATM    9  H12 UNL     1      22.860   6.370  52.769  1.00  0.00     0.159 HD
HETATM   10  C7  UNL     1      25.032   6.485  50.303  1.00  0.00     0.100 C 
HETATM   11  N3  UNL     1      25.261   5.268  49.995  1.00  0.00    -0.241 NA
BRANCH   4  12
HETATM   12  C3  UNL     1      23.025   4.257  48.474  1.00  0.00     0.120 C 
BRANCH  12  13
HETATM   13  C2  UNL     1      22.429   3.048  47.800  1.00  0.00     0.015 C 
HETATM   14  C1  UNL     1      21.182   3.424  47.018  1.00  0.00     0.006 C 
ENDBRANCH  12  13
ENDBRANCH   4  12
ENDBRANCH   1   3
BRANCH   1  15
HETATM   15  C9  UNL     1      25.180   2.470  52.098  1.00  0.00     0.032 A 
HETATM   16  C10 UNL     1      26.413   1.929  51.807  1.00  0.00     0.032 A 
HETATM   17  C11 UNL     1      26.810   0.670  52.189  1.00  0.00     0.041 A 
HETATM   18  C12 UNL     1      25.947  -0.120  52.905  1.00  0.00     0.090 A 
HETATM   19  C17 UNL     1      24.672   0.347  53.247  1.00  0.00     0.069 A 
HETATM   20 CL1  UNL     1      23.565  -0.641  54.154  1.00  0.00    -0.081 Cl
HETATM   21  C18 UNL     1      24.370   1.621  52.817  1.00  0.00     0.056 A 
BRANCH  18  22
HETATM   22  O1  UNL     1      26.293  -1.419  53.329  1.00  0.00    -0.349 OA
BRANCH  22  23
HETATM   23  C13 UNL     1      27.211  -2.104  52.507  1.00  0.00     0.179 C 
BRANCH  23  24
HETATM   24  C14 UNL     1      28.443  -2.577  53.247  1.00  0.00     0.056 C 
BRANCH  24  25
HETATM   25  C15 UNL     1      29.545  -1.589  53.149  1.00  0.00     0.005 C 
HETATM   26  C16 UNL     1      29.741  -0.552  53.885  1.00  0.00     0.184 C 
HETATM   27  F1  UNL     1      28.737  -0.482  54.820  1.00  0.00    -0.220 F 
ENDBRANCH  24  25
ENDBRANCH  23  24
ENDBRANCH  22  23
ENDBRANCH  18  22
ENDBRANCH   1  15
TORSDOF 8
ENDMDL
MODEL 3
REMARK VINA RESULT:      -6.6      3.593      7.114
REMARK  8 active torsions:
REMARK  status: ('A' for Active; 'I' for Inactive)
REMARK    1  A    between atoms: C2_2  and  C3_3 
REMARK    2  A    between atoms: C3_3  and  N1_4 
REMARK    3  A    between atoms: C8_11  and  N4_12 
REMARK    4  A    between atoms: N4_12  and  C9_13 
REMARK    5  A    between atoms: C12_16  and  O1_17 
REMARK    6  A    between atoms: O1_17  and  C13_18 
REMARK    7  A    between atoms: C13_18  and  C14_19 
REMARK    8  A    between atoms: C14_19  and  C15_20 
ROOT
HETATM    1  N4  UNL     1      26.883   1.551  52.678  1.00  0.00    -0.351 N 
HETATM    2  H15 UNL     1      27.891   1.480  52.359  1.00  0.00     0.163 HD
ENDROOT
BRANCH   1   3
HETATM    3  C8  UNL     1      26.219   1.001  53.811  1.00  0.00     0.310 C 
HETATM    4  N1  UNL     1      25.700  -0.293  53.720  1.00  0.00    -0.374 N 
HETATM    5  C4  UNL     1      25.811  -1.047  52.544  1.00  0.00     0.140 C 
HETATM    6  C5  UNL     1      27.073  -1.909  52.664  1.00  0.00     0.138 C 
HETATM    7  N2  UNL     1      28.242  -1.136  52.937  1.00  0.00    -0.395 N 
HETATM    8  C6  UNL     1      28.804  -0.371  53.997  1.00  0.00     0.117 C 
HETATM    9  H12 UNL     1      28.902  -1.115  52.114  1.00  0.00     0.159 HD
HETATM   10  C7  UNL     1      28.298   0.249  55.045  1.00  0.00     0.100 C 
HETATM   11  N3  UNL     1      27.250   0.958  54.880  1.00  0.00    -0.241 NA
BRANCH   4  12
HETATM   12  C3  UNL     1      24.952  -0.788  54.801  1.00  0.00     0.120 C 
BRANCH  12  13
HETATM   13  C2  UNL     1      23.494  -1.068  54.539  1.00  0.00     0.015 C 
HETATM   14  C1  UNL     1      22.841   0.095  53.813  1.00  0.00     0.006 C 
ENDBRANCH  12  13
ENDBRANCH   4  12
ENDBRANCH   1   3
BRANCH   1  15
HETATM   15  C9  UNL     1      26.091   2.348  51.790  1.00  0.00     0.032 A 
HETATM   16  C10 UNL     1      26.458   2.637  50.493  1.00  0.00     0.032 A 
HETATM   17  C11 UNL     1      25.703   3.395  49.631  1.00  0.00     0.041 A 
HETATM   18  C12 UNL     1      24.505   3.908  50.058  1.00  0.00     0.090 A 
HETATM   19  C17 UNL     1      24.050   3.666  51.360  1.00  0.00     0.069 A 
HETATM   20 CL1  UNL     1      22.534   4.310  51.919  1.00  0.00    -0.081 Cl
HETATM   21  C18 UNL     1      24.879   2.896  52.146  1.00  0.00     0.056 A 
BRANCH  18  22
HETATM   22  O1  UNL     1      23.682   4.691  49.223  1.00  0.00    -0.349 OA
BRANCH  22  23
HETATM   23  C13 UNL     1      22.546   4.039  48.703  1.00  0.00     0.179 C 
BRANCH  23  24
HETATM   24  C14 UNL     1      22.838   2.651  48.178  1.00  0.00     0.056 C 
BRANCH  24  25
HETATM   25  C15 UNL     1      21.694   1.735  48.408  1.00  0.00     0.005 C 
HETATM   26  C16 UNL     1      21.507   0.943  49.405  1.00  0.00     0.184 C 
HETATM   27  F1  UNL     1      22.567   1.068  50.270  1.00  0.00    -0.220 F 
ENDBRANCH  24  25
ENDBRANCH  23  24
ENDBRANCH  22  23
ENDBRANCH  18  22
ENDBRANCH   1  15
TORSDOF 8
ENDMDL
MODEL 4
REMARK VINA RESULT:      -6.5      2.949      4.574
REMARK  8 active torsions:
REMARK  status: ('A' for Active; 'I' for Inactive)
REMARK    1  A    between atoms: C2_2  and  C3_3 
REMARK    2  A    between atoms: C3_3  and  N1_4 
REMARK    3  A    between atoms: C8_11  and  N4_12 
REMARK    4  A    between atoms: N4_12  and  C9_13 
REMARK    5  A    between atoms: C12_16  and  O1_17 
REMARK    6  A    between atoms: O1_17  and  C13_18 
REMARK    7  A    between atoms: C13_18  and  C14_19 
REMARK    8  A    between atoms: C14_19  and  C15_20 
ROOT
HETATM    1  N4  UNL     1      24.632   4.584  51.192  1.00  0.00    -0.351 N 
HETATM    2  H15 UNL     1      24.973   5.268  51.926  1.00  0.00     0.163 HD
ENDROOT
BRANCH   1   3
HETATM    3  C8  UNL     1      24.318   4.769  49.816  1.00  0.00     0.310 C 
HETATM    4  N1  UNL     1      23.254   5.611  49.478  1.00  0.00    -0.374 N 
HETATM    5  C4  UNL     1      22.494   6.261  50.459  1.00  0.00     0.140 C 
HETATM    6  C5  UNL     1      23.104   7.651  50.673  1.00  0.00     0.138 C 
HETATM    7  N2  UNL     1      24.493   7.597  50.997  1.00  0.00    -0.395 N 
HETATM    8  C6  UNL     1      25.733   7.277  50.375  1.00  0.00     0.117 C 
HETATM    9  H12 UNL     1      24.677   7.879  51.997  1.00  0.00     0.159 HD
HETATM   10  C7  UNL     1      26.070   6.534  49.339  1.00  0.00     0.100 C 
HETATM   11  N3  UNL     1      25.533   5.382  49.220  1.00  0.00    -0.241 NA
BRANCH   4  12
HETATM   12  C3  UNL     1      22.880   5.703  48.128  1.00  0.00     0.120 C 
BRANCH  12  13
HETATM   13  C2  UNL     1      22.405   4.432  47.472  1.00  0.00     0.015 C 
HETATM   14  C1  UNL     1      20.890   4.332  47.518  1.00  0.00     0.006 C 
ENDBRANCH  12  13
ENDBRANCH   4  12
ENDBRANCH   1   3
BRANCH   1  15
HETATM   15  C9  UNL     1      24.478   3.261  51.717  1.00  0.00     0.032 A 
HETATM   16  C10 UNL     1      23.343   2.826  52.367  1.00  0.00     0.032 A 
HETATM   17  C11 UNL     1      23.183   1.557  52.867  1.00  0.00     0.041 A 
HETATM   18  C12 UNL     1      24.197   0.645  52.728  1.00  0.00     0.090 A 
HETATM   19  C17 UNL     1      25.387   0.997  52.082  1.00  0.00     0.069 A 
HETATM   20 CL1  UNL     1      26.684  -0.147  51.896  1.00  0.00    -0.081 Cl
HETATM   21  C18 UNL     1      25.451   2.292  51.615  1.00  0.00     0.056 A 
BRANCH  18  22
HETATM   22  O1  UNL     1      24.094  -0.674  53.217  1.00  0.00    -0.349 OA
BRANCH  22  23
HETATM   23  C13 UNL     1      24.405  -0.843  54.581  1.00  0.00     0.179 C 
BRANCH  23  24
HETATM   24  C14 UNL     1      23.209  -1.214  55.429  1.00  0.00     0.056 C 
BRANCH  24  25
HETATM   25  C15 UNL     1      22.058  -1.627  54.589  1.00  0.00     0.005 C 
HETATM   26  C16 UNL     1      20.952  -0.997  54.403  1.00  0.00     0.184 C 
HETATM   27  F1  UNL     1      20.985   0.170  55.128  1.00  0.00    -0.220 F 
ENDBRANCH  24  25
ENDBRANCH  23  24
ENDBRANCH  22  23
ENDBRANCH  18  22
ENDBRANCH   1  15
TORSDOF 8
ENDMDL
MODEL 5
REMARK VINA RESULT:      -6.5      3.737      7.428
REMARK  8 active torsions:
REMARK  status: ('A' for Active; 'I' for Inactive)
REMARK    1  A    between atoms: C2_2  and  C3_3 
REMARK    2  A    between atoms: C3_3  and  N1_4 
REMARK    3  A    between atoms: C8_11  and  N4_12 
REMARK    4  A    between atoms: N4_12  and  C9_13 
REMARK    5  A    between atoms: C12_16  and  O1_17 
REMARK    6  A    between atoms: O1_17  and  C13_18 
REMARK    7  A    between atoms: C13_18  and  C14_19 
REMARK    8  A    between atoms: C14_19  and  C15_20 
ROOT
HETATM    1  N4  UNL     1      26.899   1.406  52.329  1.00  0.00    -0.351 N 
HETATM    2  H15 UNL     1      27.911   1.293  52.038  1.00  0.00     0.163 HD
ENDROOT
BRANCH   1   3
HETATM    3  C8  UNL     1      26.195   0.927  53.469  1.00  0.00     0.310 C 
HETATM    4  N1  UNL     1      25.802  -0.414  53.501  1.00  0.00    -0.374 N 
HETATM    5  C4  UNL     1      26.078  -1.284  52.437  1.00  0.00     0.140 C 
HETATM    6  C5  UNL     1      27.398  -1.997  52.751  1.00  0.00     0.138 C 
HETATM    7  N2  UNL     1      28.466  -1.086  53.011  1.00  0.00    -0.395 N 
HETATM    8  C6  UNL     1      28.868  -0.154  54.008  1.00  0.00     0.117 C 
HETATM    9  H12 UNL     1      29.188  -1.095  52.242  1.00  0.00     0.159 HD
HETATM   10  C7  UNL     1      28.222   0.530  54.933  1.00  0.00     0.100 C 
HETATM   11  N3  UNL     1      27.132   1.108  54.608  1.00  0.00    -0.241 NA
BRANCH   4  12
HETATM   12  C3  UNL     1      25.014  -0.854  54.577  1.00  0.00     0.120 C 
BRANCH  12  13
HETATM   13  C2  UNL     1      23.521  -0.807  54.380  1.00  0.00     0.015 C 
HETATM   14  C1  UNL     1      22.803  -1.535  55.504  1.00  0.00     0.006 C 
ENDBRANCH  12  13
ENDBRANCH   4  12
ENDBRANCH   1   3
BRANCH   1  15
HETATM   15  C9  UNL     1      26.150   2.182  51.387  1.00  0.00     0.032 A 
HETATM   16  C10 UNL     1      24.798   2.022  51.172  1.00  0.00     0.032 A 
HETATM   17  C11 UNL     1      24.068   2.766  50.277  1.00  0.00     0.041 A 
HETATM   18  C12 UNL     1      24.696   3.735  49.537  1.00  0.00     0.090 A 
HETATM   19  C17 UNL     1      26.068   3.969  49.688  1.00  0.00     0.069 A 
HETATM   20 CL1  UNL     1      26.881   5.193  48.758  1.00  0.00    -0.081 Cl
HETATM   21  C18 UNL     1      26.710   3.171  50.610  1.00  0.00     0.056 A 
BRANCH  18  22
HETATM   22  O1  UNL     1      24.005   4.534  48.603  1.00  0.00    -0.349 OA
BRANCH  22  23
HETATM   23  C13 UNL     1      22.680   4.868  48.950  1.00  0.00     0.179 C 
BRANCH  23  24
HETATM   24  C14 UNL     1      22.589   5.965  49.987  1.00  0.00     0.056 C 
BRANCH  24  25
HETATM   25  C15 UNL     1      21.817   5.524  51.174  1.00  0.00     0.005 C 
HETATM   26  C16 UNL     1      22.275   5.158  52.320  1.00  0.00     0.184 C 
HETATM   27  F1  UNL     1      23.646   5.235  52.290  1.00  0.00    -0.220 F 
ENDBRANCH  24  25
ENDBRANCH  23  24
ENDBRANCH  22  23
ENDBRANCH  18  22
ENDBRANCH   1  15
TORSDOF 8
ENDMDL
MODEL 6
REMARK VINA RESULT:      -6.5      1.954      2.701
REMARK  8 active torsions:
REMARK  status: ('A' for Active; 'I' for Inactive)
REMARK    1  A    between atoms: C2_2  and  C3_3 
REMARK    2  A    between atoms: C3_3  and  N1_4 
REMARK    3  A    between atoms: C8_11  and  N4_12 
REMARK    4  A    between atoms: N4_12  and  C9_13 
REMARK    5  A    between atoms: C12_16  and  O1_17 
REMARK    6  A    between atoms: O1_17  and  C13_18 
REMARK    7  A    between atoms: C13_18  and  C14_19 
REMARK    8  A    between atoms: C14_19  and  C15_20 
ROOT
HETATM    1  N4  UNL     1      21.252   1.498  51.869  1.00  0.00    -0.351 N 
HETATM    2  H15 UNL     1      20.647   0.767  51.398  1.00  0.00     0.163 HD
ENDROOT
BRANCH   1   3
HETATM    3  C8  UNL     1      21.095   2.908  51.985  1.00  0.00     0.310 C 
HETATM    4  N1  UNL     1      21.315   3.703  50.856  1.00  0.00    -0.374 N 
HETATM    5  C4  UNL     1      21.693   3.143  49.628  1.00  0.00     0.140 C 
HETATM    6  C5  UNL     1      20.416   2.905  48.814  1.00  0.00     0.138 C 
HETATM    7  N2  UNL     1      19.460   2.108  49.513  1.00  0.00    -0.395 N 
HETATM    8  C6  UNL     1      18.588   2.208  50.633  1.00  0.00     0.117 C 
HETATM    9  H12 UNL     1      19.352   1.152  49.081  1.00  0.00     0.159 HD
HETATM   10  C7  UNL     1      18.577   2.956  51.720  1.00  0.00     0.100 C 
HETATM   11  N3  UNL     1      19.671   3.110  52.358  1.00  0.00    -0.241 NA
BRANCH   4  12
HETATM   12  C3  UNL     1      21.266   5.098  51.003  1.00  0.00     0.120 C 
BRANCH  12  13
HETATM   13  C2  UNL     1      22.587   5.824  50.981  1.00  0.00     0.015 C 
HETATM   14  C1  UNL     1      23.532   5.262  52.030  1.00  0.00     0.006 C 
ENDBRANCH  12  13
ENDBRANCH   4  12
ENDBRANCH   1   3
BRANCH   1  15
HETATM   15  C9  UNL     1      22.413   0.926  52.482  1.00  0.00     0.032 A 
HETATM   16  C10 UNL     1      23.700   1.177  52.059  1.00  0.00     0.032 A 
HETATM   17  C11 UNL     1      24.820   0.639  52.644  1.00  0.00     0.041 A 
HETATM   18  C12 UNL     1      24.681  -0.203  53.717  1.00  0.00     0.090 A 
HETATM   19  C17 UNL     1      23.411  -0.516  54.217  1.00  0.00     0.069 A 
HETATM   20 CL1  UNL     1      23.215  -1.583  55.577  1.00  0.00    -0.081 Cl
HETATM   21  C18 UNL     1      22.352   0.074  53.561  1.00  0.00     0.056 A 
BRANCH  18  22
HETATM   22  O1  UNL     1      25.790  -0.787  54.364  1.00  0.00    -0.349 OA
BRANCH  22  23
HETATM   23  C13 UNL     1      26.637   0.109  55.046  1.00  0.00     0.179 C 
BRANCH  23  24
HETATM   24  C14 UNL     1      28.034   0.171  54.470  1.00  0.00     0.056 C 
BRANCH  24  25
HETATM   25  C15 UNL     1      28.255  -0.901  53.469  1.00  0.00     0.005 C 
HETATM   26  C16 UNL     1      29.332  -1.573  53.260  1.00  0.00     0.184 C 
HETATM   27  F1  UNL     1      30.298  -1.138  54.135  1.00  0.00    -0.220 F 
ENDBRANCH  24  25
ENDBRANCH  23  24
ENDBRANCH  22  23
ENDBRANCH  18  22
ENDBRANCH   1  15
TORSDOF 8
ENDMDL
MODEL 7
REMARK VINA RESULT:      -6.5      4.993      7.536
REMARK  8 active torsions:
REMARK  status: ('A' for Active; 'I' for Inactive)
REMARK    1  A    between atoms: C2_2  and  C3_3 
REMARK    2  A    between atoms: C3_3  and  N1_4 
REMARK    3  A    between atoms: C8_11  and  N4_12 
REMARK    4  A    between atoms: N4_12  and  C9_13 
REMARK    5  A    between atoms: C12_16  and  O1_17 
REMARK    6  A    between atoms: O1_17  and  C13_18 
REMARK    7  A    between atoms: C13_18  and  C14_19 
REMARK    8  A    between atoms: C14_19  and  C15_20 
ROOT
HETATM    1  N4  UNL     1      24.926  -0.260  53.666  1.00  0.00    -0.351 N 
HETATM    2  H15 UNL     1      25.345  -0.502  54.609  1.00  0.00     0.163 HD
ENDROOT
BRANCH   1   3
HETATM    3  C8  UNL     1      25.539   0.147  52.448  1.00  0.00     0.310 C 
HETATM    4  N1  UNL     1      26.045   1.447  52.353  1.00  0.00    -0.374 N 
HETATM    5  C4  UNL     1      25.954   2.349  53.422  1.00  0.00     0.140 C 
HETATM    6  C5  UNL     1      27.253   2.246  54.229  1.00  0.00     0.138 C 
HETATM    7  N2  UNL     1      27.531   0.912  54.654  1.00  0.00    -0.395 N 
HETATM    8  C6  UNL     1      27.916  -0.339  54.095  1.00  0.00     0.117 C 
HETATM    9  H12 UNL     1      27.426   0.801  55.698  1.00  0.00     0.159 HD
HETATM   10  C7  UNL     1      27.812  -0.874  52.894  1.00  0.00     0.100 C 
HETATM   11  N3  UNL     1      26.702  -0.761  52.276  1.00  0.00    -0.241 NA
BRANCH   4  12
HETATM   12  C3  UNL     1      26.549   1.878  51.115  1.00  0.00     0.120 C 
BRANCH  12  13
HETATM   13  C2  UNL     1      25.822   3.021  50.454  1.00  0.00     0.015 C 
HETATM   14  C1  UNL     1      26.729   3.745  49.474  1.00  0.00     0.006 C 
ENDBRANCH  12  13
ENDBRANCH   4  12
ENDBRANCH   1   3
BRANCH   1  15
HETATM   15  C9  UNL     1      23.499  -0.380  53.663  1.00  0.00     0.032 A 
HETATM   16  C10 UNL     1      22.782  -0.960  54.686  1.00  0.00     0.032 A 
HETATM   17  C11 UNL     1      21.413  -1.074  54.696  1.00  0.00     0.041 A 
HETATM   18  C12 UNL     1      20.688  -0.591  53.637  1.00  0.00     0.090 A 
HETATM   19  C17 UNL     1      21.332   0.015  52.552  1.00  0.00     0.069 A 
HETATM   20 CL1  UNL     1      20.430   0.634  51.200  1.00  0.00    -0.081 Cl
HETATM   21  C18 UNL     1      22.706   0.082  52.637  1.00  0.00     0.056 A 
BRANCH  18  22
HETATM   22  O1  UNL     1      19.282  -0.675  53.587  1.00  0.00    -0.349 OA
BRANCH  22  23
HETATM   23  C13 UNL     1      18.747  -1.977  53.653  1.00  0.00     0.179 C 
BRANCH  23  24
HETATM   24  C14 UNL     1      17.312  -2.061  53.183  1.00  0.00     0.056 C 
BRANCH  24  25
HETATM   25  C15 UNL     1      17.025  -1.050  52.136  1.00  0.00     0.005 C 
HETATM   26  C16 UNL     1      15.876  -0.608  51.762  1.00  0.00     0.184 C 
HETATM   27  F1  UNL     1      14.903  -1.234  52.502  1.00  0.00    -0.220 F 
ENDBRANCH  24  25
ENDBRANCH  23  24
ENDBRANCH  22  23
ENDBRANCH  18  22
ENDBRANCH   1  15
TORSDOF 8
ENDMDL
MODEL 8
REMARK VINA RESULT:      -6.1      4.025      7.463
REMARK  8 active torsions:
REMARK  status: ('A' for Active; 'I' for Inactive)
REMARK    1  A    between atoms: C2_2  and  C3_3 
REMARK    2  A    between atoms: C3_3  and  N1_4 
REMARK    3  A    between atoms: C8_11  and  N4_12 
REMARK    4  A    between atoms: N4_12  and  C9_13 
REMARK    5  A    between atoms: C12_16  and  O1_17 
REMARK    6  A    between atoms: O1_17  and  C13_18 
REMARK    7  A    between atoms: C13_18  and  C14_19 
REMARK    8  A    between atoms: C14_19  and  C15_20 
ROOT
HETATM    1  N4  UNL     1      26.938   1.424  52.375  1.00  0.00    -0.351 N 
HETATM    2  H15 UNL     1      27.919   1.200  52.045  1.00  0.00     0.163 HD
ENDROOT
BRANCH   1   3
HETATM    3  C8  UNL     1      26.193   0.943  53.489  1.00  0.00     0.310 C 
HETATM    4  N1  UNL     1      25.735  -0.378  53.468  1.00  0.00    -0.374 N 
HETATM    5  C4  UNL     1      25.983  -1.223  52.378  1.00  0.00     0.140 C 
HETATM    6  C5  UNL     1      27.262  -2.012  52.686  1.00  0.00     0.138 C 
HETATM    7  N2  UNL     1      28.369  -1.165  52.992  1.00  0.00    -0.395 N 
HETATM    8  C6  UNL     1      28.801  -0.288  54.027  1.00  0.00     0.117 C 
HETATM    9  H12 UNL     1      29.102  -1.183  52.233  1.00  0.00     0.159 HD
HETATM   10  C7  UNL     1      28.176   0.395  54.966  1.00  0.00     0.100 C 
HETATM   11  N3  UNL     1      27.121   1.038  54.646  1.00  0.00    -0.241 NA
BRANCH   4  12
HETATM   12  C3  UNL     1      24.909  -0.813  54.517  1.00  0.00     0.120 C 
BRANCH  12  13
HETATM   13  C2  UNL     1      23.422  -0.705  54.293  1.00  0.00     0.015 C 
HETATM   14  C1  UNL     1      22.658  -1.516  55.326  1.00  0.00     0.006 C 
ENDBRANCH  12  13
ENDBRANCH   4  12
ENDBRANCH   1   3
BRANCH   1  15
HETATM   15  C9  UNL     1      26.289   2.381  51.530  1.00  0.00     0.032 A 
HETATM   16  C10 UNL     1      26.813   2.819  50.333  1.00  0.00     0.032 A 
HETATM   17  C11 UNL     1      26.195   3.730  49.511  1.00  0.00     0.041 A 
HETATM   18  C12 UNL     1      24.983   4.256  49.879  1.00  0.00     0.090 A 
HETATM   19  C17 UNL     1      24.374   3.870  51.078  1.00  0.00     0.069 A 
HETATM   20 CL1  UNL     1      22.837   4.525  51.561  1.00  0.00    -0.081 Cl
HETATM   21  C18 UNL     1      25.072   2.950  51.831  1.00  0.00     0.056 A 
BRANCH  18  22
HETATM   22  O1  UNL     1      24.297   5.193  49.080  1.00  0.00    -0.349 OA
BRANCH  22  23
HETATM   23  C13 UNL     1      24.740   6.527  49.189  1.00  0.00     0.179 C 
BRANCH  23  24
HETATM   24  C14 UNL     1      25.521   7.001  47.984  1.00  0.00     0.056 C 
BRANCH  24  25
HETATM   25  C15 UNL     1      26.969   7.106  48.285  1.00  0.00     0.005 C 
HETATM   26  C16 UNL     1      27.609   8.131  48.729  1.00  0.00     0.184 C 
HETATM   27  F1  UNL     1      26.720   9.167  48.891  1.00  0.00    -0.220 F 
ENDBRANCH  24  25
ENDBRANCH  23  24
ENDBRANCH  22  23
ENDBRANCH  18  22
ENDBRANCH   1  15
TORSDOF 8
ENDMDL
MODEL 9
REMARK VINA RESULT:      -6.0      7.553     10.597
REMARK  8 active torsions:
REMARK  status: ('A' for Active; 'I' for Inactive)
REMARK    1  A    between atoms: C2_2  and  C3_3 
REMARK    2  A    between atoms: C3_3  and  N1_4 
REMARK    3  A    between atoms: C8_11  and  N4_12 
REMARK    4  A    between atoms: N4_12  and  C9_13 
REMARK    5  A    between atoms: C12_16  and  O1_17 
REMARK    6  A    between atoms: O1_17  and  C13_18 
REMARK    7  A    between atoms: C13_18  and  C14_19 
REMARK    8  A    between atoms: C14_19  and  C15_20 
ROOT
HETATM    1  N4  UNL     1      31.689   4.725  47.967  1.00  0.00    -0.351 N 
HETATM    2  H15 UNL     1      31.985   4.285  48.884  1.00  0.00     0.163 HD
ENDROOT
BRANCH   1   3
HETATM    3  C8  UNL     1      32.089   4.455  46.628  1.00  0.00     0.310 C 
HETATM    4  N1  UNL     1      33.420   4.685  46.267  1.00  0.00    -0.374 N 
HETATM    5  C4  UNL     1      34.354   5.180  47.187  1.00  0.00     0.140 C 
HETATM    6  C5  UNL     1      35.070   3.978  47.814  1.00  0.00     0.138 C 
HETATM    7  N2  UNL     1      34.163   3.042  48.397  1.00  0.00    -0.395 N 
HETATM    8  C6  UNL     1      33.180   2.097  47.989  1.00  0.00     0.117 C 
HETATM    9  H12 UNL     1      34.227   3.034  49.450  1.00  0.00     0.159 HD
HETATM   10  C7  UNL     1      32.434   1.962  46.910  1.00  0.00     0.100 C 
HETATM   11  N3  UNL     1      31.858   2.999  46.439  1.00  0.00    -0.241 NA
BRANCH   4  12
HETATM   12  C3  UNL     1      33.783   4.522  44.920  1.00  0.00     0.120 C 
BRANCH  12  13
HETATM   13  C2  UNL     1      33.059   5.383  43.918  1.00  0.00     0.015 C 
HETATM   14  C1  UNL     1      34.017   5.916  42.867  1.00  0.00     0.006 C 
ENDBRANCH  12  13
ENDBRANCH   4  12
ENDBRANCH   1   3
BRANCH   1  15
HETATM   15  C9  UNL     1      30.717   5.760  48.153  1.00  0.00     0.032 A 
HETATM   16  C10 UNL     1      29.360   5.561  48.024  1.00  0.00     0.032 A 
HETATM   17  C11 UNL     1      28.418   6.545  48.208  1.00  0.00     0.041 A 
HETATM   18  C12 UNL     1      28.824   7.812  48.542  1.00  0.00     0.090 A 
HETATM   19  C17 UNL     1      30.184   8.106  48.696  1.00  0.00     0.069 A 
HETATM   20 CL1  UNL     1      30.717   9.707  49.119  1.00  0.00    -0.081 Cl
HETATM   21  C18 UNL     1      31.048   7.053  48.490  1.00  0.00     0.056 A 
BRANCH  18  22
HETATM   22  O1  UNL     1      27.909   8.865  48.747  1.00  0.00    -0.349 OA
BRANCH  22  23
HETATM   23  C13 UNL     1      27.270   8.880  50.003  1.00  0.00     0.179 C 
BRANCH  23  24
HETATM   24  C14 UNL     1      25.761   8.918  49.908  1.00  0.00     0.056 C 
BRANCH  24  25
HETATM   25  C15 UNL     1      25.172   7.571  50.105  1.00  0.00     0.005 C 
HETATM   26  C16 UNL     1      24.867   6.706  49.202  1.00  0.00     0.184 C 
HETATM   27  F1  UNL     1      25.175   7.230  47.970  1.00  0.00    -0.220 F 
ENDBRANCH  24  25
ENDBRANCH  23  24
ENDBRANCH  22  23
ENDBRANCH  18  22
ENDBRANCH   1  15
TORSDOF 8
ENDMDL
