MODEL 1
REMARK VINA RESULT:      -9.0      0.000      0.000
REMARK  8 active torsions:
REMARK  status: ('A' for Active; 'I' for Inactive)
REMARK    1  A    between atoms: C2_2  and  C3_4 
REMARK    2  A    between atoms: C4_5  and  C5_6 
REMARK    3  A    between atoms: C5_6  and  N1_7 
REMARK    4  A    between atoms: N1_7  and  C6_8 
REMARK    5  A    between atoms: N4_18  and  C14_19 
REMARK    6  A    between atoms: C14_19  and  C15_20 
REMARK    7  A    between atoms: C15_20  and  C16_21 
REMARK    8  A    between atoms: C16_21  and  N5_22 
ROOT
HETATM    1  C6  UNL     1      23.089   4.003  51.575  1.00  0.00     0.137 A 
HETATM    2  N2  UNL     1      22.401   4.992  51.007  1.00  0.00    -0.224 NA
HETATM    3  C7  UNL     1      21.074   5.037  50.942  1.00  0.00     0.235 A 
HETATM    4  N3  UNL     1      20.356   4.032  51.476  1.00  0.00    -0.241 NA
HETATM    5  C8  UNL     1      20.955   2.977  52.079  1.00  0.00     0.075 A 
HETATM    6  C9  UNL     1      20.166   1.980  52.612  1.00  0.00     0.071 A 
HETATM    7  C10 UNL     1      20.781   0.917  53.222  1.00  0.00     0.098 A 
HETATM    8  C11 UNL     1      22.157   0.903  53.270  1.00  0.00     0.071 A 
HETATM    9  C12 UNL     1      22.943   1.901  52.738  1.00  0.00     0.050 A 
HETATM   10  C13 UNL     1      22.349   2.976  52.120  1.00  0.00     0.041 A 
HETATM   11  N4  UNL     1      22.904  -0.118  53.909  1.00  0.00    -0.314 N 
HETATM   12  C21 UNL     1      22.074  -1.142  54.513  1.00  0.00     0.248 C 
HETATM   13  O2  UNL     1      22.521  -2.030  55.315  1.00  0.00    -0.271 OA
HETATM   14  C22 UNL     1      20.608  -1.293  54.281  1.00  0.00     0.279 C 
HETATM   15  O3  UNL     1      20.035  -0.093  53.763  1.00  0.00    -0.340 OA
ENDROOT
BRANCH  11  16
HETATM   16  C14 UNL     1      24.277  -0.366  54.104  1.00  0.00     0.134 C 
BRANCH  16  17
HETATM   17  C15 UNL     1      25.158  -0.605  52.953  1.00  0.00     0.050 C 
BRANCH  17  18
HETATM   18  C16 UNL     1      26.506  -1.162  53.130  1.00  0.00     0.274 C 
BRANCH  18  19
HETATM   19  N5  UNL     1      27.538  -0.295  52.613  1.00  0.00     0.092 N 
HETATM   20  C17 UNL     1      27.080   1.064  52.413  1.00  0.00     0.298 C 
HETATM   21  C18 UNL     1      27.883   2.022  53.285  1.00  0.00     0.198 C 
HETATM   22  O1  UNL     1      27.790   1.538  54.599  1.00  0.00    -0.388 OA
HETATM   23  C19 UNL     1      28.536   0.369  54.753  1.00  0.00     0.198 C 
HETATM   24  C20 UNL     1      28.737  -0.342  53.433  1.00  0.00     0.298 C 
ENDBRANCH  18  19
ENDBRANCH  17  18
ENDBRANCH  16  17
ENDBRANCH  11  16
BRANCH   1  25
HETATM   25  N1  UNL     1      24.511   4.020  51.609  1.00  0.00    -0.371 N 
HETATM   26  H7  UNL     1      25.121   3.639  52.362  1.00  0.00     0.161 HD
BRANCH  25  27
HETATM   27  C5  UNL     1      25.190   4.634  50.484  1.00  0.00     0.148 C 
BRANCH  27  28
HETATM   28  C4  UNL     1      26.178   3.743  49.865  1.00  0.00    -0.004 C 
HETATM   29  C3  UNL     1      27.170   4.099  49.074  1.00  0.00     0.039 C 
BRANCH  29  30
HETATM   30  C2  UNL     1      27.722   5.314  48.496  1.00  0.00     0.106 C 
HETATM   31  C1  UNL     1      28.899   5.896  48.224  1.00  0.00     0.056 C 
HETATM   32  F1  UNL     1      26.953   6.332  48.002  1.00  0.00    -0.207 F 
ENDBRANCH  29  30
ENDBRANCH  27  28
ENDBRANCH  25  27
ENDBRANCH   1  25
TORSDOF 8
ENDMDL
MODEL 2
REMARK VINA RESULT:      -8.7      2.840      5.787
REMARK  8 active torsions:
REMARK  status: ('A' for Active; 'I' for Inactive)
REMARK    1  A    between atoms: C2_2  and  C3_4 
REMARK    2  A    between atoms: C4_5  and  C5_6 
REMARK    3  A    between atoms: C5_6  and  N1_7 
REMARK    4  A    between atoms: N1_7  and  C6_8 
REMARK    5  A    between atoms: N4_18  and  C14_19 
REMARK    6  A    between atoms: C14_19  and  C15_20 
REMARK    7  A    between atoms: C15_20  and  C16_21 
REMARK    8  A    between atoms: C16_21  and  N5_22 
ROOT
HETATM    1  C6  UNL     1      24.262  -0.021  53.487  1.00  0.00     0.137 A 
HETATM    2  N2  UNL     1      24.935  -0.518  54.523  1.00  0.00    -0.224 NA
HETATM    3  C7  UNL     1      24.380  -1.227  55.501  1.00  0.00     0.235 A 
HETATM    4  N3  UNL     1      23.058  -1.472  55.468  1.00  0.00    -0.241 NA
HETATM    5  C8  UNL     1      22.279  -1.013  54.459  1.00  0.00     0.075 A 
HETATM    6  C9  UNL     1      20.931  -1.300  54.477  1.00  0.00     0.071 A 
HETATM    7  C10 UNL     1      20.151  -0.834  53.449  1.00  0.00     0.098 A 
HETATM    8  C11 UNL     1      20.759  -0.102  52.453  1.00  0.00     0.071 A 
HETATM    9  C12 UNL     1      22.105   0.182  52.437  1.00  0.00     0.050 A 
HETATM   10  C13 UNL     1      22.908  -0.274  53.457  1.00  0.00     0.041 A 
HETATM   11  N4  UNL     1      20.067   0.396  51.320  1.00  0.00    -0.314 N 
HETATM   12  C21 UNL     1      18.658   0.052  51.314  1.00  0.00     0.248 C 
HETATM   13  O2  UNL     1      17.899   0.211  50.298  1.00  0.00    -0.271 OA
HETATM   14  C22 UNL     1      17.918  -0.522  52.474  1.00  0.00     0.279 C 
HETATM   15  O3  UNL     1      18.809  -1.096  53.430  1.00  0.00    -0.340 OA
ENDROOT
BRANCH  11  16
HETATM   16  C14 UNL     1      20.435   1.145  50.186  1.00  0.00     0.134 C 
BRANCH  16  17
HETATM   17  C15 UNL     1      20.617   2.600  50.285  1.00  0.00     0.050 C 
BRANCH  17  18
HETATM   18  C16 UNL     1      21.844   3.247  49.802  1.00  0.00     0.274 C 
BRANCH  18  19
HETATM   19  N5  UNL     1      22.207   4.405  50.586  1.00  0.00     0.092 N 
HETATM   20  C17 UNL     1      22.106   4.171  52.011  1.00  0.00     0.298 C 
HETATM   21  C18 UNL     1      23.471   4.342  52.668  1.00  0.00     0.198 C 
HETATM   22  O1  UNL     1      24.355   3.501  51.977  1.00  0.00    -0.388 OA
HETATM   23  C19 UNL     1      24.623   4.000  50.701  1.00  0.00     0.198 C 
HETATM   24  C20 UNL     1      23.518   4.911  50.215  1.00  0.00     0.298 C 
ENDBRANCH  18  19
ENDBRANCH  17  18
ENDBRANCH  16  17
ENDBRANCH  11  16
BRANCH   1  25
HETATM   25  N1  UNL     1      24.921   0.729  52.473  1.00  0.00    -0.371 N 
HETATM   26  H7  UNL     1      24.534   1.540  51.948  1.00  0.00     0.161 HD
BRANCH  25  27
HETATM   27  C5  UNL     1      26.270   0.327  52.127  1.00  0.00     0.148 C 
BRANCH  27  28
HETATM   28  C4  UNL     1      27.269   1.347  52.465  1.00  0.00    -0.004 C 
HETATM   29  C3  UNL     1      28.353   1.174  53.193  1.00  0.00     0.039 C 
BRANCH  29  30
HETATM   30  C2  UNL     1      29.024   0.104  53.915  1.00  0.00     0.106 C 
HETATM   31  C1  UNL     1      29.920  -0.876  53.728  1.00  0.00     0.056 C 
HETATM   32  F1  UNL     1      28.811  -0.160  55.240  1.00  0.00    -0.207 F 
ENDBRANCH  29  30
ENDBRANCH  27  28
ENDBRANCH  25  27
ENDBRANCH   1  25
TORSDOF 8
ENDMDL
MODEL 3
REMARK VINA RESULT:      -8.6      1.765      5.151
REMARK  8 active torsions:
REMARK  status: ('A' for Active; 'I' for Inactive)
REMARK    1  A    between atoms: C2_2  and  C3_4 
REMARK    2  A    between atoms: C4_5  and  C5_6 
REMARK    3  A    between atoms: C5_6  and  N1_7 
REMARK    4  A    between atoms: N1_7  and  C6_8 
REMARK    5  A    between atoms: N4_18  and  C14_19 
REMARK    6  A    between atoms: C14_19  and  C15_20 
REMARK    7  A    between atoms: C15_20  and  C16_21 
REMARK    8  A    between atoms: C16_21  and  N5_22 
ROOT
HETATM    1  C6  UNL     1      26.623   2.301  52.163  1.00  0.00     0.137 A 
HETATM    2  N2  UNL     1      27.907   2.549  52.419  1.00  0.00    -0.224 NA
HETATM    3  C7  UNL     1      28.596   1.976  53.400  1.00  0.00     0.235 A 
HETATM    4  N3  UNL     1      27.983   1.087  54.201  1.00  0.00    -0.241 NA
HETATM    5  C8  UNL     1      26.680   0.760  54.030  1.00  0.00     0.075 A 
HETATM    6  C9  UNL     1      26.107  -0.162  54.880  1.00  0.00     0.071 A 
HETATM    7  C10 UNL     1      24.788  -0.487  54.697  1.00  0.00     0.098 A 
HETATM    8  C11 UNL     1      24.104   0.126  53.671  1.00  0.00     0.071 A 
HETATM    9  C12 UNL     1      24.679   1.046  52.822  1.00  0.00     0.050 A 
HETATM   10  C13 UNL     1      26.000   1.389  52.987  1.00  0.00     0.041 A 
HETATM   11  N4  UNL     1      22.751  -0.159  53.356  1.00  0.00    -0.314 N 
HETATM   12  C21 UNL     1      22.163  -1.165  54.220  1.00  0.00     0.248 C 
HETATM   13  O2  UNL     1      21.039  -1.724  53.985  1.00  0.00    -0.271 OA
HETATM   14  C22 UNL     1      22.782  -1.672  55.478  1.00  0.00     0.279 C 
HETATM   15  O3  UNL     1      24.182  -1.397  55.519  1.00  0.00    -0.340 OA
ENDROOT
BRANCH  11  16
HETATM   16  C14 UNL     1      21.842   0.305  52.386  1.00  0.00     0.134 C 
BRANCH  16  17
HETATM   17  C15 UNL     1      21.019   1.494  52.649  1.00  0.00     0.050 C 
BRANCH  17  18
HETATM   18  C16 UNL     1      20.205   2.105  51.590  1.00  0.00     0.274 C 
BRANCH  18  19
HETATM   19  N5  UNL     1      20.489   3.510  51.412  1.00  0.00     0.092 N 
HETATM   20  C17 UNL     1      21.560   3.977  52.266  1.00  0.00     0.298 C 
HETATM   21  C18 UNL     1      22.717   4.498  51.420  1.00  0.00     0.198 C 
HETATM   22  O1  UNL     1      23.056   3.466  50.531  1.00  0.00    -0.388 OA
HETATM   23  C19 UNL     1      22.074   3.310  49.551  1.00  0.00     0.198 C 
HETATM   24  C20 UNL     1      20.734   3.833  50.017  1.00  0.00     0.298 C 
ENDBRANCH  18  19
ENDBRANCH  17  18
ENDBRANCH  16  17
ENDBRANCH  11  16
BRANCH   1  25
HETATM   25  N1  UNL     1      25.947   2.950  51.093  1.00  0.00    -0.371 N 
HETATM   26  H7  UNL     1      24.925   3.137  51.024  1.00  0.00     0.161 HD
BRANCH  25  27
HETATM   27  C5  UNL     1      26.757   3.399  49.977  1.00  0.00     0.148 C 
BRANCH  27  28
HETATM   28  C4  UNL     1      26.244   4.630  49.366  1.00  0.00    -0.004 C 
HETATM   29  C3  UNL     1      26.945   5.526  48.700  1.00  0.00     0.039 C 
BRANCH  29  30
HETATM   30  C2  UNL     1      28.321   5.749  48.287  1.00  0.00     0.106 C 
HETATM   31  C1  UNL     1      29.198   6.742  48.080  1.00  0.00     0.056 C 
HETATM   32  F1  UNL     1      29.182   4.739  47.954  1.00  0.00    -0.207 F 
ENDBRANCH  29  30
ENDBRANCH  27  28
ENDBRANCH  25  27
ENDBRANCH   1  25
TORSDOF 8
ENDMDL
MODEL 4
REMARK VINA RESULT:      -8.5      3.323      7.138
REMARK  8 active torsions:
REMARK  status: ('A' for Active; 'I' for Inactive)
REMARK    1  A    between atoms: C2_2  and  C3_4 
REMARK    2  A    between atoms: C4_5  and  C5_6 
REMARK    3  A    between atoms: C5_6  and  N1_7 
REMARK    4  A    between atoms: N1_7  and  C6_8 
REMARK    5  A    between atoms: N4_18  and  C14_19 
REMARK    6  A    between atoms: C14_19  and  C15_20 
REMARK    7  A    between atoms: C15_20  and  C16_21 
REMARK    8  A    between atoms: C16_21  and  N5_22 
ROOT
HETATM    1  C6  UNL     1      22.008  -0.302  52.813  1.00  0.00     0.137 A 
HETATM    2  N2  UNL     1      21.051  -0.923  53.501  1.00  0.00    -0.224 NA
HETATM    3  C7  UNL     1      21.244  -1.528  54.668  1.00  0.00     0.235 A 
HETATM    4  N3  UNL     1      22.474  -1.528  55.213  1.00  0.00    -0.241 NA
HETATM    5  C8  UNL     1      23.520  -0.925  54.598  1.00  0.00     0.075 A 
HETATM    6  C9  UNL     1      24.756  -0.955  55.207  1.00  0.00     0.071 A 
HETATM    7  C10 UNL     1      25.808  -0.339  54.579  1.00  0.00     0.098 A 
HETATM    8  C11 UNL     1      25.572   0.277  53.370  1.00  0.00     0.071 A 
HETATM    9  C12 UNL     1      24.336   0.306  52.765  1.00  0.00     0.050 A 
HETATM   10  C13 UNL     1      23.266  -0.305  53.375  1.00  0.00     0.041 A 
HETATM   11  N4  UNL     1      26.568   0.981  52.647  1.00  0.00    -0.314 N 
HETATM   12  C21 UNL     1      27.857   0.992  53.311  1.00  0.00     0.248 C 
HETATM   13  O2  UNL     1      28.829   1.738  52.950  1.00  0.00    -0.271 OA
HETATM   14  C22 UNL     1      28.215   0.145  54.485  1.00  0.00     0.279 C 
HETATM   15  O3  UNL     1      27.051  -0.347  55.149  1.00  0.00    -0.340 OA
ENDROOT
BRANCH  11  16
HETATM   16  C14 UNL     1      26.593   1.686  51.428  1.00  0.00     0.134 C 
BRANCH  16  17
HETATM   17  C15 UNL     1      26.124   3.077  51.365  1.00  0.00     0.050 C 
BRANCH  17  18
HETATM   18  C16 UNL     1      25.122   3.497  50.377  1.00  0.00     0.274 C 
BRANCH  18  19
HETATM   19  N5  UNL     1      23.769   3.250  50.817  1.00  0.00     0.092 N 
HETATM   20  C17 UNL     1      23.534   3.689  52.177  1.00  0.00     0.298 C 
HETATM   21  C18 UNL     1      22.451   4.763  52.201  1.00  0.00     0.198 C 
HETATM   22  O1  UNL     1      22.861   5.761  51.304  1.00  0.00    -0.388 OA
HETATM   23  C19 UNL     1      22.750   5.320  49.985  1.00  0.00     0.198 C 
HETATM   24  C20 UNL     1      22.796   3.811  49.895  1.00  0.00     0.298 C 
ENDBRANCH  18  19
ENDBRANCH  17  18
ENDBRANCH  16  17
ENDBRANCH  11  16
BRANCH   1  25
HETATM   25  N1  UNL     1      21.729   0.327  51.568  1.00  0.00    -0.371 N 
HETATM   26  H7  UNL     1      22.266   0.219  50.682  1.00  0.00     0.161 HD
BRANCH  25  27
HETATM   27  C5  UNL     1      20.584   1.215  51.519  1.00  0.00     0.148 C 
BRANCH  27  28
HETATM   28  C4  UNL     1      19.585   0.795  50.529  1.00  0.00    -0.004 C 
HETATM   29  C3  UNL     1      18.436   0.199  50.778  1.00  0.00     0.039 C 
BRANCH  29  30
HETATM   30  C2  UNL     1      17.678  -0.275  51.924  1.00  0.00     0.106 C 
HETATM   31  C1  UNL     1      17.650  -1.280  52.811  1.00  0.00     0.056 C 
HETATM   32  F1  UNL     1      16.589   0.381  52.432  1.00  0.00    -0.207 F 
ENDBRANCH  29  30
ENDBRANCH  27  28
ENDBRANCH  25  27
ENDBRANCH   1  25
TORSDOF 8
ENDMDL
MODEL 5
REMARK VINA RESULT:      -8.4      2.324      5.253
REMARK  8 active torsions:
REMARK  status: ('A' for Active; 'I' for Inactive)
REMARK    1  A    between atoms: C2_2  and  C3_4 
REMARK    2  A    between atoms: C4_5  and  C5_6 
REMARK    3  A    between atoms: C5_6  and  N1_7 
REMARK    4  A    between atoms: N1_7  and  C6_8 
REMARK    5  A    between atoms: N4_18  and  C14_19 
REMARK    6  A    between atoms: C14_19  and  C15_20 
REMARK    7  A    between atoms: C15_20  and  C16_21 
REMARK    8  A    between atoms: C16_21  and  N5_22 
ROOT
HETATM    1  C6  UNL     1      26.231   2.309  52.099  1.00  0.00     0.137 A 
HETATM    2  N2  UNL     1      27.534   2.126  52.304  1.00  0.00    -0.224 NA
HETATM    3  C7  UNL     1      28.041   1.153  53.055  1.00  0.00     0.235 A 
HETATM    4  N3  UNL     1      27.209   0.286  53.657  1.00  0.00    -0.241 NA
HETATM    5  C8  UNL     1      25.865   0.380  53.515  1.00  0.00     0.075 A 
HETATM    6  C9  UNL     1      25.062  -0.542  54.153  1.00  0.00     0.071 A 
HETATM    7  C10 UNL     1      23.703  -0.440  54.001  1.00  0.00     0.098 A 
HETATM    8  C11 UNL     1      23.212   0.580  53.217  1.00  0.00     0.071 A 
HETATM    9  C12 UNL     1      24.016   1.498  52.579  1.00  0.00     0.050 A 
HETATM   10  C13 UNL     1      25.382   1.417  52.718  1.00  0.00     0.041 A 
HETATM   11  N4  UNL     1      21.832   0.763  52.950  1.00  0.00    -0.314 N 
HETATM   12  C21 UNL     1      20.990  -0.235  53.581  1.00  0.00     0.248 C 
HETATM   13  O2  UNL     1      19.752  -0.389  53.306  1.00  0.00    -0.271 OA
HETATM   14  C22 UNL     1      21.451  -1.200  54.621  1.00  0.00     0.279 C 
HETATM   15  O3  UNL     1      22.872  -1.334  54.618  1.00  0.00    -0.340 OA
ENDROOT
BRANCH  11  16
HETATM   16  C14 UNL     1      21.083   1.691  52.201  1.00  0.00     0.134 C 
BRANCH  16  17
HETATM   17  C15 UNL     1      20.627   1.355  50.845  1.00  0.00     0.050 C 
BRANCH  17  18
HETATM   18  C16 UNL     1      21.577   0.935  49.807  1.00  0.00     0.274 C 
BRANCH  18  19
HETATM   19  N5  UNL     1      21.230   1.440  48.499  1.00  0.00     0.092 N 
HETATM   20  C17 UNL     1      20.123   2.372  48.535  1.00  0.00     0.298 C 
HETATM   21  C18 UNL     1      20.567   3.736  48.019  1.00  0.00     0.198 C 
HETATM   22  O1  UNL     1      21.691   4.101  48.776  1.00  0.00    -0.388 OA
HETATM   23  C19 UNL     1      22.798   3.325  48.430  1.00  0.00     0.198 C 
HETATM   24  C20 UNL     1      22.385   2.004  47.821  1.00  0.00     0.298 C 
ENDBRANCH  18  19
ENDBRANCH  17  18
ENDBRANCH  16  17
ENDBRANCH  11  16
BRANCH   1  25
HETATM   25  N1  UNL     1      25.757   3.371  51.280  1.00  0.00    -0.371 N 
HETATM   26  H7  UNL     1      24.959   4.008  51.486  1.00  0.00     0.161 HD
BRANCH  25  27
HETATM   27  C5  UNL     1      26.450   3.597  50.027  1.00  0.00     0.148 C 
BRANCH  27  28
HETATM   28  C4  UNL     1      26.066   4.862  49.388  1.00  0.00    -0.004 C 
HETATM   29  C3  UNL     1      26.856   5.670  48.710  1.00  0.00     0.039 C 
BRANCH  29  30
HETATM   30  C2  UNL     1      28.250   5.745  48.301  1.00  0.00     0.106 C 
HETATM   31  C1  UNL     1      29.213   6.642  48.046  1.00  0.00     0.056 C 
HETATM   32  F1  UNL     1      29.019   4.644  48.040  1.00  0.00    -0.207 F 
ENDBRANCH  29  30
ENDBRANCH  27  28
ENDBRANCH  25  27
ENDBRANCH   1  25
TORSDOF 8
ENDMDL
MODEL 6
REMARK VINA RESULT:      -8.3      2.097      5.688
REMARK  8 active torsions:
REMARK  status: ('A' for Active; 'I' for Inactive)
REMARK    1  A    between atoms: C2_2  and  C3_4 
REMARK    2  A    between atoms: C4_5  and  C5_6 
REMARK    3  A    between atoms: C5_6  and  N1_7 
REMARK    4  A    between atoms: N1_7  and  C6_8 
REMARK    5  A    between atoms: N4_18  and  C14_19 
REMARK    6  A    between atoms: C14_19  and  C15_20 
REMARK    7  A    between atoms: C15_20  and  C16_21 
REMARK    8  A    between atoms: C16_21  and  N5_22 
ROOT
HETATM    1  C6  UNL     1      27.052   1.753  52.798  1.00  0.00     0.137 A 
HETATM    2  N2  UNL     1      28.222   1.312  53.259  1.00  0.00    -0.224 NA
HETATM    3  C7  UNL     1      28.361   0.250  54.046  1.00  0.00     0.235 A 
HETATM    4  N3  UNL     1      27.268  -0.441  54.415  1.00  0.00    -0.241 NA
HETATM    5  C8  UNL     1      26.029  -0.081  54.003  1.00  0.00     0.075 A 
HETATM    6  C9  UNL     1      24.948  -0.831  54.411  1.00  0.00     0.071 A 
HETATM    7  C10 UNL     1      23.698  -0.459  53.986  1.00  0.00     0.098 A 
HETATM    8  C11 UNL     1      23.591   0.647  53.173  1.00  0.00     0.071 A 
HETATM    9  C12 UNL     1      24.673   1.394  52.766  1.00  0.00     0.050 A 
HETATM   10  C13 UNL     1      25.936   1.041  53.180  1.00  0.00     0.041 A 
HETATM   11  N4  UNL     1      22.360   1.103  52.636  1.00  0.00    -0.314 N 
HETATM   12  C21 UNL     1      21.228   0.285  53.026  1.00  0.00     0.248 C 
HETATM   13  O2  UNL     1      20.071   0.383  52.492  1.00  0.00    -0.271 OA
HETATM   14  C22 UNL     1      21.262  -0.764  54.085  1.00  0.00     0.279 C 
HETATM   15  O3  UNL     1      22.598  -1.177  54.369  1.00  0.00    -0.340 OA
ENDROOT
BRANCH  11  16
HETATM   16  C14 UNL     1      21.981   2.170  51.799  1.00  0.00     0.134 C 
BRANCH  16  17
HETATM   17  C15 UNL     1      21.673   3.488  52.370  1.00  0.00     0.050 C 
BRANCH  17  18
HETATM   18  C16 UNL     1      22.355   4.700  51.897  1.00  0.00     0.274 C 
BRANCH  18  19
HETATM   19  N5  UNL     1      22.024   5.025  50.529  1.00  0.00     0.092 N 
HETATM   20  C17 UNL     1      20.629   5.368  50.357  1.00  0.00     0.298 C 
HETATM   21  C18 UNL     1      20.499   6.798  49.844  1.00  0.00     0.198 C 
HETATM   22  O1  UNL     1      21.217   7.608  50.737  1.00  0.00    -0.388 OA
HETATM   23  C19 UNL     1      22.591   7.411  50.594  1.00  0.00     0.198 C 
HETATM   24  C20 UNL     1      22.901   6.055  49.998  1.00  0.00     0.298 C 
ENDBRANCH  18  19
ENDBRANCH  17  18
ENDBRANCH  16  17
ENDBRANCH  11  16
BRANCH   1  25
HETATM   25  N1  UNL     1      26.977   2.898  51.957  1.00  0.00    -0.371 N 
HETATM   26  H7  UNL     1      27.094   3.891  52.246  1.00  0.00     0.161 HD
BRANCH  25  27
HETATM   27  C5  UNL     1      26.708   2.667  50.551  1.00  0.00     0.148 C 
BRANCH  27  28
HETATM   28  C4  UNL     1      25.799   3.666  49.977  1.00  0.00    -0.004 C 
HETATM   29  C3  UNL     1      26.135   4.684  49.211  1.00  0.00     0.039 C 
BRANCH  29  30
HETATM   30  C2  UNL     1      27.335   5.264  48.631  1.00  0.00     0.106 C 
HETATM   31  C1  UNL     1      27.857   6.450  48.286  1.00  0.00     0.056 C 
HETATM   32  F1  UNL     1      28.415   4.523  48.234  1.00  0.00    -0.207 F 
ENDBRANCH  29  30
ENDBRANCH  27  28
ENDBRANCH  25  27
ENDBRANCH   1  25
TORSDOF 8
ENDMDL
MODEL 7
REMARK VINA RESULT:      -8.3      2.806      6.273
REMARK  8 active torsions:
REMARK  status: ('A' for Active; 'I' for Inactive)
REMARK    1  A    between atoms: C2_2  and  C3_4 
REMARK    2  A    between atoms: C4_5  and  C5_6 
REMARK    3  A    between atoms: C5_6  and  N1_7 
REMARK    4  A    between atoms: N1_7  and  C6_8 
REMARK    5  A    between atoms: N4_18  and  C14_19 
REMARK    6  A    between atoms: C14_19  and  C15_20 
REMARK    7  A    between atoms: C15_20  and  C16_21 
REMARK    8  A    between atoms: C16_21  and  N5_22 
ROOT
HETATM    1  C6  UNL     1      21.972  -0.459  52.883  1.00  0.00     0.137 A 
HETATM    2  N2  UNL     1      21.071  -1.125  53.604  1.00  0.00    -0.224 NA
HETATM    3  C7  UNL     1      21.331  -1.703  54.773  1.00  0.00     0.235 A 
HETATM    4  N3  UNL     1      22.573  -1.625  55.283  1.00  0.00    -0.241 NA
HETATM    5  C8  UNL     1      23.565  -0.972  54.633  1.00  0.00     0.075 A 
HETATM    6  C9  UNL     1      24.817  -0.922  55.208  1.00  0.00     0.071 A 
HETATM    7  C10 UNL     1      25.814  -0.255  54.543  1.00  0.00     0.098 A 
HETATM    8  C11 UNL     1      25.511   0.330  53.334  1.00  0.00     0.071 A 
HETATM    9  C12 UNL     1      24.259   0.280  52.763  1.00  0.00     0.050 A 
HETATM   10  C13 UNL     1      23.243  -0.383  53.410  1.00  0.00     0.041 A 
HETATM   11  N4  UNL     1      26.444   1.081  52.576  1.00  0.00    -0.314 N 
HETATM   12  C21 UNL     1      27.748   1.174  53.204  1.00  0.00     0.248 C 
HETATM   13  O2  UNL     1      28.665   1.971  52.808  1.00  0.00    -0.271 OA
HETATM   14  C22 UNL     1      28.186   0.365  54.377  1.00  0.00     0.279 C 
HETATM   15  O3  UNL     1      27.071  -0.184  55.079  1.00  0.00    -0.340 OA
ENDROOT
BRANCH  11  16
HETATM   16  C14 UNL     1      26.396   1.770  51.349  1.00  0.00     0.134 C 
BRANCH  16  17
HETATM   17  C15 UNL     1      25.628   3.017  51.228  1.00  0.00     0.050 C 
BRANCH  17  18
HETATM   18  C16 UNL     1      25.531   3.728  49.946  1.00  0.00     0.274 C 
BRANCH  18  19
HETATM   19  N5  UNL     1      25.773   5.146  50.077  1.00  0.00     0.092 N 
HETATM   20  C17 UNL     1      26.382   5.722  48.897  1.00  0.00     0.298 C 
HETATM   21  C18 UNL     1      25.468   6.787  48.302  1.00  0.00     0.198 C 
HETATM   22  O1  UNL     1      24.221   6.175  48.104  1.00  0.00    -0.388 OA
HETATM   23  C19 UNL     1      23.580   5.943  49.322  1.00  0.00     0.198 C 
HETATM   24  C20 UNL     1      24.568   5.860  50.464  1.00  0.00     0.298 C 
ENDBRANCH  18  19
ENDBRANCH  17  18
ENDBRANCH  16  17
ENDBRANCH  11  16
BRANCH   1  25
HETATM   25  N1  UNL     1      21.624   0.136  51.639  1.00  0.00    -0.371 N 
HETATM   26  H7  UNL     1      21.914  -0.186  50.692  1.00  0.00     0.161 HD
BRANCH  25  27
HETATM   27  C5  UNL     1      20.782   1.316  51.685  1.00  0.00     0.148 C 
BRANCH  27  28
HETATM   28  C4  UNL     1      21.486   2.531  51.260  1.00  0.00    -0.004 C 
HETATM   29  C3  UNL     1      21.930   2.798  50.048  1.00  0.00     0.039 C 
BRANCH  29  30
HETATM   30  C2  UNL     1      21.963   2.174  48.736  1.00  0.00     0.106 C 
HETATM   31  C1  UNL     1      22.631   2.225  47.574  1.00  0.00     0.056 C 
HETATM   32  F1  UNL     1      21.109   1.174  48.354  1.00  0.00    -0.207 F 
ENDBRANCH  29  30
ENDBRANCH  27  28
ENDBRANCH  25  27
ENDBRANCH   1  25
TORSDOF 8
ENDMDL
MODEL 8
REMARK VINA RESULT:      -8.1      2.277      5.996
REMARK  8 active torsions:
REMARK  status: ('A' for Active; 'I' for Inactive)
REMARK    1  A    between atoms: C2_2  and  C3_4 
REMARK    2  A    between atoms: C4_5  and  C5_6 
REMARK    3  A    between atoms: C5_6  and  N1_7 
REMARK    4  A    between atoms: N1_7  and  C6_8 
REMARK    5  A    between atoms: N4_18  and  C14_19 
REMARK    6  A    between atoms: C14_19  and  C15_20 
REMARK    7  A    between atoms: C15_20  and  C16_21 
REMARK    8  A    between atoms: C16_21  and  N5_22 
ROOT
HETATM    1  C6  UNL     1      27.205   1.792  52.961  1.00  0.00     0.137 A 
HETATM    2  N2  UNL     1      28.413   1.503  53.443  1.00  0.00    -0.224 NA
HETATM    3  C7  UNL     1      28.652   0.535  54.322  1.00  0.00     0.235 A 
HETATM    4  N3  UNL     1      27.629  -0.213  54.771  1.00  0.00    -0.241 NA
HETATM    5  C8  UNL     1      26.360  -0.005  54.346  1.00  0.00     0.075 A 
HETATM    6  C9  UNL     1      25.353  -0.807  54.838  1.00  0.00     0.071 A 
HETATM    7  C10 UNL     1      24.072  -0.589  54.399  1.00  0.00     0.098 A 
HETATM    8  C11 UNL     1      23.860   0.422  53.489  1.00  0.00     0.071 A 
HETATM    9  C12 UNL     1      24.867   1.221  52.998  1.00  0.00     0.050 A 
HETATM   10  C13 UNL     1      26.160   1.022  53.423  1.00  0.00     0.041 A 
HETATM   11  N4  UNL     1      22.589   0.714  52.931  1.00  0.00    -0.314 N 
HETATM   12  C21 UNL     1      21.538  -0.161  53.412  1.00  0.00     0.248 C 
HETATM   13  O2  UNL     1      20.374  -0.217  52.889  1.00  0.00    -0.271 OA
HETATM   14  C22 UNL     1      21.674  -1.099  54.563  1.00  0.00     0.279 C 
HETATM   15  O3  UNL     1      23.044  -1.363  54.864  1.00  0.00    -0.340 OA
ENDROOT
BRANCH  11  16
HETATM   16  C14 UNL     1      22.110   1.660  52.005  1.00  0.00     0.134 C 
BRANCH  16  17
HETATM   17  C15 UNL     1      22.196   1.395  50.562  1.00  0.00     0.050 C 
BRANCH  17  18
HETATM   18  C16 UNL     1      21.775   2.402  49.578  1.00  0.00     0.274 C 
BRANCH  18  19
HETATM   19  N5  UNL     1      20.688   1.943  48.745  1.00  0.00     0.092 N 
HETATM   20  C17 UNL     1      19.499   1.618  49.503  1.00  0.00     0.298 C 
HETATM   21  C18 UNL     1      18.341   2.510  49.071  1.00  0.00     0.198 C 
HETATM   22  O1  UNL     1      18.792   3.834  49.189  1.00  0.00    -0.388 OA
HETATM   23  C19 UNL     1      19.726   4.132  48.196  1.00  0.00     0.198 C 
HETATM   24  C20 UNL     1      20.403   2.883  47.674  1.00  0.00     0.298 C 
ENDBRANCH  18  19
ENDBRANCH  17  18
ENDBRANCH  16  17
ENDBRANCH  11  16
BRANCH   1  25
HETATM   25  N1  UNL     1      27.021   2.842  52.019  1.00  0.00    -0.371 N 
HETATM   26  H7  UNL     1      27.135   3.862  52.194  1.00  0.00     0.161 HD
BRANCH  25  27
HETATM   27  C5  UNL     1      26.633   2.462  50.675  1.00  0.00     0.148 C 
BRANCH  27  28
HETATM   28  C4  UNL     1      25.661   3.389  50.083  1.00  0.00    -0.004 C 
HETATM   29  C3  UNL     1      25.932   4.427  49.318  1.00  0.00     0.039 C 
BRANCH  29  30
HETATM   30  C2  UNL     1      27.095   5.093  48.753  1.00  0.00     0.106 C 
HETATM   31  C1  UNL     1      27.552   6.319  48.457  1.00  0.00     0.056 C 
HETATM   32  F1  UNL     1      28.207   4.426  48.314  1.00  0.00    -0.207 F 
ENDBRANCH  29  30
ENDBRANCH  27  28
ENDBRANCH  25  27
ENDBRANCH   1  25
TORSDOF 8
ENDMDL
MODEL 9
REMARK VINA RESULT:      -7.9      1.989      2.861
REMARK  8 active torsions:
REMARK  status: ('A' for Active; 'I' for Inactive)
REMARK    1  A    between atoms: C2_2  and  C3_4 
REMARK    2  A    between atoms: C4_5  and  C5_6 
REMARK    3  A    between atoms: C5_6  and  N1_7 
REMARK    4  A    between atoms: N1_7  and  C6_8 
REMARK    5  A    between atoms: N4_18  and  C14_19 
REMARK    6  A    between atoms: C14_19  and  C15_20 
REMARK    7  A    between atoms: C15_20  and  C16_21 
REMARK    8  A    between atoms: C16_21  and  N5_22 
ROOT
HETATM    1  C6  UNL     1      23.728   6.927  50.921  1.00  0.00     0.137 A 
HETATM    2  N2  UNL     1      23.121   7.989  50.392  1.00  0.00    -0.224 NA
HETATM    3  C7  UNL     1      21.823   8.043  50.113  1.00  0.00     0.235 A 
HETATM    4  N3  UNL     1      21.050   6.974  50.372  1.00  0.00    -0.241 NA
HETATM    5  C8  UNL     1      21.564   5.843  50.911  1.00  0.00     0.075 A 
HETATM    6  C9  UNL     1      20.721   4.781  51.158  1.00  0.00     0.071 A 
HETATM    7  C10 UNL     1      21.250   3.640  51.706  1.00  0.00     0.098 A 
HETATM    8  C11 UNL     1      22.600   3.618  51.981  1.00  0.00     0.071 A 
HETATM    9  C12 UNL     1      23.439   4.681  51.735  1.00  0.00     0.050 A 
HETATM   10  C13 UNL     1      22.931   5.834  51.185  1.00  0.00     0.041 A 
HETATM   11  N4  UNL     1      23.253   2.515  52.586  1.00  0.00    -0.314 N 
HETATM   12  C21 UNL     1      22.358   1.416  52.891  1.00  0.00     0.248 C 
HETATM   13  O2  UNL     1      22.686   0.422  53.623  1.00  0.00    -0.271 OA
HETATM   14  C22 UNL     1      20.955   1.302  52.398  1.00  0.00     0.279 C 
HETATM   15  O3  UNL     1      20.448   2.564  51.966  1.00  0.00    -0.340 OA
ENDROOT
BRANCH  11  16
HETATM   16  C14 UNL     1      24.580   2.241  52.971  1.00  0.00     0.134 C 
BRANCH  16  17
HETATM   17  C15 UNL     1      25.465   1.471  52.086  1.00  0.00     0.050 C 
BRANCH  17  18
HETATM   18  C16 UNL     1      26.923   1.488  52.267  1.00  0.00     0.274 C 
BRANCH  18  19
HETATM   19  N5  UNL     1      27.310   1.668  53.647  1.00  0.00     0.092 N 
HETATM   20  C17 UNL     1      27.062   0.493  54.455  1.00  0.00     0.298 C 
HETATM   21  C18 UNL     1      28.371  -0.033  55.033  1.00  0.00     0.198 C 
HETATM   22  O1  UNL     1      29.240  -0.217  53.946  1.00  0.00    -0.388 OA
HETATM   23  C19 UNL     1      29.663   1.011  53.434  1.00  0.00     0.198 C 
HETATM   24  C20 UNL     1      28.687   2.118  53.761  1.00  0.00     0.298 C 
ENDBRANCH  18  19
ENDBRANCH  17  18
ENDBRANCH  16  17
ENDBRANCH  11  16
BRANCH   1  25
HETATM   25  N1  UNL     1      25.124   6.939  51.195  1.00  0.00    -0.371 N 
HETATM   26  H7  UNL     1      25.612   6.433  51.964  1.00  0.00     0.161 HD
BRANCH  25  27
HETATM   27  C5  UNL     1      25.961   7.737  50.321  1.00  0.00     0.148 C 
BRANCH  27  28
HETATM   28  C4  UNL     1      25.865   7.326  48.915  1.00  0.00    -0.004 C 
HETATM   29  C3  UNL     1      26.302   6.196  48.396  1.00  0.00     0.039 C 
BRANCH  29  30
HETATM   30  C2  UNL     1      26.979   4.985  48.831  1.00  0.00     0.106 C 
HETATM   31  C1  UNL     1      26.731   3.812  49.433  1.00  0.00     0.056 C 
HETATM   32  F1  UNL     1      28.320   4.769  48.664  1.00  0.00    -0.207 F 
ENDBRANCH  29  30
ENDBRANCH  27  28
ENDBRANCH  25  27
ENDBRANCH   1  25
TORSDOF 8
ENDMDL
