MODEL 1
REMARK VINA RESULT:      -8.1      0.000      0.000
REMARK  6 active torsions:
REMARK  status: ('A' for Active; 'I' for Inactive)
REMARK    1  A    between atoms: C2_2  and  C3_3 
REMARK    2  A    between atoms: C3_3  and  C4_4 
REMARK    3  A    between atoms: C3_3  and  C7_9 
REMARK    4  A    between atoms: C4_4  and  S1_5 
REMARK    5  A    between atoms: S1_5  and  C5_7 
REMARK    6  A    between atoms: C17_20  and  C18_21 
ROOT
HETATM    1  C7  UNL     1      24.222   0.203  52.816  1.00  0.00     0.024 A 
HETATM    2  C8  UNL     1      24.475   1.057  52.234  1.00  0.00     0.012 A 
HETATM    3  O2  UNL     1      25.275   2.140  51.803  1.00  0.00     0.000 OA
HETATM    4  C9  UNL     1      24.387   2.580  50.855  1.00  0.00    -0.036 A 
HETATM    5  C10 UNL     1      23.548   3.088  49.879  1.00  0.00     0.009 A 
HETATM    6  C11 UNL     1      22.299   2.617  49.510  1.00  0.00     0.007 A 
HETATM    7  C12 UNL     1      21.860   1.519  50.211  1.00  0.00    -0.057 A 
HETATM    8  C13 UNL     1      22.924   1.309  51.047  1.00  0.00    -0.003 A 
HETATM    9  C14 UNL     1      24.211   1.402  51.765  1.00  0.00     0.030 A 
HETATM   10  C15 UNL     1      20.699   0.625  50.576  1.00  0.00     0.066 C 
HETATM   11  C16 UNL     1      20.958   0.322  52.083  1.00  0.00    -0.015 C 
HETATM   12  C17 UNL     1      22.129   0.052  52.798  1.00  0.00    -0.056 C 
HETATM   13  O3  UNL     1      23.546  -0.113  52.659  1.00  0.00     0.000 OA
ENDROOT
BRANCH   1  14
HETATM   14  C3  UNL     1      25.607   0.322  53.474  1.00  0.00    -0.060 C 
BRANCH  14  15
HETATM   15  C2  UNL     1      25.965  -0.879  53.056  1.00  0.00    -0.026 C 
HETATM   16  C1  UNL     1      26.655  -1.977  52.364  1.00  0.00     0.036 C 
ENDBRANCH  14  15
BRANCH  14  17
HETATM   17  C4  UNL     1      26.414   1.285  54.310  1.00  0.00     0.143 C 
BRANCH  17  18
HETATM   18  S1  UNL     1      28.110   1.328  53.722  1.00  0.00     0.018 S 
HETATM   19  O1  UNL     1      28.735   2.660  54.108  1.00  0.00    -0.258 OA
BRANCH  18  20
HETATM   20  C5  UNL     1      29.063   0.039  54.574  1.00  0.00     0.104 C 
HETATM   21  C6  UNL     1      29.933  -0.690  53.586  1.00  0.00     0.018 C 
ENDBRANCH  18  20
ENDBRANCH  17  18
ENDBRANCH  14  17
ENDBRANCH   1  14
BRANCH  12  22
HETATM   22  C18 UNL     1      21.976  -0.177  54.254  1.00  0.00     0.034 C 
HETATM   23  C19 UNL     1      21.505  -1.595  54.537  1.00  0.00     0.010 C 
ENDBRANCH  12  22
TORSDOF 6
ENDMDL
MODEL 2
REMARK VINA RESULT:      -7.8      1.291      3.467
REMARK  6 active torsions:
REMARK  status: ('A' for Active; 'I' for Inactive)
REMARK    1  A    between atoms: C2_2  and  C3_3 
REMARK    2  A    between atoms: C3_3  and  C4_4 
REMARK    3  A    between atoms: C3_3  and  C7_9 
REMARK    4  A    between atoms: C4_4  and  S1_5 
REMARK    5  A    between atoms: S1_5  and  C5_7 
REMARK    6  A    between atoms: C17_20  and  C18_21 
ROOT
HETATM    1  C7  UNL     1      24.308   1.481  52.005  1.00  0.00     0.024 A 
HETATM    2  C8  UNL     1      24.333   0.686  52.712  1.00  0.00     0.012 A 
HETATM    3  O2  UNL     1      24.917  -0.351  53.475  1.00  0.00     0.000 OA
HETATM    4  C9  UNL     1      23.758  -0.698  54.119  1.00  0.00    -0.036 A 
HETATM    5  C10 UNL     1      22.633  -1.112  54.812  1.00  0.00     0.009 A 
HETATM    6  C11 UNL     1      21.347  -0.608  54.712  1.00  0.00     0.007 A 
HETATM    7  C12 UNL     1      21.192   0.419  53.810  1.00  0.00    -0.057 A 
HETATM    8  C13 UNL     1      22.475   0.548  53.349  1.00  0.00    -0.003 A 
HETATM    9  C14 UNL     1      23.922   0.387  53.098  1.00  0.00     0.030 A 
HETATM   10  C15 UNL     1      20.239   1.274  53.010  1.00  0.00     0.066 C 
HETATM   11  C16 UNL     1      20.981   1.433  51.647  1.00  0.00    -0.015 C 
HETATM   12  C17 UNL     1      22.327   1.633  51.329  1.00  0.00    -0.056 C 
HETATM   13  O3  UNL     1      23.628   1.810  51.905  1.00  0.00     0.000 OA
ENDROOT
BRANCH   1  14
HETATM   14  C3  UNL     1      25.827   1.300  51.844  1.00  0.00    -0.060 C 
BRANCH  14  15
HETATM   15  C2  UNL     1      25.932   2.398  51.117  1.00  0.00    -0.026 C 
HETATM   16  C1  UNL     1      26.367   3.383  50.116  1.00  0.00     0.036 C 
ENDBRANCH  14  15
BRANCH  14  17
HETATM   17  C4  UNL     1      26.928   0.346  52.236  1.00  0.00     0.143 C 
BRANCH  17  18
HETATM   18  S1  UNL     1      28.083   1.166  53.340  1.00  0.00     0.018 S 
HETATM   19  O1  UNL     1      27.311   2.098  54.261  1.00  0.00    -0.258 OA
BRANCH  18  20
HETATM   20  C5  UNL     1      28.872  -0.079  54.400  1.00  0.00     0.104 C 
HETATM   21  C6  UNL     1      29.875  -0.867  53.602  1.00  0.00     0.018 C 
ENDBRANCH  18  20
ENDBRANCH  17  18
ENDBRANCH  14  17
ENDBRANCH   1  14
BRANCH  12  22
HETATM   22  C18 UNL     1      22.660   1.722  49.888  1.00  0.00     0.034 C 
HETATM   23  C19 UNL     1      21.537   1.155  49.033  1.00  0.00     0.010 C 
ENDBRANCH  12  22
TORSDOF 6
ENDMDL
MODEL 3
REMARK VINA RESULT:      -7.3      1.930      2.141
REMARK  6 active torsions:
REMARK  status: ('A' for Active; 'I' for Inactive)
REMARK    1  A    between atoms: C2_2  and  C3_3 
REMARK    2  A    between atoms: C3_3  and  C4_4 
REMARK    3  A    between atoms: C3_3  and  C7_9 
REMARK    4  A    between atoms: C4_4  and  S1_5 
REMARK    5  A    between atoms: S1_5  and  C5_7 
REMARK    6  A    between atoms: C17_20  and  C18_21 
ROOT
HETATM    1  C7  UNL     1      24.020   0.391  52.566  1.00  0.00     0.024 A 
HETATM    2  C8  UNL     1      24.316   1.384  52.810  1.00  0.00     0.012 A 
HETATM    3  O2  UNL     1      25.180   2.399  53.280  1.00  0.00     0.000 OA
HETATM    4  C9  UNL     1      24.296   3.424  53.064  1.00  0.00    -0.036 A 
HETATM    5  C10 UNL     1      23.464   4.514  52.877  1.00  0.00     0.009 A 
HETATM    6  C11 UNL     1      22.171   4.515  52.381  1.00  0.00     0.007 A 
HETATM    7  C12 UNL     1      21.675   3.276  52.046  1.00  0.00    -0.057 A 
HETATM    8  C13 UNL     1      22.748   2.482  52.349  1.00  0.00    -0.003 A 
HETATM    9  C14 UNL     1      24.063   1.970  52.785  1.00  0.00     0.030 A 
HETATM   10  C15 UNL     1      20.463   2.443  51.703  1.00  0.00     0.066 C 
HETATM   11  C16 UNL     1      20.751   1.099  52.438  1.00  0.00    -0.015 C 
HETATM   12  C17 UNL     1      21.922   0.354  52.608  1.00  0.00    -0.056 C 
HETATM   13  O3  UNL     1      23.318   0.319  52.280  1.00  0.00     0.000 OA
ENDROOT
BRANCH   1  14
HETATM   14  C3  UNL     1      25.432  -0.061  52.975  1.00  0.00    -0.060 C 
BRANCH  14  15
HETATM   15  C2  UNL     1      24.985  -0.630  54.079  1.00  0.00    -0.026 C 
HETATM   16  C1  UNL     1      24.843  -1.067  55.476  1.00  0.00     0.036 C 
ENDBRANCH  14  15
BRANCH  14  17
HETATM   17  C4  UNL     1      26.860   0.020  52.493  1.00  0.00     0.143 C 
BRANCH  17  18
HETATM   18  S1  UNL     1      27.984  -0.224  53.873  1.00  0.00     0.018 S 
HETATM   19  O1  UNL     1      28.688  -1.562  53.707  1.00  0.00    -0.258 OA
BRANCH  18  20
HETATM   20  C5  UNL     1      29.271   1.054  53.818  1.00  0.00     0.104 C 
HETATM   21  C6  UNL     1      28.641   2.406  53.620  1.00  0.00     0.018 C 
ENDBRANCH  18  20
ENDBRANCH  17  18
ENDBRANCH  14  17
ENDBRANCH   1  14
BRANCH  12  22
HETATM   22  C18 UNL     1      21.804  -0.893  53.398  1.00  0.00     0.034 C 
HETATM   23  C19 UNL     1      21.268  -0.606  54.793  1.00  0.00     0.010 C 
ENDBRANCH  12  22
TORSDOF 6
ENDMDL
MODEL 4
REMARK VINA RESULT:      -7.1      2.986      6.338
REMARK  6 active torsions:
REMARK  status: ('A' for Active; 'I' for Inactive)
REMARK    1  A    between atoms: C2_2  and  C3_3 
REMARK    2  A    between atoms: C3_3  and  C4_4 
REMARK    3  A    between atoms: C3_3  and  C7_9 
REMARK    4  A    between atoms: C4_4  and  S1_5 
REMARK    5  A    between atoms: S1_5  and  C5_7 
REMARK    6  A    between atoms: C17_20  and  C18_21 
ROOT
HETATM    1  C7  UNL     1      22.176   0.937  51.389  1.00  0.00     0.024 A 
HETATM    2  C8  UNL     1      21.647   0.415  52.150  1.00  0.00     0.012 A 
HETATM    3  O2  UNL     1      20.513  -0.103  52.817  1.00  0.00     0.000 OA
HETATM    4  C9  UNL     1      21.222  -0.673  53.843  1.00  0.00    -0.036 A 
HETATM    5  C10 UNL     1      21.862  -1.275  54.912  1.00  0.00     0.009 A 
HETATM    6  C11 UNL     1      23.221  -1.299  55.179  1.00  0.00     0.007 A 
HETATM    7  C12 UNL     1      24.006  -0.637  54.264  1.00  0.00    -0.057 A 
HETATM    8  C13 UNL     1      23.055  -0.200  53.382  1.00  0.00    -0.003 A 
HETATM    9  C14 UNL     1      21.786   0.096  52.686  1.00  0.00     0.030 A 
HETATM   10  C15 UNL     1      25.358  -0.048  53.940  1.00  0.00     0.066 C 
HETATM   11  C16 UNL     1      24.989   1.258  53.173  1.00  0.00    -0.015 C 
HETATM   12  C17 UNL     1      24.004   1.542  52.223  1.00  0.00    -0.056 C 
HETATM   13  O3  UNL     1      22.933   0.957  51.470  1.00  0.00     0.000 OA
ENDROOT
BRANCH   1  14
HETATM   14  C3  UNL     1      20.825   1.150  50.685  1.00  0.00    -0.060 C 
BRANCH  14  15
HETATM   15  C2  UNL     1      21.379   1.079  49.489  1.00  0.00    -0.026 C 
HETATM   16  C1  UNL     1      21.896   1.428  48.157  1.00  0.00     0.036 C 
ENDBRANCH  14  15
BRANCH  14  17
HETATM   17  C4  UNL     1      19.372   1.386  51.015  1.00  0.00     0.143 C 
BRANCH  17  18
HETATM   18  S1  UNL     1      19.133   3.089  51.535  1.00  0.00     0.018 S 
HETATM   19  O1  UNL     1      20.053   3.381  52.710  1.00  0.00    -0.258 OA
BRANCH  18  20
HETATM   20  C5  UNL     1      19.641   4.194  50.187  1.00  0.00     0.104 C 
HETATM   21  C6  UNL     1      20.947   4.857  50.534  1.00  0.00     0.018 C 
ENDBRANCH  18  20
ENDBRANCH  17  18
ENDBRANCH  14  17
ENDBRANCH   1  14
BRANCH  12  22
HETATM   22  C18 UNL     1      23.952   2.935  51.721  1.00  0.00     0.034 C 
HETATM   23  C19 UNL     1      23.790   3.922  52.868  1.00  0.00     0.010 C 
ENDBRANCH  12  22
TORSDOF 6
ENDMDL
MODEL 5
REMARK VINA RESULT:      -6.9      2.744      5.767
REMARK  6 active torsions:
REMARK  status: ('A' for Active; 'I' for Inactive)
REMARK    1  A    between atoms: C2_2  and  C3_3 
REMARK    2  A    between atoms: C3_3  and  C4_4 
REMARK    3  A    between atoms: C3_3  and  C7_9 
REMARK    4  A    between atoms: C4_4  and  S1_5 
REMARK    5  A    between atoms: S1_5  and  C5_7 
REMARK    6  A    between atoms: C17_20  and  C18_21 
ROOT
HETATM    1  C7  UNL     1      22.840   1.776  51.200  1.00  0.00     0.024 A 
HETATM    2  C8  UNL     1      22.108   1.494  51.920  1.00  0.00     0.012 A 
HETATM    3  O2  UNL     1      20.843   1.495  52.549  1.00  0.00     0.000 OA
HETATM    4  C9  UNL     1      21.186   0.588  53.518  1.00  0.00    -0.036 A 
HETATM    5  C10 UNL     1      21.451  -0.320  54.529  1.00  0.00     0.009 A 
HETATM    6  C11 UNL     1      22.643  -0.978  54.782  1.00  0.00     0.007 A 
HETATM    7  C12 UNL     1      23.670  -0.675  53.920  1.00  0.00    -0.057 A 
HETATM    8  C13 UNL     1      23.048   0.214  53.085  1.00  0.00    -0.003 A 
HETATM    9  C14 UNL     1      22.072   1.105  52.425  1.00  0.00     0.030 A 
HETATM   10  C15 UNL     1      25.152  -0.739  53.636  1.00  0.00     0.066 C 
HETATM   11  C16 UNL     1      25.438   0.648  52.984  1.00  0.00    -0.015 C 
HETATM   12  C17 UNL     1      24.717   1.421  52.068  1.00  0.00    -0.056 C 
HETATM   13  O3  UNL     1      23.521   1.445  51.277  1.00  0.00     0.000 OA
ENDROOT
BRANCH   1  14
HETATM   14  C3  UNL     1      21.753   2.632  50.527  1.00  0.00    -0.060 C 
BRANCH  14  15
HETATM   15  C2  UNL     1      21.918   2.021  49.368  1.00  0.00    -0.026 C 
HETATM   16  C1  UNL     1      22.217   1.747  47.955  1.00  0.00     0.036 C 
ENDBRANCH  14  15
BRANCH  14  17
HETATM   17  C4  UNL     1      20.802   3.759  50.848  1.00  0.00     0.143 C 
BRANCH  17  18
HETATM   18  S1  UNL     1      21.726   5.211  51.360  1.00  0.00     0.018 S 
HETATM   19  O1  UNL     1      22.415   4.918  52.684  1.00  0.00    -0.258 OA
BRANCH  18  20
HETATM   20  C5  UNL     1      23.039   5.532  50.148  1.00  0.00     0.104 C 
HETATM   21  C6  UNL     1      24.221   6.164  50.831  1.00  0.00     0.018 C 
ENDBRANCH  18  20
ENDBRANCH  17  18
ENDBRANCH  14  17
ENDBRANCH   1  14
BRANCH  12  22
HETATM   22  C18 UNL     1      25.315   2.721  51.685  1.00  0.00     0.034 C 
HETATM   23  C19 UNL     1      26.511   2.522  50.766  1.00  0.00     0.010 C 
ENDBRANCH  12  22
TORSDOF 6
ENDMDL
MODEL 6
REMARK VINA RESULT:      -6.9      1.590      1.961
REMARK  6 active torsions:
REMARK  status: ('A' for Active; 'I' for Inactive)
REMARK    1  A    between atoms: C2_2  and  C3_3 
REMARK    2  A    between atoms: C3_3  and  C4_4 
REMARK    3  A    between atoms: C3_3  and  C7_9 
REMARK    4  A    between atoms: C4_4  and  S1_5 
REMARK    5  A    between atoms: S1_5  and  C5_7 
REMARK    6  A    between atoms: C17_20  and  C18_21 
ROOT
HETATM    1  C7  UNL     1      23.239   0.688  52.419  1.00  0.00     0.024 A 
HETATM    2  C8  UNL     1      23.774   1.426  51.869  1.00  0.00     0.012 A 
HETATM    3  O2  UNL     1      24.822   2.337  51.604  1.00  0.00     0.000 OA
HETATM    4  C9  UNL     1      24.311   2.767  50.407  1.00  0.00    -0.036 A 
HETATM    5  C10 UNL     1      23.865   3.256  49.191  1.00  0.00     0.009 A 
HETATM    6  C11 UNL     1      22.708   2.907  48.514  1.00  0.00     0.007 A 
HETATM    7  C12 UNL     1      21.925   1.967  49.144  1.00  0.00    -0.057 A 
HETATM    8  C13 UNL     1      22.670   1.727  50.267  1.00  0.00    -0.003 A 
HETATM    9  C14 UNL     1      23.708   1.742  51.318  1.00  0.00     0.030 A 
HETATM   10  C15 UNL     1      20.583   1.280  49.226  1.00  0.00     0.066 C 
HETATM   11  C16 UNL     1      20.366   1.133  50.763  1.00  0.00    -0.015 C 
HETATM   12  C17 UNL     1      21.236   0.805  51.807  1.00  0.00    -0.056 C 
HETATM   13  O3  UNL     1      22.592   0.445  52.099  1.00  0.00     0.000 OA
ENDROOT
BRANCH   1  14
HETATM   14  C3  UNL     1      24.390   0.709  53.441  1.00  0.00    -0.060 C 
BRANCH  14  15
HETATM   15  C2  UNL     1      23.909  -0.343  54.079  1.00  0.00    -0.026 C 
HETATM   16  C1  UNL     1      23.444  -1.253  55.136  1.00  0.00     0.036 C 
ENDBRANCH  14  15
BRANCH  14  17
HETATM   17  C4  UNL     1      25.625   1.507  53.778  1.00  0.00     0.143 C 
BRANCH  17  18
HETATM   18  S1  UNL     1      27.085   0.476  53.598  1.00  0.00     0.018 S 
HETATM   19  O1  UNL     1      27.203  -0.433  54.811  1.00  0.00    -0.258 OA
BRANCH  18  20
HETATM   20  C5  UNL     1      26.869  -0.605  52.155  1.00  0.00     0.104 C 
HETATM   21  C6  UNL     1      26.960  -2.046  52.578  1.00  0.00     0.018 C 
ENDBRANCH  18  20
ENDBRANCH  17  18
ENDBRANCH  14  17
ENDBRANCH   1  14
BRANCH  12  22
HETATM   22  C18 UNL     1      20.654   0.778  53.168  1.00  0.00     0.034 C 
HETATM   23  C19 UNL     1      19.926  -0.534  53.425  1.00  0.00     0.010 C 
ENDBRANCH  12  22
TORSDOF 6
ENDMDL
MODEL 7
REMARK VINA RESULT:      -6.9      1.756      3.051
REMARK  6 active torsions:
REMARK  status: ('A' for Active; 'I' for Inactive)
REMARK    1  A    between atoms: C2_2  and  C3_3 
REMARK    2  A    between atoms: C3_3  and  C4_4 
REMARK    3  A    between atoms: C3_3  and  C7_9 
REMARK    4  A    between atoms: C4_4  and  S1_5 
REMARK    5  A    between atoms: S1_5  and  C5_7 
REMARK    6  A    between atoms: C17_20  and  C18_21 
ROOT
HETATM    1  C7  UNL     1      23.969   1.361  51.768  1.00  0.00     0.024 A 
HETATM    2  C8  UNL     1      24.942   1.751  51.581  1.00  0.00     0.012 A 
HETATM    3  O2  UNL     1      26.341   1.871  51.738  1.00  0.00     0.000 OA
HETATM    4  C9  UNL     1      26.486   2.866  50.806  1.00  0.00    -0.036 A 
HETATM    5  C10 UNL     1      26.717   3.871  49.883  1.00  0.00     0.009 A 
HETATM    6  C11 UNL     1      25.786   4.522  49.091  1.00  0.00     0.007 A 
HETATM    7  C12 UNL     1      24.485   4.108  49.262  1.00  0.00    -0.057 A 
HETATM    8  C13 UNL     1      24.651   3.134  50.210  1.00  0.00    -0.003 A 
HETATM    9  C14 UNL     1      25.206   2.194  51.204  1.00  0.00     0.030 A 
HETATM   10  C15 UNL     1      23.021   4.387  49.020  1.00  0.00     0.066 C 
HETATM   11  C16 UNL     1      22.359   3.934  50.357  1.00  0.00    -0.015 C 
HETATM   12  C17 UNL     1      22.598   2.845  51.201  1.00  0.00    -0.056 C 
HETATM   13  O3  UNL     1      23.407   1.671  51.358  1.00  0.00     0.000 OA
ENDROOT
BRANCH   1  14
HETATM   14  C3  UNL     1      24.626   0.366  52.740  1.00  0.00    -0.060 C 
BRANCH  14  15
HETATM   15  C2  UNL     1      23.482   0.138  53.359  1.00  0.00    -0.026 C 
HETATM   16  C1  UNL     1      22.392  -0.512  54.103  1.00  0.00     0.036 C 
ENDBRANCH  14  15
BRANCH  14  17
HETATM   17  C4  UNL     1      25.978  -0.226  53.054  1.00  0.00     0.143 C 
BRANCH  17  18
HETATM   18  S1  UNL     1      26.469   0.228  54.721  1.00  0.00     0.018 S 
HETATM   19  O1  UNL     1      25.930  -0.807  55.696  1.00  0.00    -0.258 OA
BRANCH  18  20
HETATM   20  C5  UNL     1      28.280   0.163  54.841  1.00  0.00     0.104 C 
HETATM   21  C6  UNL     1      28.849  -0.502  53.617  1.00  0.00     0.018 C 
ENDBRANCH  18  20
ENDBRANCH  17  18
ENDBRANCH  14  17
ENDBRANCH   1  14
BRANCH  12  22
HETATM   22  C18 UNL     1      21.757   2.754  52.417  1.00  0.00     0.034 C 
HETATM   23  C19 UNL     1      20.372   2.220  52.084  1.00  0.00     0.010 C 
ENDBRANCH  12  22
TORSDOF 6
ENDMDL
MODEL 8
REMARK VINA RESULT:      -6.8      2.313      5.023
REMARK  6 active torsions:
REMARK  status: ('A' for Active; 'I' for Inactive)
REMARK    1  A    between atoms: C2_2  and  C3_3 
REMARK    2  A    between atoms: C3_3  and  C4_4 
REMARK    3  A    between atoms: C3_3  and  C7_9 
REMARK    4  A    between atoms: C4_4  and  S1_5 
REMARK    5  A    between atoms: S1_5  and  C5_7 
REMARK    6  A    between atoms: C17_20  and  C18_21 
ROOT
HETATM    1  C7  UNL     1      23.390   2.188  51.490  1.00  0.00     0.024 A 
HETATM    2  C8  UNL     1      24.383   1.881  51.720  1.00  0.00     0.012 A 
HETATM    3  O2  UNL     1      25.794   1.888  51.632  1.00  0.00     0.000 OA
HETATM    4  C9  UNL     1      25.980   0.892  52.555  1.00  0.00    -0.036 A 
HETATM    5  C10 UNL     1      26.255  -0.106  53.474  1.00  0.00     0.009 A 
HETATM    6  C11 UNL     1      25.347  -0.851  54.209  1.00  0.00     0.007 A 
HETATM    7  C12 UNL     1      24.025  -0.551  53.978  1.00  0.00    -0.057 A 
HETATM    8  C13 UNL     1      24.149   0.452  53.054  1.00  0.00    -0.003 A 
HETATM    9  C14 UNL     1      24.667   1.456  52.103  1.00  0.00     0.030 A 
HETATM   10  C15 UNL     1      22.581  -0.962  54.142  1.00  0.00     0.066 C 
HETATM   11  C16 UNL     1      21.948  -0.543  52.780  1.00  0.00    -0.015 C 
HETATM   12  C17 UNL     1      22.130   0.578  51.966  1.00  0.00    -0.056 C 
HETATM   13  O3  UNL     1      22.838   1.822  51.866  1.00  0.00     0.000 OA
ENDROOT
BRANCH   1  14
HETATM   14  C3  UNL     1      24.003   3.255  50.567  1.00  0.00    -0.060 C 
BRANCH  14  15
HETATM   15  C2  UNL     1      23.439   4.238  51.246  1.00  0.00    -0.026 C 
HETATM   16  C1  UNL     1      22.540   5.328  51.655  1.00  0.00     0.036 C 
ENDBRANCH  14  15
BRANCH  14  17
HETATM   17  C4  UNL     1      24.876   3.364  49.341  1.00  0.00     0.143 C 
BRANCH  17  18
HETATM   18  S1  UNL     1      26.118   4.637  49.588  1.00  0.00     0.018 S 
HETATM   19  O1  UNL     1      27.420   4.191  48.941  1.00  0.00    -0.258 OA
BRANCH  18  20
HETATM   20  C5  UNL     1      25.596   6.146  48.723  1.00  0.00     0.104 C 
HETATM   21  C6  UNL     1      26.799   6.857  48.166  1.00  0.00     0.018 C 
ENDBRANCH  18  20
ENDBRANCH  17  18
ENDBRANCH  14  17
ENDBRANCH   1  14
BRANCH  12  22
HETATM   22  C18 UNL     1      21.345   0.618  50.710  1.00  0.00     0.034 C 
HETATM   23  C19 UNL     1      19.851   0.615  51.000  1.00  0.00     0.010 C 
ENDBRANCH  12  22
TORSDOF 6
ENDMDL
MODEL 9
REMARK VINA RESULT:      -6.8      2.272      5.233
REMARK  6 active torsions:
REMARK  status: ('A' for Active; 'I' for Inactive)
REMARK    1  A    between atoms: C2_2  and  C3_3 
REMARK    2  A    between atoms: C3_3  and  C4_4 
REMARK    3  A    between atoms: C3_3  and  C7_9 
REMARK    4  A    between atoms: C4_4  and  S1_5 
REMARK    5  A    between atoms: S1_5  and  C5_7 
REMARK    6  A    between atoms: C17_20  and  C18_21 
ROOT
HETATM    1  C7  UNL     1      23.089   2.087  51.444  1.00  0.00     0.024 A 
HETATM    2  C8  UNL     1      24.119   1.831  51.528  1.00  0.00     0.012 A 
HETATM    3  O2  UNL     1      25.498   1.895  51.227  1.00  0.00     0.000 OA
HETATM    4  C9  UNL     1      25.868   0.939  52.137  1.00  0.00    -0.036 A 
HETATM    5  C10 UNL     1      26.325  -0.014  53.030  1.00  0.00     0.009 A 
HETATM    6  C11 UNL     1      25.575  -0.772  53.913  1.00  0.00     0.007 A 
HETATM    7  C12 UNL     1      24.220  -0.536  53.879  1.00  0.00    -0.057 A 
HETATM    8  C13 UNL     1      24.156   0.439  52.920  1.00  0.00    -0.003 A 
HETATM    9  C14 UNL     1      24.477   1.432  51.875  1.00  0.00     0.030 A 
HETATM   10  C15 UNL     1      22.839  -1.003  54.271  1.00  0.00     0.066 C 
HETATM   11  C16 UNL     1      21.989  -0.658  53.011  1.00  0.00    -0.015 C 
HETATM   12  C17 UNL     1      21.992   0.442  52.148  1.00  0.00    -0.056 C 
HETATM   13  O3  UNL     1      22.618   1.711  51.909  1.00  0.00     0.000 OA
ENDROOT
BRANCH   1  14
HETATM   14  C3  UNL     1      23.504   3.148  50.410  1.00  0.00    -0.060 C 
BRANCH  14  15
HETATM   15  C2  UNL     1      22.873   2.519  49.436  1.00  0.00    -0.026 C 
HETATM   16  C1  UNL     1      22.431   2.073  48.106  1.00  0.00     0.036 C 
ENDBRANCH  14  15
BRANCH  14  17
HETATM   17  C4  UNL     1      24.306   4.423  50.316  1.00  0.00     0.143 C 
BRANCH  17  18
HETATM   18  S1  UNL     1      23.659   5.637  51.471  1.00  0.00     0.018 S 
HETATM   19  O1  UNL     1      24.064   7.027  51.007  1.00  0.00    -0.258 OA
BRANCH  18  20
HETATM   20  C5  UNL     1      21.844   5.581  51.429  1.00  0.00     0.104 C 
HETATM   21  C6  UNL     1      21.336   6.360  50.246  1.00  0.00     0.018 C 
ENDBRANCH  18  20
ENDBRANCH  17  18
ENDBRANCH  14  17
ENDBRANCH   1  14
BRANCH  12  22
HETATM   22  C18 UNL     1      21.026   0.406  51.026  1.00  0.00     0.034 C 
HETATM   23  C19 UNL     1      19.600   0.276  51.539  1.00  0.00     0.010 C 
ENDBRANCH  12  22
TORSDOF 6
ENDMDL
