MODEL 1
REMARK VINA RESULT:      -7.6      0.000      0.000
REMARK  6 active torsions:
REMARK  status: ('A' for Active; 'I' for Inactive)
REMARK    1  A    between atoms: O1_2  and  C2_3 
REMARK    2  A    between atoms: C2_3  and  C4_6 
REMARK    3  A    between atoms: C4_6  and  O2_7 
REMARK    4  A    between atoms: C5_8  and  C6_9 
REMARK    5  A    between atoms: C9_14  and  O3_15 
REMARK    6  A    between atoms: O3_15  and  C10_16 
ROOT
HETATM    1  C6  UNL     1      27.046   1.073  52.853  1.00  0.00     0.037 A 
HETATM    2  C7  UNL     1      28.240   1.667  53.268  1.00  0.00     0.134 A 
HETATM    3  N1  UNL     1      28.858   1.219  54.400  1.00  0.00    -0.253 NA
HETATM    4  C8  UNL     1      28.285   0.197  55.097  1.00  0.00     0.235 A 
HETATM    5  N2  UNL     1      27.139  -0.364  54.690  1.00  0.00    -0.217 NA
HETATM    6  C9  UNL     1      26.479   0.023  53.593  1.00  0.00     0.182 A 
ENDROOT
BRANCH   1   7
HETATM    7  C5  UNL     1      26.579   1.703  51.601  1.00  0.00     0.057 C 
HETATM    8  C4  UNL     1      25.729   2.733  51.662  1.00  0.00     0.102 C 
BRANCH   8   9
HETATM    9  C2  UNL     1      25.307   3.305  50.407  1.00  0.00     0.127 C 
HETATM   10  C3  UNL     1      26.105   4.160  49.808  1.00  0.00     0.441 C 
HETATM   11  F1  UNL     1      26.093   4.892  48.676  1.00  0.00    -0.428 F 
BRANCH   9  12
HETATM   12  O1  UNL     1      24.601   3.628  49.283  1.00  0.00    -0.351 OA
HETATM   13  C1  UNL     1      23.352   3.048  48.947  1.00  0.00     0.210 C 
ENDBRANCH   9  12
ENDBRANCH   8   9
BRANCH   8  14
HETATM   14  O2  UNL     1      25.264   3.243  52.858  1.00  0.00    -0.358 OA
HETATM   15  H5  UNL     1      24.557   3.963  52.818  1.00  0.00     0.217 HD
ENDBRANCH   8  14
ENDBRANCH   1   7
BRANCH   6  16
HETATM   16  O3  UNL     1      25.342  -0.322  52.933  1.00  0.00    -0.291 OA
BRANCH  16  17
HETATM   17  C10 UNL     1      24.119  -0.359  53.534  1.00  0.00     0.079 A 
HETATM   18  C11 UNL     1      23.788  -1.143  54.644  1.00  0.00     0.037 A 
HETATM   19  C12 UNL     1      22.488  -1.036  55.103  1.00  0.00     0.004 A 
HETATM   20  C13 UNL     1      21.513  -0.223  54.548  1.00  0.00     0.019 A 
HETATM   21  C14 UNL     1      21.827   0.559  53.446  1.00  0.00     0.013 A 
HETATM   22 BR1  UNL     1      20.545   1.692  52.633  1.00  0.00    -0.051 Br
HETATM   23  C15 UNL     1      23.145   0.440  52.995  1.00  0.00     0.056 A 
ENDBRANCH  16  17
ENDBRANCH   6  16
TORSDOF 6
ENDMDL
MODEL 2
REMARK VINA RESULT:      -7.2      3.224      4.965
REMARK  6 active torsions:
REMARK  status: ('A' for Active; 'I' for Inactive)
REMARK    1  A    between atoms: O1_2  and  C2_3 
REMARK    2  A    between atoms: C2_3  and  C4_6 
REMARK    3  A    between atoms: C4_6  and  O2_7 
REMARK    4  A    between atoms: C5_8  and  C6_9 
REMARK    5  A    between atoms: C9_14  and  O3_15 
REMARK    6  A    between atoms: O3_15  and  C10_16 
ROOT
HETATM    1  C6  UNL     1      25.865   2.758  51.125  1.00  0.00     0.037 A 
HETATM    2  C7  UNL     1      26.695   3.330  50.158  1.00  0.00     0.134 A 
HETATM    3  N1  UNL     1      26.363   4.537  49.614  1.00  0.00    -0.253 NA
HETATM    4  C8  UNL     1      25.220   5.152  50.034  1.00  0.00     0.235 A 
HETATM    5  N2  UNL     1      24.432   4.592  50.961  1.00  0.00    -0.217 NA
HETATM    6  C9  UNL     1      24.694   3.414  51.537  1.00  0.00     0.182 A 
ENDROOT
BRANCH   1   7
HETATM    7  C5  UNL     1      26.436   1.473  51.582  1.00  0.00     0.057 C 
HETATM    8  C4  UNL     1      27.006   1.401  52.788  1.00  0.00     0.102 C 
BRANCH   8   9
HETATM    9  C2  UNL     1      27.547   0.121  53.178  1.00  0.00     0.127 C 
HETATM   10  C3  UNL     1      26.977  -0.967  52.712  1.00  0.00     0.441 C 
HETATM   11  F1  UNL     1      27.159  -2.298  52.824  1.00  0.00    -0.428 F 
BRANCH   9  12
HETATM   12  O1  UNL     1      28.301  -0.869  53.740  1.00  0.00    -0.351 OA
HETATM   13  C1  UNL     1      29.717  -0.833  53.809  1.00  0.00     0.210 C 
ENDBRANCH   9  12
ENDBRANCH   8   9
BRANCH   8  14
HETATM   14  O2  UNL     1      27.086   2.485  53.639  1.00  0.00    -0.358 OA
HETATM   15  H5  UNL     1      26.222   2.864  53.999  1.00  0.00     0.217 HD
ENDBRANCH   8  14
ENDBRANCH   1   7
BRANCH   6  16
HETATM   16  O3  UNL     1      24.125   2.604  52.468  1.00  0.00    -0.291 OA
BRANCH  16  17
HETATM   17  C10 UNL     1      23.100   1.753  52.182  1.00  0.00     0.079 A 
HETATM   18  C11 UNL     1      22.358   1.751  50.996  1.00  0.00     0.037 A 
HETATM   19  C12 UNL     1      21.355   0.803  50.902  1.00  0.00     0.004 A 
HETATM   20  C13 UNL     1      21.045  -0.125  51.882  1.00  0.00     0.019 A 
HETATM   21  C14 UNL     1      21.772  -0.135  53.064  1.00  0.00     0.013 A 
HETATM   22 BR1  UNL     1      21.401  -1.373  54.449  1.00  0.00    -0.051 Br
HETATM   23  C15 UNL     1      22.781   0.829  53.143  1.00  0.00     0.056 A 
ENDBRANCH  16  17
ENDBRANCH   6  16
TORSDOF 6
ENDMDL
MODEL 3
REMARK VINA RESULT:      -7.1      3.282      5.577
REMARK  6 active torsions:
REMARK  status: ('A' for Active; 'I' for Inactive)
REMARK    1  A    between atoms: O1_2  and  C2_3 
REMARK    2  A    between atoms: C2_3  and  C4_6 
REMARK    3  A    between atoms: C4_6  and  O2_7 
REMARK    4  A    between atoms: C5_8  and  C6_9 
REMARK    5  A    between atoms: C9_14  and  O3_15 
REMARK    6  A    between atoms: O3_15  and  C10_16 
ROOT
HETATM    1  C6  UNL     1      24.316  -0.613  54.104  1.00  0.00     0.037 A 
HETATM    2  C7  UNL     1      23.851  -1.293  55.231  1.00  0.00     0.134 A 
HETATM    3  N1  UNL     1      22.516  -1.285  55.520  1.00  0.00    -0.253 NA
HETATM    4  C8  UNL     1      21.673  -0.606  54.691  1.00  0.00     0.235 A 
HETATM    5  N2  UNL     1      22.131   0.043  53.614  1.00  0.00    -0.217 NA
HETATM    6  C9  UNL     1      23.423   0.078  53.270  1.00  0.00     0.182 A 
ENDROOT
BRANCH   1   7
HETATM    7  C5  UNL     1      25.780  -0.780  53.984  1.00  0.00     0.057 C 
HETATM    8  C4  UNL     1      26.586   0.227  54.334  1.00  0.00     0.102 C 
BRANCH   8   9
HETATM    9  C2  UNL     1      28.005   0.005  54.192  1.00  0.00     0.127 C 
HETATM   10  C3  UNL     1      28.814   1.033  54.306  1.00  0.00     0.441 C 
HETATM   11  F1  UNL     1      30.143   1.251  54.245  1.00  0.00    -0.428 F 
BRANCH   9  12
HETATM   12  O1  UNL     1      29.232  -0.565  54.006  1.00  0.00    -0.351 OA
HETATM   13  C1  UNL     1      29.428  -1.811  53.357  1.00  0.00     0.210 C 
ENDBRANCH   9  12
ENDBRANCH   8   9
BRANCH   8  14
HETATM   14  O2  UNL     1      26.108   1.431  54.810  1.00  0.00    -0.358 OA
HETATM   15  H5  UNL     1      26.753   2.030  55.304  1.00  0.00     0.217 HD
ENDBRANCH   8  14
ENDBRANCH   1   7
BRANCH   6  16
HETATM   16  O3  UNL     1      24.184   0.623  52.284  1.00  0.00    -0.291 OA
BRANCH  16  17
HETATM   17  C10 UNL     1      24.159   1.951  51.977  1.00  0.00     0.079 A 
HETATM   18  C11 UNL     1      23.263   2.885  52.506  1.00  0.00     0.037 A 
HETATM   19  C12 UNL     1      23.405   4.188  52.063  1.00  0.00     0.004 A 
HETATM   20  C13 UNL     1      24.354   4.618  51.151  1.00  0.00     0.019 A 
HETATM   21  C14 UNL     1      25.250   3.702  50.618  1.00  0.00     0.013 A 
HETATM   22 BR1  UNL     1      26.572   4.218  49.364  1.00  0.00    -0.051 Br
HETATM   23  C15 UNL     1      25.093   2.391  51.076  1.00  0.00     0.056 A 
ENDBRANCH  16  17
ENDBRANCH   6  16
TORSDOF 6
ENDMDL
MODEL 4
REMARK VINA RESULT:      -7.0      3.051      4.608
REMARK  6 active torsions:
REMARK  status: ('A' for Active; 'I' for Inactive)
REMARK    1  A    between atoms: O1_2  and  C2_3 
REMARK    2  A    between atoms: C2_3  and  C4_6 
REMARK    3  A    between atoms: C4_6  and  O2_7 
REMARK    4  A    between atoms: C5_8  and  C6_9 
REMARK    5  A    between atoms: C9_14  and  O3_15 
REMARK    6  A    between atoms: O3_15  and  C10_16 
ROOT
HETATM    1  C6  UNL     1      25.786   1.606  51.619  1.00  0.00     0.037 A 
HETATM    2  C7  UNL     1      26.381   2.795  51.192  1.00  0.00     0.134 A 
HETATM    3  N1  UNL     1      25.594   3.862  50.865  1.00  0.00    -0.253 NA
HETATM    4  C8  UNL     1      24.241   3.732  50.966  1.00  0.00     0.235 A 
HETATM    5  N2  UNL     1      23.682   2.585  51.375  1.00  0.00    -0.217 NA
HETATM    6  C9  UNL     1      24.390   1.501  51.711  1.00  0.00     0.182 A 
ENDROOT
BRANCH   1   7
HETATM    7  C5  UNL     1      26.829   0.607  51.936  1.00  0.00     0.057 C 
HETATM    8  C4  UNL     1      27.277   0.503  53.191  1.00  0.00     0.102 C 
BRANCH   8   9
HETATM    9  C2  UNL     1      28.296  -0.488  53.439  1.00  0.00     0.127 C 
HETATM   10  C3  UNL     1      29.532  -0.082  53.626  1.00  0.00     0.441 C 
HETATM   11  F1  UNL     1      30.728  -0.653  53.874  1.00  0.00    -0.428 F 
BRANCH   9  12
HETATM   12  O1  UNL     1      28.963  -1.662  53.638  1.00  0.00    -0.351 OA
HETATM   13  C1  UNL     1      28.545  -2.904  53.096  1.00  0.00     0.210 C 
ENDBRANCH   9  12
ENDBRANCH   8   9
BRANCH   8  14
HETATM   14  O2  UNL     1      26.802   1.295  54.218  1.00  0.00    -0.358 OA
HETATM   15  H5  UNL     1      26.320   2.147  53.969  1.00  0.00     0.217 HD
ENDBRANCH   8  14
ENDBRANCH   1   7
BRANCH   6  16
HETATM   16  O3  UNL     1      24.141   0.238  52.146  1.00  0.00    -0.291 OA
BRANCH  16  17
HETATM   17  C10 UNL     1      23.074  -0.079  52.932  1.00  0.00     0.079 A 
HETATM   18  C11 UNL     1      23.150  -0.541  54.250  1.00  0.00     0.037 A 
HETATM   19  C12 UNL     1      21.946  -0.808  54.877  1.00  0.00     0.004 A 
HETATM   20  C13 UNL     1      20.698  -0.651  54.298  1.00  0.00     0.019 A 
HETATM   21  C14 UNL     1      20.606  -0.193  52.991  1.00  0.00     0.013 A 
HETATM   22 BR1  UNL     1      18.933   0.042  52.134  1.00  0.00    -0.051 Br
HETATM   23  C15 UNL     1      21.832   0.071  52.373  1.00  0.00     0.056 A 
ENDBRANCH  16  17
ENDBRANCH   6  16
TORSDOF 6
ENDMDL
MODEL 5
REMARK VINA RESULT:      -6.9      2.984      4.826
REMARK  6 active torsions:
REMARK  status: ('A' for Active; 'I' for Inactive)
REMARK    1  A    between atoms: O1_2  and  C2_3 
REMARK    2  A    between atoms: C2_3  and  C4_6 
REMARK    3  A    between atoms: C4_6  and  O2_7 
REMARK    4  A    between atoms: C5_8  and  C6_9 
REMARK    5  A    between atoms: C9_14  and  O3_15 
REMARK    6  A    between atoms: O3_15  and  C10_16 
ROOT
HETATM    1  C6  UNL     1      23.523   1.237  52.440  1.00  0.00     0.037 A 
HETATM    2  C7  UNL     1      22.244   1.181  53.000  1.00  0.00     0.134 A 
HETATM    3  N1  UNL     1      21.951   0.208  53.911  1.00  0.00    -0.253 NA
HETATM    4  C8  UNL     1      22.923  -0.687  54.249  1.00  0.00     0.235 A 
HETATM    5  N2  UNL     1      24.144  -0.623  53.704  1.00  0.00    -0.217 NA
HETATM    6  C9  UNL     1      24.502   0.301  52.806  1.00  0.00     0.182 A 
ENDROOT
BRANCH   1   7
HETATM    7  C5  UNL     1      23.612   2.378  51.504  1.00  0.00     0.057 C 
HETATM    8  C4  UNL     1      23.963   3.581  51.970  1.00  0.00     0.102 C 
BRANCH   8   9
HETATM    9  C2  UNL     1      24.032   4.656  51.010  1.00  0.00     0.127 C 
HETATM   10  C3  UNL     1      24.631   4.434  49.862  1.00  0.00     0.441 C 
HETATM   11  F1  UNL     1      24.902   5.133  48.742  1.00  0.00    -0.428 F 
BRANCH   9  12
HETATM   12  O1  UNL     1      23.909   5.860  50.376  1.00  0.00    -0.351 OA
HETATM   13  C1  UNL     1      22.978   6.858  50.761  1.00  0.00     0.210 C 
ENDBRANCH   9  12
ENDBRANCH   8   9
BRANCH   8  14
HETATM   14  O2  UNL     1      24.250   3.809  53.301  1.00  0.00    -0.358 OA
HETATM   15  H5  UNL     1      23.911   3.138  53.976  1.00  0.00     0.217 HD
ENDBRANCH   8  14
ENDBRANCH   1   7
BRANCH   6  16
HETATM   16  O3  UNL     1      25.611   0.627  52.091  1.00  0.00    -0.291 OA
BRANCH  16  17
HETATM   17  C10 UNL     1      26.813   0.904  52.672  1.00  0.00     0.079 A 
HETATM   18  C11 UNL     1      27.257   2.177  53.042  1.00  0.00     0.037 A 
HETATM   19  C12 UNL     1      28.513   2.245  53.618  1.00  0.00     0.004 A 
HETATM   20  C13 UNL     1      29.340   1.158  53.848  1.00  0.00     0.019 A 
HETATM   21  C14 UNL     1      28.913  -0.111  53.487  1.00  0.00     0.013 A 
HETATM   22 BR1  UNL     1      29.993  -1.642  53.768  1.00  0.00    -0.051 Br
HETATM   23  C15 UNL     1      27.643  -0.161  52.905  1.00  0.00     0.056 A 
ENDBRANCH  16  17
ENDBRANCH   6  16
TORSDOF 6
ENDMDL
MODEL 6
REMARK VINA RESULT:      -6.8      3.539      5.820
REMARK  6 active torsions:
REMARK  status: ('A' for Active; 'I' for Inactive)
REMARK    1  A    between atoms: O1_2  and  C2_3 
REMARK    2  A    between atoms: C2_3  and  C4_6 
REMARK    3  A    between atoms: C4_6  and  O2_7 
REMARK    4  A    between atoms: C5_8  and  C6_9 
REMARK    5  A    between atoms: C9_14  and  O3_15 
REMARK    6  A    between atoms: O3_15  and  C10_16 
ROOT
HETATM    1  C6  UNL     1      25.602   1.948  52.415  1.00  0.00     0.037 A 
HETATM    2  C7  UNL     1      25.844   1.670  53.762  1.00  0.00     0.134 A 
HETATM    3  N1  UNL     1      27.103   1.829  54.267  1.00  0.00    -0.253 NA
HETATM    4  C8  UNL     1      28.092   2.258  53.433  1.00  0.00     0.235 A 
HETATM    5  N2  UNL     1      27.848   2.520  52.142  1.00  0.00    -0.217 NA
HETATM    6  C9  UNL     1      26.642   2.386  51.580  1.00  0.00     0.182 A 
ENDROOT
BRANCH   1   7
HETATM    7  C5  UNL     1      24.174   1.726  52.104  1.00  0.00     0.057 C 
HETATM    8  C4  UNL     1      23.296   2.711  52.319  1.00  0.00     0.102 C 
BRANCH   8   9
HETATM    9  C2  UNL     1      21.917   2.435  51.998  1.00  0.00     0.127 C 
HETATM   10  C3  UNL     1      21.015   3.351  52.269  1.00  0.00     0.441 C 
HETATM   11  F1  UNL     1      19.681   3.489  52.137  1.00  0.00    -0.428 F 
BRANCH   9  12
HETATM   12  O1  UNL     1      20.761   1.844  51.574  1.00  0.00    -0.351 OA
HETATM   13  C1  UNL     1      20.499   0.456  51.692  1.00  0.00     0.210 C 
ENDBRANCH   9  12
ENDBRANCH   8   9
BRANCH   8  14
HETATM   14  O2  UNL     1      23.668   3.941  52.823  1.00  0.00    -0.358 OA
HETATM   15  H5  UNL     1      24.291   4.508  52.266  1.00  0.00     0.217 HD
ENDBRANCH   8  14
ENDBRANCH   1   7
BRANCH   6  16
HETATM   16  O3  UNL     1      26.083   2.561  50.353  1.00  0.00    -0.291 OA
BRANCH  16  17
HETATM   17  C10 UNL     1      26.005   3.775  49.740  1.00  0.00     0.079 A 
HETATM   18  C11 UNL     1      24.831   4.513  49.556  1.00  0.00     0.037 A 
HETATM   19  C12 UNL     1      24.966   5.727  48.907  1.00  0.00     0.004 A 
HETATM   20  C13 UNL     1      26.160   6.249  48.438  1.00  0.00     0.019 A 
HETATM   21  C14 UNL     1      27.333   5.528  48.614  1.00  0.00     0.013 A 
HETATM   22 BR1  UNL     1      29.001   6.178  47.996  1.00  0.00    -0.051 Br
HETATM   23  C15 UNL     1      27.179   4.304  49.271  1.00  0.00     0.056 A 
ENDBRANCH  16  17
ENDBRANCH   6  16
TORSDOF 6
ENDMDL
MODEL 7
REMARK VINA RESULT:      -6.7      6.517      8.753
REMARK  6 active torsions:
REMARK  status: ('A' for Active; 'I' for Inactive)
REMARK    1  A    between atoms: O1_2  and  C2_3 
REMARK    2  A    between atoms: C2_3  and  C4_6 
REMARK    3  A    between atoms: C4_6  and  O2_7 
REMARK    4  A    between atoms: C5_8  and  C6_9 
REMARK    5  A    between atoms: C9_14  and  O3_15 
REMARK    6  A    between atoms: O3_15  and  C10_16 
ROOT
HETATM    1  C6  UNL     1      30.455   7.806  48.298  1.00  0.00     0.037 A 
HETATM    2  C7  UNL     1      31.338   8.760  48.808  1.00  0.00     0.134 A 
HETATM    3  N1  UNL     1      30.844   9.900  49.376  1.00  0.00    -0.253 NA
HETATM    4  C8  UNL     1      29.493  10.072  49.428  1.00  0.00     0.235 A 
HETATM    5  N2  UNL     1      28.656   9.150  48.934  1.00  0.00    -0.217 NA
HETATM    6  C9  UNL     1      29.068   8.012  48.364  1.00  0.00     0.182 A 
ENDROOT
BRANCH   1   7
HETATM    7  C5  UNL     1      31.213   6.658  47.758  1.00  0.00     0.057 C 
HETATM    8  C4  UNL     1      31.482   5.618  48.553  1.00  0.00     0.102 C 
BRANCH   8   9
HETATM    9  C2  UNL     1      32.226   4.528  47.970  1.00  0.00     0.127 C 
HETATM   10  C3  UNL     1      31.667   3.833  47.005  1.00  0.00     0.441 C 
HETATM   11  F1  UNL     1      32.001   2.785  46.226  1.00  0.00    -0.428 F 
BRANCH   9  12
HETATM   12  O1  UNL     1      33.191   3.608  47.674  1.00  0.00    -0.351 OA
HETATM   13  C1  UNL     1      34.572   3.809  47.927  1.00  0.00     0.210 C 
ENDBRANCH   9  12
ENDBRANCH   8   9
BRANCH   8  14
HETATM   14  O2  UNL     1      31.079   5.567  49.872  1.00  0.00    -0.358 OA
HETATM   15  H5  UNL     1      30.097   5.420  50.058  1.00  0.00     0.217 HD
ENDBRANCH   8  14
ENDBRANCH   1   7
BRANCH   6  16
HETATM   16  O3  UNL     1      28.504   6.918  47.789  1.00  0.00    -0.291 OA
BRANCH  16  17
HETATM   17  C10 UNL     1      27.645   6.092  48.450  1.00  0.00     0.079 A 
HETATM   18  C11 UNL     1      27.811   4.713  48.609  1.00  0.00     0.037 A 
HETATM   19  C12 UNL     1      26.822   4.053  49.316  1.00  0.00     0.004 A 
HETATM   20  C13 UNL     1      25.702   4.656  49.865  1.00  0.00     0.019 A 
HETATM   21  C14 UNL     1      25.523   6.024  49.716  1.00  0.00     0.013 A 
HETATM   22 BR1  UNL     1      24.015   6.914  50.437  1.00  0.00    -0.051 Br
HETATM   23  C15 UNL     1      26.532   6.674  48.999  1.00  0.00     0.056 A 
ENDBRANCH  16  17
ENDBRANCH   6  16
TORSDOF 6
ENDMDL
MODEL 8
REMARK VINA RESULT:      -6.5      3.387      4.897
REMARK  6 active torsions:
REMARK  status: ('A' for Active; 'I' for Inactive)
REMARK    1  A    between atoms: O1_2  and  C2_3 
REMARK    2  A    between atoms: C2_3  and  C4_6 
REMARK    3  A    between atoms: C4_6  and  O2_7 
REMARK    4  A    between atoms: C5_8  and  C6_9 
REMARK    5  A    between atoms: C9_14  and  O3_15 
REMARK    6  A    between atoms: O3_15  and  C10_16 
ROOT
HETATM    1  C6  UNL     1      22.623   3.284  51.908  1.00  0.00     0.037 A 
HETATM    2  C7  UNL     1      21.470   4.031  52.160  1.00  0.00     0.134 A 
HETATM    3  N1  UNL     1      20.331   3.396  52.565  1.00  0.00    -0.253 NA
HETATM    4  C8  UNL     1      20.355   2.040  52.712  1.00  0.00     0.235 A 
HETATM    5  N2  UNL     1      21.466   1.335  52.466  1.00  0.00    -0.217 NA
HETATM    6  C9  UNL     1      22.616   1.889  52.066  1.00  0.00     0.182 A 
ENDROOT
BRANCH   1   7
HETATM    7  C5  UNL     1      23.726   4.182  51.508  1.00  0.00     0.057 C 
HETATM    8  C4  UNL     1      24.125   4.202  50.232  1.00  0.00     0.102 C 
BRANCH   8   9
HETATM    9  C2  UNL     1      25.208   5.097  49.902  1.00  0.00     0.127 C 
HETATM   10  C3  UNL     1      25.171   6.324  50.370  1.00  0.00     0.441 C 
HETATM   11  F1  UNL     1      25.943   7.427  50.302  1.00  0.00    -0.428 F 
BRANCH   9  12
HETATM   12  O1  UNL     1      26.358   5.637  49.402  1.00  0.00    -0.351 OA
HETATM   13  C1  UNL     1      27.349   4.882  48.724  1.00  0.00     0.210 C 
ENDBRANCH   9  12
ENDBRANCH   8   9
BRANCH   8  14
HETATM   14  O2  UNL     1      23.545   3.413  49.259  1.00  0.00    -0.358 OA
HETATM   15  H5  UNL     1      22.748   2.851  49.524  1.00  0.00     0.217 HD
ENDBRANCH   8  14
ENDBRANCH   1   7
BRANCH   6  16
HETATM   16  O3  UNL     1      23.870   1.474  51.745  1.00  0.00    -0.291 OA
BRANCH  16  17
HETATM   17  C10 UNL     1      24.750   0.990  52.666  1.00  0.00     0.079 A 
HETATM   18  C11 UNL     1      24.519  -0.105  53.505  1.00  0.00     0.037 A 
HETATM   19  C12 UNL     1      25.543  -0.437  54.375  1.00  0.00     0.004 A 
HETATM   20  C13 UNL     1      26.754   0.229  54.467  1.00  0.00     0.019 A 
HETATM   21  C14 UNL     1      26.997   1.317  53.641  1.00  0.00     0.013 A 
HETATM   22 BR1  UNL     1      28.628   2.276  53.714  1.00  0.00    -0.051 Br
HETATM   23  C15 UNL     1      25.952   1.639  52.769  1.00  0.00     0.056 A 
ENDBRANCH  16  17
ENDBRANCH   6  16
TORSDOF 6
ENDMDL
MODEL 9
REMARK VINA RESULT:      -6.5      3.215      4.949
REMARK  6 active torsions:
REMARK  status: ('A' for Active; 'I' for Inactive)
REMARK    1  A    between atoms: O1_2  and  C2_3 
REMARK    2  A    between atoms: C2_3  and  C4_6 
REMARK    3  A    between atoms: C4_6  and  O2_7 
REMARK    4  A    between atoms: C5_8  and  C6_9 
REMARK    5  A    between atoms: C9_14  and  O3_15 
REMARK    6  A    between atoms: O3_15  and  C10_16 
ROOT
HETATM    1  C6  UNL     1      24.945   3.154  50.489  1.00  0.00     0.037 A 
HETATM    2  C7  UNL     1      25.508   4.355  50.050  1.00  0.00     0.134 A 
HETATM    3  N1  UNL     1      24.802   5.159  49.201  1.00  0.00    -0.253 NA
HETATM    4  C8  UNL     1      23.560   4.761  48.805  1.00  0.00     0.235 A 
HETATM    5  N2  UNL     1      23.032   3.607  49.232  1.00  0.00    -0.217 NA
HETATM    6  C9  UNL     1      23.664   2.770  50.063  1.00  0.00     0.182 A 
ENDROOT
BRANCH   1   7
HETATM    7  C5  UNL     1      25.877   2.470  51.410  1.00  0.00     0.057 C 
HETATM    8  C4  UNL     1      25.755   2.661  52.727  1.00  0.00     0.102 C 
BRANCH   8   9
HETATM    9  C2  UNL     1      26.693   1.968  53.576  1.00  0.00     0.127 C 
HETATM   10  C3  UNL     1      27.969   2.265  53.474  1.00  0.00     0.441 C 
HETATM   11  F1  UNL     1      29.121   1.871  54.052  1.00  0.00    -0.428 F 
BRANCH   9  12
HETATM   12  O1  UNL     1      27.263   1.141  54.501  1.00  0.00    -0.351 OA
HETATM   13  C1  UNL     1      26.572   0.076  55.133  1.00  0.00     0.210 C 
ENDBRANCH   9  12
ENDBRANCH   8   9
BRANCH   8  14
HETATM   14  O2  UNL     1      24.785   3.479  53.273  1.00  0.00    -0.358 OA
HETATM   15  H5  UNL     1      23.934   3.614  52.746  1.00  0.00     0.217 HD
ENDBRANCH   8  14
ENDBRANCH   1   7
BRANCH   6  16
HETATM   16  O3  UNL     1      23.419   1.574  50.659  1.00  0.00    -0.291 OA
BRANCH  16  17
HETATM   17  C10 UNL     1      22.471   1.408  51.625  1.00  0.00     0.079 A 
HETATM   18  C11 UNL     1      21.275   2.127  51.714  1.00  0.00     0.037 A 
HETATM   19  C12 UNL     1      20.446   1.806  52.774  1.00  0.00     0.004 A 
HETATM   20  C13 UNL     1      20.716   0.842  53.730  1.00  0.00     0.019 A 
HETATM   21  C14 UNL     1      21.899   0.120  53.654  1.00  0.00     0.013 A 
HETATM   22 BR1  UNL     1      22.335  -1.211  54.928  1.00  0.00    -0.051 Br
HETATM   23  C15 UNL     1      22.725   0.457  52.578  1.00  0.00     0.056 A 
ENDBRANCH  16  17
ENDBRANCH   6  16
TORSDOF 6
ENDMDL
