MODEL 1
REMARK VINA RESULT:      -7.8      0.000      0.000
REMARK  4 active torsions:
REMARK  status: ('A' for Active; 'I' for Inactive)
REMARK    1  A    between atoms: C1_2  and  C2_3 
REMARK       I    between atoms: C1_2  and  N1_11 
REMARK    2  A    between atoms: C2_3  and  O2_4 
REMARK    3  A    between atoms: O2_4  and  C3_5 
REMARK    4  A    between atoms: N1_11  and  C9_12 
ROOT
HETATM    1  O1  UNL     1      22.739  -1.558  55.679  1.00  0.00    -0.271 OA
HETATM    2  C1  UNL     1      22.479  -1.185  54.502  1.00  0.00     0.246 C 
HETATM    3  N1  UNL     1      23.275  -0.445  53.617  1.00  0.00    -0.325 N 
HETATM    4  H8  UNL     1      22.922  -0.207  52.659  1.00  0.00     0.169 HD
ENDROOT
BRANCH   3   5
HETATM    5  C9  UNL     1      24.583   0.091  53.777  1.00  0.00     0.037 A 
HETATM    6  C10 UNL     1      24.701   1.375  53.237  1.00  0.00     0.032 A 
HETATM    7  C11 UNL     1      25.921   2.052  53.307  1.00  0.00     0.034 A 
HETATM    8  C12 UNL     1      26.993   1.428  53.914  1.00  0.00     0.063 A 
HETATM    9  C13 UNL     1      26.879   0.154  54.449  1.00  0.00     0.099 A 
HETATM   10  N2  UNL     1      28.351   1.833  54.147  1.00  0.00    -0.366 N 
HETATM   11  C14 UNL     1      25.672  -0.511  54.380  1.00  0.00     0.068 A 
HETATM   12  O3  UNL     1      28.093  -0.205  54.982  1.00  0.00    -0.330 OA
HETATM   13  C15 UNL     1      29.083   0.569  54.287  1.00  0.00     0.298 C 
HETATM   14  H14 UNL     1      28.669   2.832  54.194  1.00  0.00     0.162 HD
ENDBRANCH   3   5
BRANCH   2  15
HETATM   15  C2  UNL     1      21.126  -1.645  54.112  1.00  0.00     0.278 C 
BRANCH  15  16
HETATM   16  O2  UNL     1      20.259  -0.536  54.057  1.00  0.00    -0.342 OA
BRANCH  16  17
HETATM   17  C3  UNL     1      19.445  -0.339  52.949  1.00  0.00     0.069 A 
HETATM   18  C4  UNL     1      20.080   0.374  51.929  1.00  0.00     0.037 A 
HETATM   19  C5  UNL     1      19.459   0.688  50.726  1.00  0.00     0.003 A 
HETATM   20  C6  UNL     1      18.150   0.253  50.576  1.00  0.00     0.000 A 
HETATM   21  C7  UNL     1      17.517  -0.451  51.574  1.00  0.00     0.003 A 
HETATM   22  C8  UNL     1      18.146  -0.754  52.760  1.00  0.00     0.037 A 
ENDBRANCH  16  17
ENDBRANCH  15  16
ENDBRANCH   2  15
TORSDOF 4
ENDMDL
MODEL 2
REMARK VINA RESULT:      -7.7      2.133      7.852
REMARK  4 active torsions:
REMARK  status: ('A' for Active; 'I' for Inactive)
REMARK    1  A    between atoms: C1_2  and  C2_3 
REMARK       I    between atoms: C1_2  and  N1_11 
REMARK    2  A    between atoms: C2_3  and  O2_4 
REMARK    3  A    between atoms: O2_4  and  C3_5 
REMARK    4  A    between atoms: N1_11  and  C9_12 
ROOT
HETATM    1  O1  UNL     1      24.163   3.079  53.126  1.00  0.00    -0.271 OA
HETATM    2  C1  UNL     1      24.735   1.957  53.222  1.00  0.00     0.246 C 
HETATM    3  N1  UNL     1      24.162   0.684  53.347  1.00  0.00    -0.325 N 
HETATM    4  H8  UNL     1      24.771  -0.167  53.418  1.00  0.00     0.169 HD
ENDROOT
BRANCH   3   5
HETATM    5  C9  UNL     1      22.798   0.286  53.399  1.00  0.00     0.037 A 
HETATM    6  C10 UNL     1      22.588  -0.781  54.278  1.00  0.00     0.032 A 
HETATM    7  C11 UNL     1      21.303  -1.300  54.451  1.00  0.00     0.034 A 
HETATM    8  C12 UNL     1      20.260  -0.742  53.741  1.00  0.00     0.063 A 
HETATM    9  C13 UNL     1      20.464   0.315  52.868  1.00  0.00     0.099 A 
HETATM   10  N2  UNL     1      18.854  -1.030  53.687  1.00  0.00    -0.366 N 
HETATM   11  C14 UNL     1      21.735   0.827  52.699  1.00  0.00     0.068 A 
HETATM   12  O3  UNL     1      19.258   0.660  52.309  1.00  0.00    -0.330 OA
HETATM   13  C15 UNL     1      18.432  -0.513  52.380  1.00  0.00     0.298 C 
HETATM   14  H14 UNL     1      18.319  -1.508  54.454  1.00  0.00     0.162 HD
ENDBRANCH   3   5
BRANCH   2  15
HETATM   15  C2  UNL     1      26.206   2.135  53.190  1.00  0.00     0.278 C 
BRANCH  15  16
HETATM   16  O2  UNL     1      26.786   1.378  54.227  1.00  0.00    -0.342 OA
BRANCH  16  17
HETATM   17  C3  UNL     1      27.774   0.444  53.943  1.00  0.00     0.069 A 
HETATM   18  C4  UNL     1      27.267  -0.726  53.373  1.00  0.00     0.037 A 
HETATM   19  C5  UNL     1      28.072  -1.798  53.006  1.00  0.00     0.003 A 
HETATM   20  C6  UNL     1      29.432  -1.654  53.234  1.00  0.00     0.000 A 
HETATM   21  C7  UNL     1      29.941  -0.505  53.795  1.00  0.00     0.003 A 
HETATM   22  C8  UNL     1      29.130   0.548  54.153  1.00  0.00     0.037 A 
ENDBRANCH  16  17
ENDBRANCH  15  16
ENDBRANCH   2  15
TORSDOF 4
ENDMDL
MODEL 3
REMARK VINA RESULT:      -7.5      3.820      4.930
REMARK  4 active torsions:
REMARK  status: ('A' for Active; 'I' for Inactive)
REMARK    1  A    between atoms: C1_2  and  C2_3 
REMARK       I    between atoms: C1_2  and  N1_11 
REMARK    2  A    between atoms: C2_3  and  O2_4 
REMARK    3  A    between atoms: O2_4  and  C3_5 
REMARK    4  A    between atoms: N1_11  and  C9_12 
ROOT
HETATM    1  O1  UNL     1      26.866   2.953  49.629  1.00  0.00    -0.271 OA
HETATM    2  C1  UNL     1      26.164   3.251  50.635  1.00  0.00     0.246 C 
HETATM    3  N1  UNL     1      26.189   2.694  51.921  1.00  0.00    -0.325 N 
HETATM    4  H8  UNL     1      25.538   3.048  52.664  1.00  0.00     0.169 HD
ENDROOT
BRANCH   3   5
HETATM    5  C9  UNL     1      26.994   1.655  52.464  1.00  0.00     0.037 A 
HETATM    6  C10 UNL     1      28.105   2.149  53.153  1.00  0.00     0.032 A 
HETATM    7  C11 UNL     1      29.005   1.263  53.751  1.00  0.00     0.034 A 
HETATM    8  C12 UNL     1      28.774  -0.093  53.643  1.00  0.00     0.063 A 
HETATM    9  C13 UNL     1      27.673  -0.586  52.959  1.00  0.00     0.099 A 
HETATM   10  N2  UNL     1      29.484  -1.244  54.127  1.00  0.00    -0.366 N 
HETATM   11  C14 UNL     1      26.785   0.292  52.370  1.00  0.00     0.068 A 
HETATM   12  O3  UNL     1      27.701  -1.957  53.017  1.00  0.00    -0.330 OA
HETATM   13  C15 UNL     1      29.075  -2.324  53.221  1.00  0.00     0.298 C 
HETATM   14  H14 UNL     1      30.132  -1.234  54.952  1.00  0.00     0.162 HD
ENDBRANCH   3   5
BRANCH   2  15
HETATM   15  C2  UNL     1      25.224   4.344  50.292  1.00  0.00     0.278 C 
BRANCH  15  16
HETATM   16  O2  UNL     1      23.938   4.012  50.761  1.00  0.00    -0.342 OA
BRANCH  16  17
HETATM   17  C3  UNL     1      23.177   3.057  50.100  1.00  0.00     0.069 A 
HETATM   18  C4  UNL     1      23.119   3.269  48.720  1.00  0.00     0.037 A 
HETATM   19  C5  UNL     1      22.415   2.439  47.856  1.00  0.00     0.003 A 
HETATM   20  C6  UNL     1      21.757   1.364  48.434  1.00  0.00     0.000 A 
HETATM   21  C7  UNL     1      21.809   1.146  49.792  1.00  0.00     0.003 A 
HETATM   22  C8  UNL     1      22.511   1.978  50.634  1.00  0.00     0.037 A 
ENDBRANCH  16  17
ENDBRANCH  15  16
ENDBRANCH   2  15
TORSDOF 4
ENDMDL
MODEL 4
REMARK VINA RESULT:      -7.4      4.807      6.625
REMARK  4 active torsions:
REMARK  status: ('A' for Active; 'I' for Inactive)
REMARK    1  A    between atoms: C1_2  and  C2_3 
REMARK       I    between atoms: C1_2  and  N1_11 
REMARK    2  A    between atoms: C2_3  and  O2_4 
REMARK    3  A    between atoms: O2_4  and  C3_5 
REMARK    4  A    between atoms: N1_11  and  C9_12 
ROOT
HETATM    1  O1  UNL     1      24.079   2.440  52.970  1.00  0.00    -0.271 OA
HETATM    2  C1  UNL     1      24.899   2.949  52.157  1.00  0.00     0.246 C 
HETATM    3  N1  UNL     1      26.224   2.575  51.893  1.00  0.00    -0.325 N 
HETATM    4  H8  UNL     1      26.791   3.098  51.183  1.00  0.00     0.169 HD
ENDROOT
BRANCH   3   5
HETATM    5  C9  UNL     1      27.019   1.534  52.448  1.00  0.00     0.037 A 
HETATM    6  C10 UNL     1      28.125   2.024  53.147  1.00  0.00     0.032 A 
HETATM    7  C11 UNL     1      29.015   1.137  53.757  1.00  0.00     0.034 A 
HETATM    8  C12 UNL     1      28.777  -0.219  53.652  1.00  0.00     0.063 A 
HETATM    9  C13 UNL     1      27.681  -0.709  52.959  1.00  0.00     0.099 A 
HETATM   10  N2  UNL     1      29.476  -1.372  54.148  1.00  0.00    -0.366 N 
HETATM   11  C14 UNL     1      26.803   0.171  52.358  1.00  0.00     0.068 A 
HETATM   12  O3  UNL     1      27.701  -2.080  53.023  1.00  0.00    -0.330 OA
HETATM   13  C15 UNL     1      29.071  -2.453  53.242  1.00  0.00     0.298 C 
HETATM   14  H14 UNL     1      30.116  -1.361  54.979  1.00  0.00     0.162 HD
ENDBRANCH   3   5
BRANCH   2  15
HETATM   15  C2  UNL     1      24.269   4.086  51.446  1.00  0.00     0.278 C 
BRANCH  15  16
HETATM   16  O2  UNL     1      24.595   4.013  50.077  1.00  0.00    -0.342 OA
BRANCH  16  17
HETATM   17  C3  UNL     1      25.523   4.889  49.532  1.00  0.00     0.069 A 
HETATM   18  C4  UNL     1      26.710   4.257  49.153  1.00  0.00     0.037 A 
HETATM   19  C5  UNL     1      27.780   4.937  48.584  1.00  0.00     0.003 A 
HETATM   20  C6  UNL     1      27.617   6.302  48.403  1.00  0.00     0.000 A 
HETATM   21  C7  UNL     1      26.452   6.934  48.772  1.00  0.00     0.003 A 
HETATM   22  C8  UNL     1      25.401   6.246  49.335  1.00  0.00     0.037 A 
ENDBRANCH  16  17
ENDBRANCH  15  16
ENDBRANCH   2  15
TORSDOF 4
ENDMDL
MODEL 5
REMARK VINA RESULT:      -7.1      2.267      3.017
REMARK  4 active torsions:
REMARK  status: ('A' for Active; 'I' for Inactive)
REMARK    1  A    between atoms: C1_2  and  C2_3 
REMARK       I    between atoms: C1_2  and  N1_11 
REMARK    2  A    between atoms: C2_3  and  O2_4 
REMARK    3  A    between atoms: O2_4  and  C3_5 
REMARK    4  A    between atoms: N1_11  and  C9_12 
ROOT
HETATM    1  O1  UNL     1      24.510   2.588  50.360  1.00  0.00    -0.271 OA
HETATM    2  C1  UNL     1      23.908   1.972  51.283  1.00  0.00     0.246 C 
HETATM    3  N1  UNL     1      24.447   1.267  52.368  1.00  0.00    -0.325 N 
HETATM    4  H8  UNL     1      23.815   0.800  53.063  1.00  0.00     0.169 HD
ENDROOT
BRANCH   3   5
HETATM    5  C9  UNL     1      25.800   1.042  52.744  1.00  0.00     0.037 A 
HETATM    6  C10 UNL     1      26.547   2.223  52.770  1.00  0.00     0.032 A 
HETATM    7  C11 UNL     1      27.899   2.186  53.119  1.00  0.00     0.034 A 
HETATM    8  C12 UNL     1      28.471   0.969  53.434  1.00  0.00     0.063 A 
HETATM    9  C13 UNL     1      27.732  -0.204  53.408  1.00  0.00     0.099 A 
HETATM   10  N2  UNL     1      29.800   0.589  53.825  1.00  0.00    -0.366 N 
HETATM   11  C14 UNL     1      26.396  -0.164  53.064  1.00  0.00     0.068 A 
HETATM   12  O3  UNL     1      28.554  -1.245  53.763  1.00  0.00    -0.330 OA
HETATM   13  C15 UNL     1      29.892  -0.826  53.449  1.00  0.00     0.298 C 
HETATM   14  H14 UNL     1      30.491   1.239  54.274  1.00  0.00     0.162 HD
ENDBRANCH   3   5
BRANCH   2  15
HETATM   15  C2  UNL     1      22.442   2.075  51.088  1.00  0.00     0.278 C 
BRANCH  15  16
HETATM   16  O2  UNL     1      21.918   0.790  50.847  1.00  0.00    -0.342 OA
BRANCH  16  17
HETATM   17  C3  UNL     1      20.990   0.238  51.721  1.00  0.00     0.069 A 
HETATM   18  C4  UNL     1      19.678   0.331  51.250  1.00  0.00     0.037 A 
HETATM   19  C5  UNL     1      18.585  -0.155  51.957  1.00  0.00     0.003 A 
HETATM   20  C6  UNL     1      18.857  -0.750  53.180  1.00  0.00     0.000 A 
HETATM   21  C7  UNL     1      20.146  -0.847  53.652  1.00  0.00     0.003 A 
HETATM   22  C8  UNL     1      21.218  -0.360  52.939  1.00  0.00     0.037 A 
ENDBRANCH  16  17
ENDBRANCH  15  16
ENDBRANCH   2  15
TORSDOF 4
ENDMDL
MODEL 6
REMARK VINA RESULT:      -7.0      1.668      2.230
REMARK  4 active torsions:
REMARK  status: ('A' for Active; 'I' for Inactive)
REMARK    1  A    between atoms: C1_2  and  C2_3 
REMARK       I    between atoms: C1_2  and  N1_11 
REMARK    2  A    between atoms: C2_3  and  O2_4 
REMARK    3  A    between atoms: O2_4  and  C3_5 
REMARK    4  A    between atoms: N1_11  and  C9_12 
ROOT
HETATM    1  O1  UNL     1      22.497  -0.055  54.067  1.00  0.00    -0.271 OA
HETATM    2  C1  UNL     1      22.478   0.924  53.269  1.00  0.00     0.246 C 
HETATM    3  N1  UNL     1      23.556   1.634  52.721  1.00  0.00    -0.325 N 
HETATM    4  H8  UNL     1      23.385   2.433  52.064  1.00  0.00     0.169 HD
ENDROOT
BRANCH   3   5
HETATM    5  C9  UNL     1      24.958   1.466  52.895  1.00  0.00     0.037 A 
HETATM    6  C10 UNL     1      25.432   0.298  52.292  1.00  0.00     0.032 A 
HETATM    7  C11 UNL     1      26.789  -0.024  52.366  1.00  0.00     0.034 A 
HETATM    8  C12 UNL     1      27.639   0.829  53.041  1.00  0.00     0.063 A 
HETATM    9  C13 UNL     1      27.171   1.988  53.641  1.00  0.00     0.099 A 
HETATM   10  N2  UNL     1      29.051   0.796  53.298  1.00  0.00    -0.366 N 
HETATM   11  C14 UNL     1      25.829   2.304  53.565  1.00  0.00     0.068 A 
HETATM   12  O3  UNL     1      28.230   2.632  54.231  1.00  0.00    -0.330 OA
HETATM   13  C15 UNL     1      29.216   1.623  54.499  1.00  0.00     0.298 C 
HETATM   14  H14 UNL     1      29.746   0.273  52.711  1.00  0.00     0.162 HD
ENDBRANCH   3   5
BRANCH   2  15
HETATM   15  C2  UNL     1      21.079   1.282  52.940  1.00  0.00     0.278 C 
BRANCH  15  16
HETATM   16  O2  UNL     1      20.605   0.416  51.934  1.00  0.00    -0.342 OA
BRANCH  16  17
HETATM   17  C3  UNL     1      19.295  -0.043  51.967  1.00  0.00     0.069 A 
HETATM   18  C4  UNL     1      19.008  -0.785  53.115  1.00  0.00     0.037 A 
HETATM   19  C5  UNL     1      17.759  -1.344  53.362  1.00  0.00     0.003 A 
HETATM   20  C6  UNL     1      16.785  -1.127  52.398  1.00  0.00     0.000 A 
HETATM   21  C7  UNL     1      17.058  -0.396  51.265  1.00  0.00     0.003 A 
HETATM   22  C8  UNL     1      18.301   0.150  51.035  1.00  0.00     0.037 A 
ENDBRANCH  16  17
ENDBRANCH  15  16
ENDBRANCH   2  15
TORSDOF 4
ENDMDL
MODEL 7
REMARK VINA RESULT:      -7.0      2.365      8.196
REMARK  4 active torsions:
REMARK  status: ('A' for Active; 'I' for Inactive)
REMARK    1  A    between atoms: C1_2  and  C2_3 
REMARK       I    between atoms: C1_2  and  N1_11 
REMARK    2  A    between atoms: C2_3  and  O2_4 
REMARK    3  A    between atoms: O2_4  and  C3_5 
REMARK    4  A    between atoms: N1_11  and  C9_12 
ROOT
HETATM    1  O1  UNL     1      24.030   1.212  53.095  1.00  0.00    -0.271 OA
HETATM    2  C1  UNL     1      23.846   0.016  53.456  1.00  0.00     0.246 C 
HETATM    3  N1  UNL     1      22.685  -0.763  53.362  1.00  0.00    -0.325 N 
HETATM    4  H8  UNL     1      22.681  -1.753  53.708  1.00  0.00     0.169 HD
ENDROOT
BRANCH   3   5
HETATM    5  C9  UNL     1      21.398  -0.447  52.843  1.00  0.00     0.037 A 
HETATM    6  C10 UNL     1      20.366  -0.897  53.671  1.00  0.00     0.032 A 
HETATM    7  C11 UNL     1      19.035  -0.671  53.313  1.00  0.00     0.034 A 
HETATM    8  C12 UNL     1      18.769  -0.001  52.135  1.00  0.00     0.063 A 
HETATM    9  C13 UNL     1      19.791   0.445  51.311  1.00  0.00     0.099 A 
HETATM   10  N2  UNL     1      17.546   0.385  51.489  1.00  0.00    -0.366 N 
HETATM   11  C14 UNL     1      21.105   0.221  51.669  1.00  0.00     0.068 A 
HETATM   12  O3  UNL     1      19.233   1.070  50.223  1.00  0.00    -0.330 OA
HETATM   13  C15 UNL     1      17.915   0.519  50.075  1.00  0.00     0.298 C 
HETATM   14  H14 UNL     1      16.632   0.520  51.988  1.00  0.00     0.162 HD
ENDBRANCH   3   5
BRANCH   2  15
HETATM   15  C2  UNL     1      25.091  -0.532  54.043  1.00  0.00     0.278 C 
BRANCH  15  16
HETATM   16  O2  UNL     1      26.021  -0.772  53.012  1.00  0.00    -0.342 OA
BRANCH  16  17
HETATM   17  C3  UNL     1      27.379  -0.596  53.241  1.00  0.00     0.069 A 
HETATM   18  C4  UNL     1      28.111  -1.777  53.098  1.00  0.00     0.037 A 
HETATM   19  C5  UNL     1      29.488  -1.841  53.280  1.00  0.00     0.003 A 
HETATM   20  C6  UNL     1      30.120  -0.653  53.617  1.00  0.00     0.000 A 
HETATM   21  C7  UNL     1      29.408   0.515  53.759  1.00  0.00     0.003 A 
HETATM   22  C8  UNL     1      28.045   0.562  53.576  1.00  0.00     0.037 A 
ENDBRANCH  16  17
ENDBRANCH  15  16
ENDBRANCH   2  15
TORSDOF 4
ENDMDL
MODEL 8
REMARK VINA RESULT:      -6.8      2.217      8.163
REMARK  4 active torsions:
REMARK  status: ('A' for Active; 'I' for Inactive)
REMARK    1  A    between atoms: C1_2  and  C2_3 
REMARK       I    between atoms: C1_2  and  N1_11 
REMARK    2  A    between atoms: C2_3  and  O2_4 
REMARK    3  A    between atoms: O2_4  and  C3_5 
REMARK    4  A    between atoms: N1_11  and  C9_12 
ROOT
HETATM    1  O1  UNL     1      23.193  -1.096  53.288  1.00  0.00    -0.271 OA
HETATM    2  C1  UNL     1      23.136   0.115  52.934  1.00  0.00     0.246 C 
HETATM    3  N1  UNL     1      22.037   0.840  52.453  1.00  0.00    -0.325 N 
HETATM    4  H8  UNL     1      22.141   1.851  52.196  1.00  0.00     0.169 HD
ENDROOT
BRANCH   3   5
HETATM    5  C9  UNL     1      20.692   0.439  52.227  1.00  0.00     0.037 A 
HETATM    6  C10 UNL     1      20.236   0.798  50.956  1.00  0.00     0.032 A 
HETATM    7  C11 UNL     1      18.933   0.480  50.566  1.00  0.00     0.034 A 
HETATM    8  C12 UNL     1      18.117  -0.188  51.456  1.00  0.00     0.063 A 
HETATM    9  C13 UNL     1      18.566  -0.544  52.719  1.00  0.00     0.099 A 
HETATM   10  N2  UNL     1      16.760  -0.652  51.375  1.00  0.00    -0.366 N 
HETATM   11  C14 UNL     1      19.854  -0.230  53.101  1.00  0.00     0.068 A 
HETATM   12  O3  UNL     1      17.548  -1.190  53.377  1.00  0.00    -0.330 OA
HETATM   13  C15 UNL     1      16.327  -0.736  52.775  1.00  0.00     0.298 C 
HETATM   14  H14 UNL     1      16.262  -0.863  50.476  1.00  0.00     0.162 HD
ENDBRANCH   3   5
BRANCH   2  15
HETATM   15  C2  UNL     1      24.465   0.751  53.090  1.00  0.00     0.278 C 
BRANCH  15  16
HETATM   16  O2  UNL     1      25.177   0.090  54.111  1.00  0.00    -0.342 OA
BRANCH  16  17
HETATM   17  C3  UNL     1      26.495  -0.294  53.907  1.00  0.00     0.069 A 
HETATM   18  C4  UNL     1      27.387   0.346  54.772  1.00  0.00     0.037 A 
HETATM   19  C5  UNL     1      28.758   0.117  54.750  1.00  0.00     0.003 A 
HETATM   20  C6  UNL     1      29.215  -0.796  53.811  1.00  0.00     0.000 A 
HETATM   21  C7  UNL     1      28.345  -1.432  52.956  1.00  0.00     0.003 A 
HETATM   22  C8  UNL     1      26.990  -1.194  52.990  1.00  0.00     0.037 A 
ENDBRANCH  16  17
ENDBRANCH  15  16
ENDBRANCH   2  15
TORSDOF 4
ENDMDL
MODEL 9
REMARK VINA RESULT:      -6.8      4.573      7.712
REMARK  4 active torsions:
REMARK  status: ('A' for Active; 'I' for Inactive)
REMARK    1  A    between atoms: C1_2  and  C2_3 
REMARK       I    between atoms: C1_2  and  N1_11 
REMARK    2  A    between atoms: C2_3  and  O2_4 
REMARK    3  A    between atoms: O2_4  and  C3_5 
REMARK    4  A    between atoms: N1_11  and  C9_12 
ROOT
HETATM    1  O1  UNL     1      23.668   4.892  52.741  1.00  0.00    -0.271 OA
HETATM    2  C1  UNL     1      23.578   4.326  51.616  1.00  0.00     0.246 C 
HETATM    3  N1  UNL     1      23.296   2.984  51.326  1.00  0.00    -0.325 N 
HETATM    4  H8  UNL     1      23.254   2.655  50.331  1.00  0.00     0.169 HD
ENDROOT
BRANCH   3   5
HETATM    5  C9  UNL     1      23.032   1.887  52.191  1.00  0.00     0.037 A 
HETATM    6  C10 UNL     1      24.191   1.177  52.518  1.00  0.00     0.032 A 
HETATM    7  C11 UNL     1      24.114   0.066  53.361  1.00  0.00     0.034 A 
HETATM    8  C12 UNL     1      22.881  -0.309  53.856  1.00  0.00     0.063 A 
HETATM    9  C13 UNL     1      21.730   0.392  53.532  1.00  0.00     0.099 A 
HETATM   10  N2  UNL     1      22.463  -1.375  54.723  1.00  0.00    -0.366 N 
HETATM   11  C14 UNL     1      21.809   1.491  52.700  1.00  0.00     0.068 A 
HETATM   12  O3  UNL     1      20.665  -0.203  54.162  1.00  0.00    -0.330 OA
HETATM   13  C15 UNL     1      21.046  -1.568  54.394  1.00  0.00     0.298 C 
HETATM   14  H14 UNL     1      23.091  -1.856  55.412  1.00  0.00     0.162 HD
ENDBRANCH   3   5
BRANCH   2  15
HETATM   15  C2  UNL     1      23.823   5.309  50.534  1.00  0.00     0.278 C 
BRANCH  15  16
HETATM   16  O2  UNL     1      24.603   4.703  49.529  1.00  0.00    -0.342 OA
BRANCH  16  17
HETATM   17  C3  UNL     1      25.721   5.355  49.024  1.00  0.00     0.069 A 
HETATM   18  C4  UNL     1      26.866   4.554  49.032  1.00  0.00     0.037 A 
HETATM   19  C5  UNL     1      28.101   4.997  48.573  1.00  0.00     0.003 A 
HETATM   20  C6  UNL     1      28.150   6.298  48.094  1.00  0.00     0.000 A 
HETATM   21  C7  UNL     1      27.028   7.093  48.081  1.00  0.00     0.003 A 
HETATM   22  C8  UNL     1      25.812   6.640  48.540  1.00  0.00     0.037 A 
ENDBRANCH  16  17
ENDBRANCH  15  16
ENDBRANCH   2  15
TORSDOF 4
ENDMDL
