MODEL 1
REMARK VINA RESULT:      -8.8      0.000      0.000
REMARK  3 active torsions:
REMARK  status: ('A' for Active; 'I' for Inactive)
REMARK    1  A    between atoms: C2_2  and  C3_3 
REMARK    2  A    between atoms: C10_13  and  O1_14 
REMARK    3  A    between atoms: O1_14  and  C11_15 
ROOT
HETATM    1  C3  UNL     1      21.285   0.027  52.756  1.00  0.00    -0.011 C 
HETATM    2  C4  UNL     1      20.741  -0.655  53.756  1.00  0.00     0.012 C 
HETATM    3  C5  UNL     1      21.445  -1.207  54.921  1.00  0.00     0.019 C 
HETATM    4  C6  UNL     1      22.746  -1.299  55.130  1.00  0.00     0.108 C 
HETATM    5  N1  UNL     1      23.745  -0.877  54.259  1.00  0.00    -0.303 N 
HETATM    6  N2  UNL     1      23.540  -0.023  53.180  1.00  0.00    -0.235 N 
HETATM    7  C7  UNL     1      22.600   0.469  52.409  1.00  0.00     0.155 A 
HETATM    8  N3  UNL     1      22.678   1.304  51.367  1.00  0.00    -0.240 NA
HETATM    9  C8  UNL     1      23.846   1.791  50.936  1.00  0.00     0.136 A 
HETATM   10  C9  UNL     1      25.076   1.384  51.645  1.00  0.00     0.050 A 
HETATM   11  C10 UNL     1      26.539   1.860  51.231  1.00  0.00     0.128 C 
HETATM   12  C15 UNL     1      26.724   1.105  52.316  1.00  0.00     0.168 C 
HETATM   13  S1  UNL     1      26.574   2.290  53.882  1.00  0.00     0.064 SA
HETATM   14  O3  UNL     1      26.298   0.802  54.887  1.00  0.00    -0.272 OA
HETATM   15  C16 UNL     1      26.238  -0.067  53.691  1.00  0.00     0.116 C 
HETATM   16  C17 UNL     1      24.884   0.346  52.927  1.00  0.00     0.105 A 
HETATM   17  C18 UNL     1      26.919  -1.198  52.830  1.00  0.00     0.244 C 
HETATM   18  O4  UNL     1      26.825  -0.374  51.540  1.00  0.00    -0.333 OA
HETATM   19  H9  UNL     1      24.740  -1.234  54.444  1.00  0.00     0.186 HD
ENDROOT
BRANCH  11  20
HETATM   20  O1  UNL     1      26.491   2.664  50.100  1.00  0.00    -0.316 OA
BRANCH  20  21
HETATM   21  C11 UNL     1      26.587   4.052  50.073  1.00  0.00     0.266 C 
HETATM   22  C12 UNL     1      25.548   4.801  49.344  1.00  0.00     0.063 C 
HETATM   23  C13 UNL     1      26.336   5.914  48.689  1.00  0.00     0.031 C 
HETATM   24  C14 UNL     1      27.648   5.179  48.434  1.00  0.00     0.171 C 
HETATM   25  O2  UNL     1      27.834   4.442  49.570  1.00  0.00    -0.361 OA
ENDBRANCH  20  21
ENDBRANCH  11  20
BRANCH   1  26
HETATM   26  C2  UNL     1      20.369   0.486  51.682  1.00  0.00     0.038 C 
HETATM   27  C1  UNL     1      18.965   0.066  51.911  1.00  0.00     0.010 C 
ENDBRANCH   1  26
TORSDOF 3
ENDMDL
MODEL 2
REMARK VINA RESULT:      -8.3      3.444      7.445
REMARK  3 active torsions:
REMARK  status: ('A' for Active; 'I' for Inactive)
REMARK    1  A    between atoms: C2_2  and  C3_3 
REMARK    2  A    between atoms: C10_13  and  O1_14 
REMARK    3  A    between atoms: O1_14  and  C11_15 
ROOT
HETATM    1  C3  UNL     1      27.291   5.797  48.564  1.00  0.00    -0.011 C 
HETATM    2  C4  UNL     1      27.159   7.027  48.081  1.00  0.00     0.012 C 
HETATM    3  C5  UNL     1      25.971   7.883  48.188  1.00  0.00     0.019 C 
HETATM    4  C6  UNL     1      24.761   7.564  48.610  1.00  0.00     0.108 C 
HETATM    5  N1  UNL     1      24.354   6.311  49.055  1.00  0.00    -0.303 N 
HETATM    6  N2  UNL     1      25.222   5.284  49.412  1.00  0.00    -0.235 N 
HETATM    7  C7  UNL     1      26.466   4.886  49.295  1.00  0.00     0.155 A 
HETATM    8  N3  UNL     1      27.073   3.781  49.743  1.00  0.00    -0.240 NA
HETATM    9  C8  UNL     1      26.417   2.846  50.439  1.00  0.00     0.136 A 
HETATM   10  C9  UNL     1      24.981   3.058  50.711  1.00  0.00     0.050 A 
HETATM   11  C10 UNL     1      24.065   2.021  51.501  1.00  0.00     0.128 C 
HETATM   12  C15 UNL     1      23.256   3.046  51.226  1.00  0.00     0.168 C 
HETATM   13  S1  UNL     1      23.417   4.330  52.712  1.00  0.00     0.064 SA
HETATM   14  O3  UNL     1      22.710   5.584  51.604  1.00  0.00    -0.272 OA
HETATM   15  C16 UNL     1      22.751   4.669  50.443  1.00  0.00     0.116 C 
HETATM   16  C17 UNL     1      24.312   4.457  50.118  1.00  0.00     0.105 A 
HETATM   17  C18 UNL     1      21.947   3.800  49.403  1.00  0.00     0.244 C 
HETATM   18  O4  UNL     1      22.771   2.543  49.706  1.00  0.00    -0.333 OA
HETATM   19  H9  UNL     1      23.298   6.135  49.131  1.00  0.00     0.186 HD
ENDROOT
BRANCH  11  20
HETATM   20  O1  UNL     1      24.793   0.892  51.851  1.00  0.00    -0.316 OA
BRANCH  20  21
HETATM   21  C11 UNL     1      25.209   0.547  53.133  1.00  0.00     0.266 C 
HETATM   22  C12 UNL     1      26.052   1.508  53.867  1.00  0.00     0.063 C 
HETATM   23  C13 UNL     1      27.037   0.611  54.583  1.00  0.00     0.031 C 
HETATM   24  C14 UNL     1      27.158  -0.506  53.552  1.00  0.00     0.171 C 
HETATM   25  O2  UNL     1      25.875  -0.684  53.113  1.00  0.00    -0.361 OA
ENDBRANCH  20  21
ENDBRANCH  11  20
BRANCH   1  26
HETATM   26  C2  UNL     1      28.592   5.122  48.332  1.00  0.00     0.038 C 
HETATM   27  C1  UNL     1      29.712   6.083  48.173  1.00  0.00     0.010 C 
ENDBRANCH   1  26
TORSDOF 3
ENDMDL
MODEL 3
REMARK VINA RESULT:      -8.1      2.737      4.635
REMARK  3 active torsions:
REMARK  status: ('A' for Active; 'I' for Inactive)
REMARK    1  A    between atoms: C2_2  and  C3_3 
REMARK    2  A    between atoms: C10_13  and  O1_14 
REMARK    3  A    between atoms: O1_14  and  C11_15 
ROOT
HETATM    1  C3  UNL     1      25.448   0.195  52.776  1.00  0.00    -0.011 C 
HETATM    2  C4  UNL     1      24.606  -0.586  53.440  1.00  0.00     0.012 C 
HETATM    3  C5  UNL     1      23.148  -0.429  53.519  1.00  0.00     0.019 C 
HETATM    4  C6  UNL     1      22.405   0.586  53.113  1.00  0.00     0.108 C 
HETATM    5  N1  UNL     1      22.871   1.748  52.509  1.00  0.00    -0.303 N 
HETATM    6  N2  UNL     1      24.141   1.897  51.963  1.00  0.00    -0.235 N 
HETATM    7  C7  UNL     1      25.340   1.364  51.960  1.00  0.00     0.155 A 
HETATM    8  N3  UNL     1      26.457   1.737  51.325  1.00  0.00    -0.240 NA
HETATM    9  C8  UNL     1      26.495   2.813  50.532  1.00  0.00     0.136 A 
HETATM   10  C9  UNL     1      25.256   3.600  50.364  1.00  0.00     0.050 A 
HETATM   11  C10 UNL     1      25.154   4.918  49.475  1.00  0.00     0.128 C 
HETATM   12  C15 UNL     1      23.917   4.726  49.937  1.00  0.00     0.168 C 
HETATM   13  S1  UNL     1      22.991   3.557  48.651  1.00  0.00     0.064 SA
HETATM   14  O3  UNL     1      21.790   3.191  49.963  1.00  0.00    -0.272 OA
HETATM   15  C16 UNL     1      22.579   3.928  50.974  1.00  0.00     0.116 C 
HETATM   16  C17 UNL     1      23.919   3.062  51.189  1.00  0.00     0.105 A 
HETATM   17  C18 UNL     1      22.698   5.189  51.913  1.00  0.00     0.244 C 
HETATM   18  O4  UNL     1      24.095   5.540  51.388  1.00  0.00    -0.333 OA
HETATM   19  H9  UNL     1      22.195   2.581  52.460  1.00  0.00     0.186 HD
ENDROOT
BRANCH  11  20
HETATM   20  O1  UNL     1      26.390   5.235  48.927  1.00  0.00    -0.316 OA
BRANCH  20  21
HETATM   21  C11 UNL     1      26.750   6.454  48.360  1.00  0.00     0.266 C 
HETATM   22  C12 UNL     1      28.187   6.752  48.223  1.00  0.00     0.063 C 
HETATM   23  C13 UNL     1      28.254   8.228  48.548  1.00  0.00     0.031 C 
HETATM   24  C14 UNL     1      27.133   8.312  49.577  1.00  0.00     0.171 C 
HETATM   25  O2  UNL     1      26.154   7.510  49.059  1.00  0.00    -0.361 OA
ENDBRANCH  20  21
ENDBRANCH  11  20
BRANCH   1  26
HETATM   26  C2  UNL     1      26.888  -0.163  52.842  1.00  0.00     0.038 C 
HETATM   27  C1  UNL     1      27.119  -1.622  52.706  1.00  0.00     0.010 C 
ENDBRANCH   1  26
TORSDOF 3
ENDMDL
MODEL 4
REMARK VINA RESULT:      -8.1      2.898      5.265
REMARK  3 active torsions:
REMARK  status: ('A' for Active; 'I' for Inactive)
REMARK    1  A    between atoms: C2_2  and  C3_3 
REMARK    2  A    between atoms: C10_13  and  O1_14 
REMARK    3  A    between atoms: O1_14  and  C11_15 
ROOT
HETATM    1  C3  UNL     1      19.104  -0.070  52.139  1.00  0.00    -0.011 C 
HETATM    2  C4  UNL     1      18.043  -0.153  51.346  1.00  0.00     0.012 C 
HETATM    3  C5  UNL     1      17.771   0.673  50.163  1.00  0.00     0.019 C 
HETATM    4  C6  UNL     1      18.406   1.756  49.751  1.00  0.00     0.108 C 
HETATM    5  N1  UNL     1      19.497   2.351  50.375  1.00  0.00    -0.303 N 
HETATM    6  N2  UNL     1      20.277   1.737  51.349  1.00  0.00    -0.235 N 
HETATM    7  C7  UNL     1      20.284   0.735  52.195  1.00  0.00     0.155 A 
HETATM    8  N3  UNL     1      21.206   0.357  53.088  1.00  0.00    -0.240 NA
HETATM    9  C8  UNL     1      22.355   1.022  53.246  1.00  0.00     0.136 A 
HETATM   10  C9  UNL     1      22.595   2.208  52.399  1.00  0.00     0.050 A 
HETATM   11  C10 UNL     1      23.902   3.116  52.491  1.00  0.00     0.128 C 
HETATM   12  C15 UNL     1      23.186   3.654  51.502  1.00  0.00     0.168 C 
HETATM   13  S1  UNL     1      23.709   2.735  49.839  1.00  0.00     0.064 SA
HETATM   14  O3  UNL     1      22.165   3.349  49.104  1.00  0.00    -0.272 OA
HETATM   15  C16 UNL     1      21.693   3.889  50.398  1.00  0.00     0.116 C 
HETATM   16  C17 UNL     1      21.398   2.604  51.319  1.00  0.00     0.105 A 
HETATM   17  C18 UNL     1      21.374   5.160  51.274  1.00  0.00     0.244 C 
HETATM   18  O4  UNL     1      22.238   4.664  52.440  1.00  0.00    -0.333 OA
HETATM   19  H9  UNL     1      19.751   3.349  50.073  1.00  0.00     0.186 HD
ENDROOT
BRANCH  11  20
HETATM   20  O1  UNL     1      24.745   2.659  53.496  1.00  0.00    -0.316 OA
BRANCH  20  21
HETATM   21  C11 UNL     1      25.984   2.053  53.318  1.00  0.00     0.266 C 
HETATM   22  C12 UNL     1      26.070   0.926  52.373  1.00  0.00     0.063 C 
HETATM   23  C13 UNL     1      27.030  -0.018  53.064  1.00  0.00     0.031 C 
HETATM   24  C14 UNL     1      26.664   0.269  54.516  1.00  0.00     0.171 C 
HETATM   25  O2  UNL     1      26.497   1.626  54.548  1.00  0.00    -0.361 OA
ENDBRANCH  20  21
ENDBRANCH  11  20
BRANCH   1  26
HETATM   26  C2  UNL     1      19.162  -1.016  53.282  1.00  0.00     0.038 C 
HETATM   27  C1  UNL     1      17.948  -1.863  53.383  1.00  0.00     0.010 C 
ENDBRANCH   1  26
TORSDOF 3
ENDMDL
MODEL 5
REMARK VINA RESULT:      -7.8      6.897      9.978
REMARK  3 active torsions:
REMARK  status: ('A' for Active; 'I' for Inactive)
REMARK    1  A    between atoms: C2_2  and  C3_3 
REMARK    2  A    between atoms: C10_13  and  O1_14 
REMARK    3  A    between atoms: O1_14  and  C11_15 
ROOT
HETATM    1  C3  UNL     1      27.078   5.752  48.521  1.00  0.00    -0.011 C 
HETATM    2  C4  UNL     1      25.883   6.286  48.302  1.00  0.00     0.012 C 
HETATM    3  C5  UNL     1      25.611   7.644  47.815  1.00  0.00     0.019 C 
HETATM    4  C6  UNL     1      26.454   8.651  47.667  1.00  0.00     0.108 C 
HETATM    5  N1  UNL     1      27.814   8.625  47.952  1.00  0.00    -0.303 N 
HETATM    6  N2  UNL     1      28.557   7.465  48.145  1.00  0.00    -0.235 N 
HETATM    7  C7  UNL     1      28.435   6.184  48.401  1.00  0.00     0.155 A 
HETATM    8  N3  UNL     1      29.366   5.238  48.566  1.00  0.00    -0.240 NA
HETATM    9  C8  UNL     1      30.673   5.507  48.483  1.00  0.00     0.136 A 
HETATM   10  C9  UNL     1      31.082   6.897  48.198  1.00  0.00     0.050 A 
HETATM   11  C10 UNL     1      32.598   7.375  48.096  1.00  0.00     0.128 C 
HETATM   12  C15 UNL     1      31.882   8.469  47.831  1.00  0.00     0.168 C 
HETATM   13  S1  UNL     1      31.544   8.489  45.891  1.00  0.00     0.064 SA
HETATM   14  O3  UNL     1      30.191   9.658  46.215  1.00  0.00    -0.272 OA
HETATM   15  C16 UNL     1      30.333   9.508  47.680  1.00  0.00     0.116 C 
HETATM   16  C17 UNL     1      29.860   8.005  48.006  1.00  0.00     0.105 A 
HETATM   17  C18 UNL     1      30.758  10.158  49.051  1.00  0.00     0.244 C 
HETATM   18  O4  UNL     1      31.672   8.981  49.411  1.00  0.00    -0.333 OA
HETATM   19  H9  UNL     1      28.320   9.570  48.020  1.00  0.00     0.186 HD
ENDROOT
BRANCH  11  20
HETATM   20  O1  UNL     1      33.462   6.318  48.352  1.00  0.00    -0.316 OA
BRANCH  20  21
HETATM   21  C11 UNL     1      34.342   5.737  47.445  1.00  0.00     0.266 C 
HETATM   22  C12 UNL     1      33.787   5.215  46.183  1.00  0.00     0.063 C 
HETATM   23  C13 UNL     1      34.587   3.949  45.964  1.00  0.00     0.031 C 
HETATM   24  C14 UNL     1      34.798   3.529  47.415  1.00  0.00     0.171 C 
HETATM   25  O2  UNL     1      35.062   4.705  48.060  1.00  0.00    -0.361 OA
ENDBRANCH  20  21
ENDBRANCH  11  20
BRANCH   1  26
HETATM   26  C2  UNL     1      27.105   4.352  49.017  1.00  0.00     0.038 C 
HETATM   27  C1  UNL     1      25.879   3.991  49.771  1.00  0.00     0.010 C 
ENDBRANCH   1  26
TORSDOF 3
ENDMDL
MODEL 6
REMARK VINA RESULT:      -7.7      3.499      8.375
REMARK  3 active torsions:
REMARK  status: ('A' for Active; 'I' for Inactive)
REMARK    1  A    between atoms: C2_2  and  C3_3 
REMARK    2  A    between atoms: C10_13  and  O1_14 
REMARK    3  A    between atoms: O1_14  and  C11_15 
ROOT
HETATM    1  C3  UNL     1      28.371   6.244  48.037  1.00  0.00    -0.011 C 
HETATM    2  C4  UNL     1      28.598   7.465  47.571  1.00  0.00     0.012 C 
HETATM    3  C5  UNL     1      27.634   8.571  47.515  1.00  0.00     0.019 C 
HETATM    4  C6  UNL     1      26.332   8.541  47.739  1.00  0.00     0.108 C 
HETATM    5  N1  UNL     1      25.589   7.418  48.085  1.00  0.00    -0.303 N 
HETATM    6  N2  UNL     1      26.134   6.224  48.545  1.00  0.00    -0.235 N 
HETATM    7  C7  UNL     1      27.259   5.553  48.610  1.00  0.00     0.155 A 
HETATM    8  N3  UNL     1      27.522   4.343  49.118  1.00  0.00    -0.240 NA
HETATM    9  C8  UNL     1      26.572   3.589  49.681  1.00  0.00     0.136 A 
HETATM   10  C9  UNL     1      25.197   4.126  49.735  1.00  0.00     0.050 A 
HETATM   11  C10 UNL     1      23.958   3.334  50.349  1.00  0.00     0.128 C 
HETATM   12  C15 UNL     1      23.455   4.513  49.980  1.00  0.00     0.168 C 
HETATM   13  S1  UNL     1      23.672   5.742  51.504  1.00  0.00     0.064 SA
HETATM   14  O3  UNL     1      23.448   7.113  50.333  1.00  0.00    -0.272 OA
HETATM   15  C16 UNL     1      23.459   6.200  49.169  1.00  0.00     0.116 C 
HETATM   16  C17 UNL     1      24.963   5.634  49.082  1.00  0.00     0.105 A 
HETATM   17  C18 UNL     1      22.650   5.525  47.997  1.00  0.00     0.244 C 
HETATM   18  O4  UNL     1      23.110   4.117  48.391  1.00  0.00    -0.333 OA
HETATM   19  H9  UNL     1      24.521   7.489  47.993  1.00  0.00     0.186 HD
ENDROOT
BRANCH  11  20
HETATM   20  O1  UNL     1      24.348   2.072  50.779  1.00  0.00    -0.316 OA
BRANCH  20  21
HETATM   21  C11 UNL     1      24.720   1.723  52.074  1.00  0.00     0.266 C 
HETATM   22  C12 UNL     1      25.649   0.592  52.242  1.00  0.00     0.063 C 
HETATM   23  C13 UNL     1      25.112  -0.102  53.475  1.00  0.00     0.031 C 
HETATM   24  C14 UNL     1      23.624   0.176  53.293  1.00  0.00     0.171 C 
HETATM   25  O2  UNL     1      23.585   1.470  52.853  1.00  0.00    -0.361 OA
ENDBRANCH  20  21
ENDBRANCH  11  20
BRANCH   1  26
HETATM   26  C2  UNL     1      29.506   5.287  47.991  1.00  0.00     0.038 C 
HETATM   27  C1  UNL     1      30.807   5.958  47.743  1.00  0.00     0.010 C 
ENDBRANCH   1  26
TORSDOF 3
ENDMDL
MODEL 7
REMARK VINA RESULT:      -6.9      9.612     11.801
REMARK  3 active torsions:
REMARK  status: ('A' for Active; 'I' for Inactive)
REMARK    1  A    between atoms: C2_2  and  C3_3 
REMARK    2  A    between atoms: C10_13  and  O1_14 
REMARK    3  A    between atoms: O1_14  and  C11_15 
ROOT
HETATM    1  C3  UNL     1      33.970   5.254  44.934  1.00  0.00    -0.011 C 
HETATM    2  C4  UNL     1      34.523   4.071  45.169  1.00  0.00     0.012 C 
HETATM    3  C5  UNL     1      34.282   3.211  46.334  1.00  0.00     0.019 C 
HETATM    4  C6  UNL     1      33.628   3.496  47.447  1.00  0.00     0.108 C 
HETATM    5  N1  UNL     1      33.016   4.707  47.747  1.00  0.00    -0.303 N 
HETATM    6  N2  UNL     1      32.732   5.699  46.813  1.00  0.00    -0.235 N 
HETATM    7  C7  UNL     1      33.032   6.101  45.601  1.00  0.00     0.155 A 
HETATM    8  N3  UNL     1      32.607   7.162  44.907  1.00  0.00    -0.240 NA
HETATM    9  C8  UNL     1      31.732   8.037  45.414  1.00  0.00     0.136 A 
HETATM   10  C9  UNL     1      31.230   7.806  46.784  1.00  0.00     0.050 A 
HETATM   11  C10 UNL     1      30.208   8.774  47.531  1.00  0.00     0.128 C 
HETATM   12  C15 UNL     1      30.421   7.778  48.393  1.00  0.00     0.168 C 
HETATM   13  S1  UNL     1      29.099   6.372  47.997  1.00  0.00     0.064 SA
HETATM   14  O3  UNL     1      30.166   5.218  48.908  1.00  0.00    -0.272 OA
HETATM   15  C16 UNL     1      31.236   6.229  49.055  1.00  0.00     0.116 C 
HETATM   16  C17 UNL     1      31.811   6.465  47.571  1.00  0.00     0.105 A 
HETATM   17  C18 UNL     1      32.042   7.186  50.013  1.00  0.00     0.244 C 
HETATM   18  O4  UNL     1      31.785   8.411  49.127  1.00  0.00    -0.333 OA
HETATM   19  H9  UNL     1      32.741   4.879  48.771  1.00  0.00     0.186 HD
ENDROOT
BRANCH  11  20
HETATM   20  O1  UNL     1      29.898   9.867  46.732  1.00  0.00    -0.316 OA
BRANCH  20  21
HETATM   21  C11 UNL     1      29.927  11.203  47.120  1.00  0.00     0.266 C 
HETATM   22  C12 UNL     1      30.971  11.622  48.072  1.00  0.00     0.063 C 
HETATM   23  C13 UNL     1      30.241  12.608  48.957  1.00  0.00     0.031 C 
HETATM   24  C14 UNL     1      28.852  11.979  48.942  1.00  0.00     0.171 C 
HETATM   25  O2  UNL     1      28.686  11.585  47.644  1.00  0.00    -0.361 OA
ENDBRANCH  20  21
ENDBRANCH  11  20
BRANCH   1  26
HETATM   26  C2  UNL     1      34.370   5.943  43.681  1.00  0.00     0.038 C 
HETATM   27  C1  UNL     1      34.272   5.063  42.490  1.00  0.00     0.010 C 
ENDBRANCH   1  26
TORSDOF 3
ENDMDL
MODEL 8
REMARK VINA RESULT:      -6.9      3.853      7.415
REMARK  3 active torsions:
REMARK  status: ('A' for Active; 'I' for Inactive)
REMARK    1  A    between atoms: C2_2  and  C3_3 
REMARK    2  A    between atoms: C10_13  and  O1_14 
REMARK    3  A    between atoms: O1_14  and  C11_15 
ROOT
HETATM    1  C3  UNL     1      21.866   4.936  46.148  1.00  0.00    -0.011 C 
HETATM    2  C4  UNL     1      21.975   6.006  45.370  1.00  0.00     0.012 C 
HETATM    3  C5  UNL     1      22.897   7.133  45.560  1.00  0.00     0.019 C 
HETATM    4  C6  UNL     1      23.661   7.405  46.603  1.00  0.00     0.108 C 
HETATM    5  N1  UNL     1      23.748   6.654  47.770  1.00  0.00    -0.303 N 
HETATM    6  N2  UNL     1      23.286   5.348  47.902  1.00  0.00    -0.235 N 
HETATM    7  C7  UNL     1      22.497   4.464  47.340  1.00  0.00     0.155 A 
HETATM    8  N3  UNL     1      22.196   3.212  47.703  1.00  0.00    -0.240 NA
HETATM    9  C8  UNL     1      22.714   2.648  48.799  1.00  0.00     0.136 A 
HETATM   10  C9  UNL     1      23.647   3.446  49.619  1.00  0.00     0.050 A 
HETATM   11  C10 UNL     1      24.321   2.920  50.964  1.00  0.00     0.128 C 
HETATM   12  C15 UNL     1      24.825   4.143  50.789  1.00  0.00     0.168 C 
HETATM   13  S1  UNL     1      26.441   3.955  49.678  1.00  0.00     0.064 SA
HETATM   14  O3  UNL     1      26.300   5.728  49.306  1.00  0.00    -0.272 OA
HETATM   15  C16 UNL     1      24.996   5.830  49.996  1.00  0.00     0.116 C 
HETATM   16  C17 UNL     1      23.964   4.989  49.093  1.00  0.00     0.105 A 
HETATM   17  C18 UNL     1      24.179   6.378  51.228  1.00  0.00     0.244 C 
HETATM   18  O4  UNL     1      23.608   4.995  51.559  1.00  0.00    -0.333 OA
HETATM   19  H9  UNL     1      24.211   7.118  48.619  1.00  0.00     0.186 HD
ENDROOT
BRANCH  11  20
HETATM   20  O1  UNL     1      23.878   1.639  51.265  1.00  0.00    -0.316 OA
BRANCH  20  21
HETATM   21  C11 UNL     1      23.372   1.211  52.488  1.00  0.00     0.266 C 
HETATM   22  C12 UNL     1      23.988   0.025  53.111  1.00  0.00     0.063 C 
HETATM   23  C13 UNL     1      22.798  -0.696  53.706  1.00  0.00     0.031 C 
HETATM   24  C14 UNL     1      21.739  -0.331  52.672  1.00  0.00     0.171 C 
HETATM   25  O2  UNL     1      21.995   0.982  52.391  1.00  0.00    -0.361 OA
ENDBRANCH  20  21
ENDBRANCH  11  20
BRANCH   1  26
HETATM   26  C2  UNL     1      20.857   3.921  45.753  1.00  0.00     0.038 C 
HETATM   27  C1  UNL     1      20.665   3.849  44.283  1.00  0.00     0.010 C 
ENDBRANCH   1  26
TORSDOF 3
ENDMDL
MODEL 9
REMARK VINA RESULT:      -6.9      3.642      5.692
REMARK  3 active torsions:
REMARK  status: ('A' for Active; 'I' for Inactive)
REMARK    1  A    between atoms: C2_2  and  C3_3 
REMARK    2  A    between atoms: C10_13  and  O1_14 
REMARK    3  A    between atoms: O1_14  and  C11_15 
ROOT
HETATM    1  C3  UNL     1      20.855   3.423  47.038  1.00  0.00    -0.011 C 
HETATM    2  C4  UNL     1      19.551   3.447  46.791  1.00  0.00     0.012 C 
HETATM    3  C5  UNL     1      18.473   3.312  47.778  1.00  0.00     0.019 C 
HETATM    4  C6  UNL     1      18.560   2.970  49.051  1.00  0.00     0.108 C 
HETATM    5  N1  UNL     1      19.729   2.658  49.735  1.00  0.00    -0.303 N 
HETATM    6  N2  UNL     1      21.010   2.951  49.278  1.00  0.00    -0.235 N 
HETATM    7  C7  UNL     1      21.678   3.279  48.198  1.00  0.00     0.155 A 
HETATM    8  N3  UNL     1      22.986   3.494  48.015  1.00  0.00    -0.240 NA
HETATM    9  C8  UNL     1      23.867   3.390  49.015  1.00  0.00     0.136 A 
HETATM   10  C9  UNL     1      23.363   3.026  50.355  1.00  0.00     0.050 A 
HETATM   11  C10 UNL     1      24.293   2.839  51.634  1.00  0.00     0.128 C 
HETATM   12  C15 UNL     1      23.054   2.639  52.086  1.00  0.00     0.168 C 
HETATM   13  S1  UNL     1      22.340   4.394  52.625  1.00  0.00     0.064 SA
HETATM   14  O3  UNL     1      20.680   3.662  52.532  1.00  0.00    -0.272 OA
HETATM   15  C16 UNL     1      21.202   2.401  51.962  1.00  0.00     0.116 C 
HETATM   16  C17 UNL     1      21.726   2.779  50.489  1.00  0.00     0.105 A 
HETATM   17  C18 UNL     1      21.489   0.865  52.166  1.00  0.00     0.244 C 
HETATM   18  O4  UNL     1      22.953   1.005  51.737  1.00  0.00    -0.333 OA
HETATM   19  H9  UNL     1      19.628   2.165  50.683  1.00  0.00     0.186 HD
ENDROOT
BRANCH  11  20
HETATM   20  O1  UNL     1      25.628   3.023  51.299  1.00  0.00    -0.316 OA
BRANCH  20  21
HETATM   21  C11 UNL     1      26.640   2.073  51.398  1.00  0.00     0.266 C 
HETATM   22  C12 UNL     1      26.277   0.728  51.880  1.00  0.00     0.063 C 
HETATM   23  C13 UNL     1      27.460   0.352  52.745  1.00  0.00     0.031 C 
HETATM   24  C14 UNL     1      27.828   1.731  53.282  1.00  0.00     0.171 C 
HETATM   25  O2  UNL     1      27.681   2.553  52.200  1.00  0.00    -0.361 OA
ENDBRANCH  20  21
ENDBRANCH  11  20
BRANCH   1  26
HETATM   26  C2  UNL     1      21.761   3.579  45.873  1.00  0.00     0.038 C 
HETATM   27  C1  UNL     1      21.037   3.964  44.635  1.00  0.00     0.010 C 
ENDBRANCH   1  26
TORSDOF 3
ENDMDL
