MODEL 1
REMARK VINA RESULT:      -8.3      0.000      0.000
REMARK  8 active torsions:
REMARK  status: ('A' for Active; 'I' for Inactive)
REMARK    1  A    between atoms: C2_2  and  O1_3 
REMARK    2  A    between atoms: O1_3  and  C3_4 
REMARK    3  A    between atoms: C5_6  and  N1_7 
REMARK    4  A    between atoms: C8_10  and  N2_11 
REMARK    5  A    between atoms: N2_11  and  C9_12 
REMARK    6  A    between atoms: C15_20  and  N4_21 
REMARK    7  A    between atoms: C18_25  and  O2_26 
REMARK    8  A    between atoms: C20_28  and  O3_29 
ROOT
HETATM    1  N1  UNL     1      25.287   3.102  51.511  1.00  0.00    -0.326 N 
HETATM    2  C6  UNL     1      26.172   3.448  50.418  1.00  0.00     0.177 A 
HETATM    3  C7  UNL     1      25.314   4.652  50.240  1.00  0.00     0.053 A 
HETATM    4  C8  UNL     1      25.074   5.826  49.518  1.00  0.00     0.159 A 
HETATM    5  N3  UNL     1      24.007   6.513  49.946  1.00  0.00    -0.045 NA
HETATM    6  C15 UNL     1      23.198   6.199  50.943  1.00  0.00     0.724 A 
HETATM    7  N5  UNL     1      23.463   5.061  51.615  1.00  0.00    -0.044 NA
HETATM    8  C16 UNL     1      24.511   4.270  51.285  1.00  0.00     0.161 A 
ENDROOT
BRANCH   1   9
HETATM    9  C5  UNL     1      25.296   1.989  52.397  1.00  0.00     0.042 A 
HETATM   10  C4  UNL     1      24.287   1.062  52.331  1.00  0.00     0.069 A 
HETATM   11  C3  UNL     1      24.312  -0.024  53.206  1.00  0.00     0.107 A 
HETATM   12  C20 UNL     1      25.321  -0.192  54.135  1.00  0.00     0.135 A 
HETATM   13  C18 UNL     1      26.333   0.769  54.177  1.00  0.00     0.106 A 
HETATM   14  C17 UNL     1      26.322   1.857  53.311  1.00  0.00     0.069 A 
BRANCH  11  15
HETATM   15  O1  UNL     1      23.293  -0.971  53.149  1.00  0.00    -0.348 OA
BRANCH  15  16
HETATM   16  C2  UNL     1      21.953  -0.552  53.375  1.00  0.00     0.171 C 
HETATM   17  C1  UNL     1      21.381  -1.310  54.540  1.00  0.00     0.034 C 
ENDBRANCH  15  16
ENDBRANCH  11  15
BRANCH  12  18
HETATM   18  O3  UNL     1      25.365  -1.260  55.013  1.00  0.00    -0.351 OA
HETATM   19  C21 UNL     1      24.684  -1.125  56.258  1.00  0.00     0.210 C 
ENDBRANCH  12  18
BRANCH  13  20
HETATM   20  O2  UNL     1      27.345   0.607  55.104  1.00  0.00    -0.353 OA
HETATM   21  C19 UNL     1      28.606   0.139  54.646  1.00  0.00     0.210 C 
ENDBRANCH  13  20
ENDBRANCH   1   9
BRANCH   4  22
HETATM   22  N2  UNL     1      25.905   6.209  48.444  1.00  0.00    -0.340 N 
HETATM   23  H9  UNL     1      25.413   6.330  47.511  1.00  0.00     0.167 HD
BRANCH  22  24
HETATM   24  C9  UNL     1      27.288   6.453  48.434  1.00  0.00     0.035 A 
HETATM   25  C10 UNL     1      28.280   5.516  48.252  1.00  0.00     0.029 A 
HETATM   26  C11 UNL     1      29.627   5.765  48.244  1.00  0.00     0.004 A 
HETATM   27  C12 UNL     1      30.029   7.053  48.430  1.00  0.00     0.019 A 
HETATM   28  C13 UNL     1      29.112   8.039  48.616  1.00  0.00     0.013 A 
HETATM   29 BR1  UNL     1      29.693   9.831  48.874  1.00  0.00    -0.051 Br
HETATM   30  C14 UNL     1      27.783   7.727  48.614  1.00  0.00     0.048 A 
ENDBRANCH  22  24
ENDBRANCH   4  22
BRANCH   6  31
HETATM   31  N4  UNL     1      22.090   7.035  51.291  1.00  0.00    -0.231 N 
HETATM   32  H14 UNL     1      21.039   6.953  51.185  1.00  0.00     0.174 HD
HETATM   33  H15 UNL     1      22.383   7.932  51.755  1.00  0.00     0.174 HD
ENDBRANCH   6  31
TORSDOF 8
ENDMDL
MODEL 2
REMARK VINA RESULT:      -8.2      0.287      2.743
REMARK  8 active torsions:
REMARK  status: ('A' for Active; 'I' for Inactive)
REMARK    1  A    between atoms: C2_2  and  O1_3 
REMARK    2  A    between atoms: O1_3  and  C3_4 
REMARK    3  A    between atoms: C5_6  and  N1_7 
REMARK    4  A    between atoms: C8_10  and  N2_11 
REMARK    5  A    between atoms: N2_11  and  C9_12 
REMARK    6  A    between atoms: C15_20  and  N4_21 
REMARK    7  A    between atoms: C18_25  and  O2_26 
REMARK    8  A    between atoms: C20_28  and  O3_29 
ROOT
HETATM    1  N1  UNL     1      25.366   3.102  51.503  1.00  0.00    -0.326 N 
HETATM    2  C6  UNL     1      26.252   3.456  50.413  1.00  0.00     0.177 A 
HETATM    3  C7  UNL     1      25.378   4.648  50.227  1.00  0.00     0.053 A 
HETATM    4  C8  UNL     1      25.124   5.816  49.499  1.00  0.00     0.159 A 
HETATM    5  N3  UNL     1      24.046   6.490  49.920  1.00  0.00    -0.045 NA
HETATM    6  C15 UNL     1      23.238   6.168  50.915  1.00  0.00     0.724 A 
HETATM    7  N5  UNL     1      23.514   5.037  51.592  1.00  0.00    -0.044 NA
HETATM    8  C16 UNL     1      24.575   4.259  51.269  1.00  0.00     0.161 A 
ENDROOT
BRANCH   1   9
HETATM    9  C5  UNL     1      25.386   1.993  52.393  1.00  0.00     0.042 A 
HETATM   10  C4  UNL     1      26.438   1.838  53.259  1.00  0.00     0.069 A 
HETATM   11  C3  UNL     1      26.443   0.745  54.125  1.00  0.00     0.107 A 
HETATM   12  C20 UNL     1      25.420  -0.184  54.136  1.00  0.00     0.135 A 
HETATM   13  C18 UNL     1      24.363   0.001  53.242  1.00  0.00     0.106 A 
HETATM   14  C17 UNL     1      24.345   1.087  52.372  1.00  0.00     0.069 A 
BRANCH  11  15
HETATM   15  O1  UNL     1      27.505   0.577  55.009  1.00  0.00    -0.348 OA
BRANCH  15  16
HETATM   16  C2  UNL     1      28.834   0.702  54.517  1.00  0.00     0.171 C 
HETATM   17  C1  UNL     1      29.271  -0.603  53.915  1.00  0.00     0.034 C 
ENDBRANCH  15  16
ENDBRANCH  11  15
BRANCH  12  18
HETATM   18  O3  UNL     1      25.403  -1.277  54.985  1.00  0.00    -0.351 OA
HETATM   19  C21 UNL     1      24.811  -1.108  56.271  1.00  0.00     0.210 C 
ENDBRANCH  12  18
BRANCH  13  20
HETATM   20  O2  UNL     1      23.337  -0.924  53.247  1.00  0.00    -0.353 OA
HETATM   21  C19 UNL     1      22.065  -0.513  53.731  1.00  0.00     0.210 C 
ENDBRANCH  13  20
ENDBRANCH   1   9
BRANCH   4  22
HETATM   22  N2  UNL     1      25.955   6.207  48.428  1.00  0.00    -0.340 N 
HETATM   23  H9  UNL     1      25.465   6.327  47.495  1.00  0.00     0.167 HD
BRANCH  22  24
HETATM   24  C9  UNL     1      27.337   6.458  48.421  1.00  0.00     0.035 A 
HETATM   25  C10 UNL     1      28.335   5.529  48.235  1.00  0.00     0.029 A 
HETATM   26  C11 UNL     1      29.680   5.786  48.230  1.00  0.00     0.004 A 
HETATM   27  C12 UNL     1      30.074   7.075  48.424  1.00  0.00     0.019 A 
HETATM   28  C13 UNL     1      29.151   8.055  48.615  1.00  0.00     0.013 A 
HETATM   29 BR1  UNL     1      29.721   9.848  48.885  1.00  0.00    -0.051 Br
HETATM   30  C14 UNL     1      27.825   7.734  48.610  1.00  0.00     0.048 A 
ENDBRANCH  22  24
ENDBRANCH   4  22
BRANCH   6  31
HETATM   31  N4  UNL     1      22.117   6.990  51.254  1.00  0.00    -0.231 N 
HETATM   32  H14 UNL     1      21.066   6.881  51.170  1.00  0.00     0.174 HD
HETATM   33  H15 UNL     1      22.396   7.909  51.682  1.00  0.00     0.174 HD
ENDBRANCH   6  31
TORSDOF 8
ENDMDL
MODEL 3
REMARK VINA RESULT:      -8.0      5.337      9.611
REMARK  8 active torsions:
REMARK  status: ('A' for Active; 'I' for Inactive)
REMARK    1  A    between atoms: C2_2  and  O1_3 
REMARK    2  A    between atoms: O1_3  and  C3_4 
REMARK    3  A    between atoms: C5_6  and  N1_7 
REMARK    4  A    between atoms: C8_10  and  N2_11 
REMARK    5  A    between atoms: N2_11  and  C9_12 
REMARK    6  A    between atoms: C15_20  and  N4_21 
REMARK    7  A    between atoms: C18_25  and  O2_26 
REMARK    8  A    between atoms: C20_28  and  O3_29 
ROOT
HETATM    1  N1  UNL     1      22.622   0.321  52.664  1.00  0.00    -0.326 N 
HETATM    2  C6  UNL     1      21.816  -0.345  53.666  1.00  0.00     0.177 A 
HETATM    3  C7  UNL     1      20.665  -0.103  52.751  1.00  0.00     0.053 A 
HETATM    4  C8  UNL     1      19.292  -0.255  52.526  1.00  0.00     0.159 A 
HETATM    5  N3  UNL     1      18.878   0.258  51.360  1.00  0.00    -0.045 NA
HETATM    6  C15 UNL     1      19.613   0.866  50.445  1.00  0.00     0.724 A 
HETATM    7  N5  UNL     1      20.930   0.992  50.698  1.00  0.00    -0.044 NA
HETATM    8  C16 UNL     1      21.481   0.519  51.841  1.00  0.00     0.161 A 
ENDROOT
BRANCH   1   9
HETATM    9  C5  UNL     1      24.015   0.607  52.633  1.00  0.00     0.042 A 
HETATM   10  C4  UNL     1      24.458   1.757  52.031  1.00  0.00     0.069 A 
HETATM   11  C3  UNL     1      25.827   2.023  52.010  1.00  0.00     0.107 A 
HETATM   12  C20 UNL     1      26.747   1.163  52.578  1.00  0.00     0.135 A 
HETATM   13  C18 UNL     1      26.266   0.001  53.184  1.00  0.00     0.106 A 
HETATM   14  C17 UNL     1      24.903  -0.278  53.212  1.00  0.00     0.069 A 
BRANCH  11  15
HETATM   15  O1  UNL     1      26.289   3.186  51.401  1.00  0.00    -0.348 OA
BRANCH  15  16
HETATM   16  C2  UNL     1      26.428   3.211  49.986  1.00  0.00     0.171 C 
HETATM   17  C1  UNL     1      25.346   4.067  49.390  1.00  0.00     0.034 C 
ENDBRANCH  15  16
ENDBRANCH  11  15
BRANCH  12  18
HETATM   18  O3  UNL     1      28.110   1.405  52.569  1.00  0.00    -0.351 OA
HETATM   19  C21 UNL     1      28.631   2.301  53.548  1.00  0.00     0.210 C 
ENDBRANCH  12  18
BRANCH  13  20
HETATM   20  O2  UNL     1      27.180  -0.864  53.753  1.00  0.00    -0.353 OA
HETATM   21  C19 UNL     1      27.662  -1.944  52.967  1.00  0.00     0.210 C 
ENDBRANCH  13  20
ENDBRANCH   1   9
BRANCH   4  22
HETATM   22  N2  UNL     1      18.461  -0.895  53.469  1.00  0.00    -0.340 N 
HETATM   23  H9  UNL     1      18.514  -0.509  54.456  1.00  0.00     0.167 HD
BRANCH  22  24
HETATM   24  C9  UNL     1      17.575  -1.970  53.289  1.00  0.00     0.035 A 
HETATM   25  C10 UNL     1      17.751  -3.257  53.743  1.00  0.00     0.029 A 
HETATM   26  C11 UNL     1      16.880  -4.298  53.561  1.00  0.00     0.004 A 
HETATM   27  C12 UNL     1      15.734  -4.045  52.870  1.00  0.00     0.019 A 
HETATM   28  C13 UNL     1      15.484  -2.800  52.387  1.00  0.00     0.013 A 
HETATM   29 BR1  UNL     1      13.878  -2.466  51.424  1.00  0.00    -0.051 Br
HETATM   30  C14 UNL     1      16.392  -1.804  52.601  1.00  0.00     0.048 A 
ENDBRANCH  22  24
ENDBRANCH   4  22
BRANCH   6  31
HETATM   31  N4  UNL     1      19.030   1.366  49.238  1.00  0.00    -0.231 N 
HETATM   32  H14 UNL     1      18.569   2.280  48.962  1.00  0.00     0.174 HD
HETATM   33  H15 UNL     1      19.064   0.673  48.447  1.00  0.00     0.174 HD
ENDBRANCH   6  31
TORSDOF 8
ENDMDL
MODEL 4
REMARK VINA RESULT:      -8.0      5.430      9.652
REMARK  8 active torsions:
REMARK  status: ('A' for Active; 'I' for Inactive)
REMARK    1  A    between atoms: C2_2  and  O1_3 
REMARK    2  A    between atoms: O1_3  and  C3_4 
REMARK    3  A    between atoms: C5_6  and  N1_7 
REMARK    4  A    between atoms: C8_10  and  N2_11 
REMARK    5  A    between atoms: N2_11  and  C9_12 
REMARK    6  A    between atoms: C15_20  and  N4_21 
REMARK    7  A    between atoms: C18_25  and  O2_26 
REMARK    8  A    between atoms: C20_28  and  O3_29 
ROOT
HETATM    1  N1  UNL     1      22.900   0.404  52.624  1.00  0.00    -0.326 N 
HETATM    2  C6  UNL     1      22.115  -0.342  53.586  1.00  0.00     0.177 A 
HETATM    3  C7  UNL     1      20.960  -0.094  52.679  1.00  0.00     0.053 A 
HETATM    4  C8  UNL     1      19.594  -0.284  52.439  1.00  0.00     0.159 A 
HETATM    5  N3  UNL     1      19.166   0.274  51.299  1.00  0.00    -0.045 NA
HETATM    6  C15 UNL     1      19.881   0.955  50.421  1.00  0.00     0.724 A 
HETATM    7  N5  UNL     1      21.192   1.116  50.687  1.00  0.00    -0.044 NA
HETATM    8  C16 UNL     1      21.755   0.604  51.807  1.00  0.00     0.161 A 
ENDROOT
BRANCH   1   9
HETATM    9  C5  UNL     1      24.282   0.742  52.617  1.00  0.00     0.042 A 
HETATM   10  C4  UNL     1      25.172  -0.030  53.318  1.00  0.00     0.069 A 
HETATM   11  C3  UNL     1      26.524   0.314  53.299  1.00  0.00     0.107 A 
HETATM   12  C20 UNL     1      26.990   1.408  52.597  1.00  0.00     0.135 A 
HETATM   13  C18 UNL     1      26.059   2.175  51.893  1.00  0.00     0.106 A 
HETATM   14  C17 UNL     1      24.707   1.844  51.902  1.00  0.00     0.069 A 
BRANCH  11  15
HETATM   15  O1  UNL     1      27.437  -0.463  54.007  1.00  0.00    -0.348 OA
BRANCH  15  16
HETATM   16  C2  UNL     1      28.178  -1.457  53.311  1.00  0.00     0.171 C 
HETATM   17  C1  UNL     1      29.644  -1.275  53.587  1.00  0.00     0.034 C 
ENDBRANCH  15  16
ENDBRANCH  11  15
BRANCH  12  18
HETATM   18  O3  UNL     1      28.325   1.770  52.564  1.00  0.00    -0.351 OA
HETATM   19  C21 UNL     1      28.854   2.458  53.696  1.00  0.00     0.210 C 
ENDBRANCH  12  18
BRANCH  13  20
HETATM   20  O2  UNL     1      26.518   3.271  51.189  1.00  0.00    -0.353 OA
HETATM   21  C19 UNL     1      26.432   3.241  49.770  1.00  0.00     0.210 C 
ENDBRANCH  13  20
ENDBRANCH   1   9
BRANCH   4  22
HETATM   22  N2  UNL     1      18.783  -1.002  53.342  1.00  0.00    -0.340 N 
HETATM   23  H9  UNL     1      19.106  -0.984  54.353  1.00  0.00     0.167 HD
BRANCH  22  24
HETATM   24  C9  UNL     1      17.612  -1.737  53.096  1.00  0.00     0.035 A 
HETATM   25  C10 UNL     1      16.529  -1.323  52.354  1.00  0.00     0.029 A 
HETATM   26  C11 UNL     1      15.392  -2.049  52.120  1.00  0.00     0.004 A 
HETATM   27  C12 UNL     1      15.318  -3.295  52.666  1.00  0.00     0.019 A 
HETATM   28  C13 UNL     1      16.345  -3.780  53.413  1.00  0.00     0.013 A 
HETATM   29 BR1  UNL     1      16.224  -5.521  54.167  1.00  0.00    -0.051 Br
HETATM   30  C14 UNL     1      17.453  -3.007  53.610  1.00  0.00     0.048 A 
ENDBRANCH  22  24
ENDBRANCH   4  22
BRANCH   6  31
HETATM   31  N4  UNL     1      19.284   1.497  49.239  1.00  0.00    -0.231 N 
HETATM   32  H14 UNL     1      18.661   1.104  48.477  1.00  0.00     0.174 HD
HETATM   33  H15 UNL     1      19.516   2.512  49.090  1.00  0.00     0.174 HD
ENDBRANCH   6  31
TORSDOF 8
ENDMDL
MODEL 5
REMARK VINA RESULT:      -7.8      1.752      2.314
REMARK  8 active torsions:
REMARK  status: ('A' for Active; 'I' for Inactive)
REMARK    1  A    between atoms: C2_2  and  O1_3 
REMARK    2  A    between atoms: O1_3  and  C3_4 
REMARK    3  A    between atoms: C5_6  and  N1_7 
REMARK    4  A    between atoms: C8_10  and  N2_11 
REMARK    5  A    between atoms: N2_11  and  C9_12 
REMARK    6  A    between atoms: C15_20  and  N4_21 
REMARK    7  A    between atoms: C18_25  and  O2_26 
REMARK    8  A    between atoms: C20_28  and  O3_29 
ROOT
HETATM    1  N1  UNL     1      24.852   3.043  50.859  1.00  0.00    -0.326 N 
HETATM    2  C6  UNL     1      25.851   3.063  49.810  1.00  0.00     0.177 A 
HETATM    3  C7  UNL     1      25.693   4.543  49.830  1.00  0.00     0.053 A 
HETATM    4  C8  UNL     1      26.090   5.774  49.294  1.00  0.00     0.159 A 
HETATM    5  N3  UNL     1      25.467   6.826  49.842  1.00  0.00    -0.045 NA
HETATM    6  C15 UNL     1      24.556   6.809  50.799  1.00  0.00     0.724 A 
HETATM    7  N5  UNL     1      24.201   5.606  51.290  1.00  0.00    -0.044 NA
HETATM    8  C16 UNL     1      24.751   4.460  50.824  1.00  0.00     0.161 A 
ENDROOT
BRANCH   1   9
HETATM    9  C5  UNL     1      24.274   1.955  51.570  1.00  0.00     0.042 A 
HETATM   10  C4  UNL     1      23.002   1.543  51.263  1.00  0.00     0.069 A 
HETATM   11  C3  UNL     1      22.451   0.475  51.969  1.00  0.00     0.107 A 
HETATM   12  C20 UNL     1      23.147  -0.180  52.966  1.00  0.00     0.135 A 
HETATM   13  C18 UNL     1      24.440   0.262  53.256  1.00  0.00     0.106 A 
HETATM   14  C17 UNL     1      25.003   1.327  52.560  1.00  0.00     0.069 A 
BRANCH  11  15
HETATM   15  O1  UNL     1      21.160   0.049  51.667  1.00  0.00    -0.348 OA
BRANCH  15  16
HETATM   16  C2  UNL     1      20.057   0.791  52.170  1.00  0.00     0.171 C 
HETATM   17  C1  UNL     1      18.777   0.079  51.832  1.00  0.00     0.034 C 
ENDBRANCH  15  16
ENDBRANCH  11  15
BRANCH  12  18
HETATM   18  O3  UNL     1      22.621  -1.242  53.681  1.00  0.00    -0.351 OA
HETATM   19  C21 UNL     1      21.896  -0.945  54.873  1.00  0.00     0.210 C 
ENDBRANCH  12  18
BRANCH  13  20
HETATM   20  O2  UNL     1      25.142  -0.387  54.252  1.00  0.00    -0.353 OA
HETATM   21  C19 UNL     1      26.348   0.204  54.719  1.00  0.00     0.210 C 
ENDBRANCH  13  20
ENDBRANCH   1   9
BRANCH   4  22
HETATM   22  N2  UNL     1      27.059   5.850  48.272  1.00  0.00    -0.340 N 
HETATM   23  H9  UNL     1      26.753   5.471  47.329  1.00  0.00     0.167 HD
BRANCH  22  24
HETATM   24  C9  UNL     1      28.369   6.354  48.324  1.00  0.00     0.035 A 
HETATM   25  C10 UNL     1      28.732   7.659  48.566  1.00  0.00     0.029 A 
HETATM   26  C11 UNL     1      30.013   8.140  48.614  1.00  0.00     0.004 A 
HETATM   27  C12 UNL     1      31.026   7.252  48.405  1.00  0.00     0.019 A 
HETATM   28  C13 UNL     1      30.752   5.944  48.159  1.00  0.00     0.013 A 
HETATM   29 BR1  UNL     1      32.178   4.721  47.870  1.00  0.00    -0.051 Br
HETATM   30  C14 UNL     1      29.453   5.527  48.124  1.00  0.00     0.048 A 
ENDBRANCH  22  24
ENDBRANCH   4  22
BRANCH   6  31
HETATM   31  N4  UNL     1      23.974   8.020  51.290  1.00  0.00    -0.231 N 
HETATM   32  H14 UNL     1      23.039   8.500  51.155  1.00  0.00     0.174 HD
HETATM   33  H15 UNL     1      24.617   8.557  51.926  1.00  0.00     0.174 HD
ENDBRANCH   6  31
TORSDOF 8
ENDMDL
MODEL 6
REMARK VINA RESULT:      -7.7      4.370      8.745
REMARK  8 active torsions:
REMARK  status: ('A' for Active; 'I' for Inactive)
REMARK    1  A    between atoms: C2_2  and  O1_3 
REMARK    2  A    between atoms: O1_3  and  C3_4 
REMARK    3  A    between atoms: C5_6  and  N1_7 
REMARK    4  A    between atoms: C8_10  and  N2_11 
REMARK    5  A    between atoms: N2_11  and  C9_12 
REMARK    6  A    between atoms: C15_20  and  N4_21 
REMARK    7  A    between atoms: C18_25  and  O2_26 
REMARK    8  A    between atoms: C20_28  and  O3_29 
ROOT
HETATM    1  N1  UNL     1      25.900   3.198  50.808  1.00  0.00    -0.326 N 
HETATM    2  C6  UNL     1      24.878   2.178  50.924  1.00  0.00     0.177 A 
HETATM    3  C7  UNL     1      25.819   1.488  51.849  1.00  0.00     0.053 A 
HETATM    4  C8  UNL     1      26.055   0.381  52.673  1.00  0.00     0.159 A 
HETATM    5  N3  UNL     1      27.250   0.405  53.277  1.00  0.00    -0.045 NA
HETATM    6  C15 UNL     1      28.183   1.335  53.173  1.00  0.00     0.724 A 
HETATM    7  N5  UNL     1      27.918   2.385  52.371  1.00  0.00    -0.044 NA
HETATM    8  C16 UNL     1      26.747   2.486  51.698  1.00  0.00     0.161 A 
ENDROOT
BRANCH   1   9
HETATM    9  C5  UNL     1      25.925   4.406  50.056  1.00  0.00     0.042 A 
HETATM   10  C4  UNL     1      24.858   5.265  50.116  1.00  0.00     0.069 A 
HETATM   11  C3  UNL     1      24.899   6.444  49.374  1.00  0.00     0.107 A 
HETATM   12  C20 UNL     1      25.982   6.771  48.580  1.00  0.00     0.135 A 
HETATM   13  C18 UNL     1      27.053   5.876  48.539  1.00  0.00     0.106 A 
HETATM   14  C17 UNL     1      27.026   4.695  49.275  1.00  0.00     0.069 A 
BRANCH  11  15
HETATM   15  O1  UNL     1      23.822   7.324  49.427  1.00  0.00    -0.348 OA
BRANCH  15  16
HETATM   16  C2  UNL     1      23.270   7.658  50.695  1.00  0.00     0.171 C 
HETATM   17  C1  UNL     1      21.802   7.338  50.703  1.00  0.00     0.034 C 
ENDBRANCH  15  16
ENDBRANCH  11  15
BRANCH  12  18
HETATM   18  O3  UNL     1      26.045   7.935  47.834  1.00  0.00    -0.351 OA
HETATM   19  C21 UNL     1      25.324   7.975  46.604  1.00  0.00     0.210 C 
ENDBRANCH  12  18
BRANCH  13  20
HETATM   20  O2  UNL     1      28.139   6.197  47.747  1.00  0.00    -0.353 OA
HETATM   21  C19 UNL     1      29.242   6.853  48.356  1.00  0.00     0.210 C 
ENDBRANCH  13  20
ENDBRANCH   1   9
BRANCH   4  22
HETATM   22  N2  UNL     1      25.094  -0.641  52.821  1.00  0.00    -0.340 N 
HETATM   23  H9  UNL     1      25.397  -1.600  52.485  1.00  0.00     0.167 HD
BRANCH  22  24
HETATM   24  C9  UNL     1      23.794  -0.570  53.348  1.00  0.00     0.035 A 
HETATM   25  C10 UNL     1      23.412  -0.906  54.627  1.00  0.00     0.029 A 
HETATM   26  C11 UNL     1      22.141  -0.833  55.130  1.00  0.00     0.004 A 
HETATM   27  C12 UNL     1      21.160  -0.387  54.297  1.00  0.00     0.019 A 
HETATM   28  C13 UNL     1      21.453  -0.034  53.018  1.00  0.00     0.013 A 
HETATM   29 BR1  UNL     1      20.070   0.586  51.870  1.00  0.00    -0.051 Br
HETATM   30  C14 UNL     1      22.740  -0.129  52.575  1.00  0.00     0.048 A 
ENDBRANCH  22  24
ENDBRANCH   4  22
BRANCH   6  31
HETATM   31  N4  UNL     1      29.420   1.228  53.883  1.00  0.00    -0.231 N 
HETATM   32  H14 UNL     1      30.065   0.424  54.129  1.00  0.00     0.174 HD
HETATM   33  H15 UNL     1      29.768   2.153  54.245  1.00  0.00     0.174 HD
ENDBRANCH   6  31
TORSDOF 8
ENDMDL
MODEL 7
REMARK VINA RESULT:      -7.7      4.573      8.908
REMARK  8 active torsions:
REMARK  status: ('A' for Active; 'I' for Inactive)
REMARK    1  A    between atoms: C2_2  and  O1_3 
REMARK    2  A    between atoms: O1_3  and  C3_4 
REMARK    3  A    between atoms: C5_6  and  N1_7 
REMARK    4  A    between atoms: C8_10  and  N2_11 
REMARK    5  A    between atoms: N2_11  and  C9_12 
REMARK    6  A    between atoms: C15_20  and  N4_21 
REMARK    7  A    between atoms: C18_25  and  O2_26 
REMARK    8  A    between atoms: C20_28  and  O3_29 
ROOT
HETATM    1  N1  UNL     1      26.502   5.228  49.244  1.00  0.00    -0.326 N 
HETATM    2  C6  UNL     1      26.376   3.788  49.339  1.00  0.00     0.177 A 
HETATM    3  C7  UNL     1      25.087   4.050  50.037  1.00  0.00     0.053 A 
HETATM    4  C8  UNL     1      23.959   3.507  50.662  1.00  0.00     0.159 A 
HETATM    5  N3  UNL     1      23.098   4.429  51.114  1.00  0.00    -0.045 NA
HETATM    6  C15 UNL     1      23.211   5.742  51.028  1.00  0.00     0.724 A 
HETATM    7  N5  UNL     1      24.311   6.227  50.419  1.00  0.00    -0.044 NA
HETATM    8  C16 UNL     1      25.263   5.405  49.917  1.00  0.00     0.161 A 
ENDROOT
BRANCH   1   9
HETATM    9  C5  UNL     1      27.525   6.035  48.673  1.00  0.00     0.042 A 
HETATM   10  C4  UNL     1      28.711   5.459  48.294  1.00  0.00     0.069 A 
HETATM   11  C3  UNL     1      29.702   6.263  47.735  1.00  0.00     0.107 A 
HETATM   12  C20 UNL     1      29.525   7.621  47.552  1.00  0.00     0.135 A 
HETATM   13  C18 UNL     1      28.307   8.178  47.947  1.00  0.00     0.106 A 
HETATM   14  C17 UNL     1      27.308   7.388  48.507  1.00  0.00     0.069 A 
BRANCH  11  15
HETATM   15  O1  UNL     1      30.910   5.690  47.347  1.00  0.00    -0.348 OA
BRANCH  15  16
HETATM   16  C2  UNL     1      31.815   5.249  48.352  1.00  0.00     0.171 C 
HETATM   17  C1  UNL     1      32.544   4.027  47.869  1.00  0.00     0.034 C 
ENDBRANCH  15  16
ENDBRANCH  11  15
BRANCH  12  18
HETATM   18  O3  UNL     1      30.495   8.440  47.000  1.00  0.00    -0.351 OA
HETATM   19  C21 UNL     1      31.470   8.999  47.878  1.00  0.00     0.210 C 
ENDBRANCH  12  18
BRANCH  13  20
HETATM   20  O2  UNL     1      28.124   9.535  47.768  1.00  0.00    -0.353 OA
HETATM   21  C19 UNL     1      28.059  10.363  48.921  1.00  0.00     0.210 C 
ENDBRANCH  13  20
ENDBRANCH   1   9
BRANCH   4  22
HETATM   22  N2  UNL     1      23.787   2.112  50.781  1.00  0.00    -0.340 N 
HETATM   23  H9  UNL     1      23.258   1.651  49.985  1.00  0.00     0.167 HD
BRANCH  22  24
HETATM   24  C9  UNL     1      24.215   1.248  51.803  1.00  0.00     0.035 A 
HETATM   25  C10 UNL     1      25.517   0.929  52.110  1.00  0.00     0.029 A 
HETATM   26  C11 UNL     1      25.923   0.084  53.108  1.00  0.00     0.004 A 
HETATM   27  C12 UNL     1      24.956  -0.496  53.872  1.00  0.00     0.019 A 
HETATM   28  C13 UNL     1      23.643  -0.233  53.635  1.00  0.00     0.013 A 
HETATM   29 BR1  UNL     1      22.308  -1.052  54.712  1.00  0.00    -0.051 Br
HETATM   30  C14 UNL     1      23.303   0.618  52.624  1.00  0.00     0.048 A 
ENDBRANCH  22  24
ENDBRANCH   4  22
BRANCH   6  31
HETATM   31  N4  UNL     1      22.206   6.610  51.560  1.00  0.00    -0.231 N 
HETATM   32  H14 UNL     1      22.200   7.373  52.295  1.00  0.00     0.174 HD
HETATM   33  H15 UNL     1      21.260   6.456  51.127  1.00  0.00     0.174 HD
ENDBRANCH   6  31
TORSDOF 8
ENDMDL
MODEL 8
REMARK VINA RESULT:      -7.6      4.864      9.593
REMARK  8 active torsions:
REMARK  status: ('A' for Active; 'I' for Inactive)
REMARK    1  A    between atoms: C2_2  and  O1_3 
REMARK    2  A    between atoms: O1_3  and  C3_4 
REMARK    3  A    between atoms: C5_6  and  N1_7 
REMARK    4  A    between atoms: C8_10  and  N2_11 
REMARK    5  A    between atoms: N2_11  and  C9_12 
REMARK    6  A    between atoms: C15_20  and  N4_21 
REMARK    7  A    between atoms: C18_25  and  O2_26 
REMARK    8  A    between atoms: C20_28  and  O3_29 
ROOT
HETATM    1  N1  UNL     1      25.936   4.216  49.703  1.00  0.00    -0.326 N 
HETATM    2  C6  UNL     1      24.548   3.802  49.703  1.00  0.00     0.177 A 
HETATM    3  C7  UNL     1      24.964   2.769  50.691  1.00  0.00     0.053 A 
HETATM    4  C8  UNL     1      24.575   1.699  51.506  1.00  0.00     0.159 A 
HETATM    5  N3  UNL     1      25.580   1.169  52.215  1.00  0.00    -0.045 NA
HETATM    6  C15 UNL     1      26.847   1.545  52.216  1.00  0.00     0.724 A 
HETATM    7  N5  UNL     1      27.182   2.578  51.419  1.00  0.00    -0.044 NA
HETATM    8  C16 UNL     1      26.263   3.206  50.647  1.00  0.00     0.161 A 
ENDROOT
BRANCH   1   9
HETATM    9  C5  UNL     1      26.596   5.251  48.985  1.00  0.00     0.042 A 
HETATM   10  C4  UNL     1      27.935   5.140  48.711  1.00  0.00     0.069 A 
HETATM   11  C3  UNL     1      28.567   6.163  48.006  1.00  0.00     0.107 A 
HETATM   12  C20 UNL     1      27.884   7.285  47.576  1.00  0.00     0.135 A 
HETATM   13  C18 UNL     1      26.521   7.370  47.871  1.00  0.00     0.106 A 
HETATM   14  C17 UNL     1      25.878   6.356  48.574  1.00  0.00     0.069 A 
BRANCH  11  15
HETATM   15  O1  UNL     1      29.926   6.061  47.722  1.00  0.00    -0.348 OA
BRANCH  15  16
HETATM   16  C2  UNL     1      30.845   5.940  48.800  1.00  0.00     0.171 C 
HETATM   17  C1  UNL     1      31.645   7.206  48.922  1.00  0.00     0.034 C 
ENDBRANCH  15  16
ENDBRANCH  11  15
BRANCH  12  18
HETATM   18  O3  UNL     1      28.489   8.314  46.876  1.00  0.00    -0.351 OA
HETATM   19  C21 UNL     1      28.999   9.415  47.624  1.00  0.00     0.210 C 
ENDBRANCH  12  18
BRANCH  13  20
HETATM   20  O2  UNL     1      25.832   8.489  47.445  1.00  0.00    -0.353 OA
HETATM   21  C19 UNL     1      25.080   8.396  46.243  1.00  0.00     0.210 C 
ENDBRANCH  13  20
ENDBRANCH   1   9
BRANCH   4  22
HETATM   22  N2  UNL     1      23.236   1.256  51.544  1.00  0.00    -0.340 N 
HETATM   23  H9  UNL     1      22.632   1.570  50.731  1.00  0.00     0.167 HD
BRANCH  22  24
HETATM   24  C9  UNL     1      22.590   0.459  52.504  1.00  0.00     0.035 A 
HETATM   25  C10 UNL     1      23.176  -0.140  53.595  1.00  0.00     0.029 A 
HETATM   26  C11 UNL     1      22.535  -0.915  54.525  1.00  0.00     0.004 A 
HETATM   27  C12 UNL     1      21.198  -1.115  54.362  1.00  0.00     0.019 A 
HETATM   28  C13 UNL     1      20.543  -0.558  53.310  1.00  0.00     0.013 A 
HETATM   29 BR1  UNL     1      18.676  -0.849  53.100  1.00  0.00    -0.051 Br
HETATM   30  C14 UNL     1      21.238   0.205  52.417  1.00  0.00     0.048 A 
ENDBRANCH  22  24
ENDBRANCH   4  22
BRANCH   6  31
HETATM   31  N4  UNL     1      27.817   0.881  53.030  1.00  0.00    -0.231 N 
HETATM   32  H14 UNL     1      27.863   0.605  54.052  1.00  0.00     0.174 HD
HETATM   33  H15 UNL     1      28.681   0.604  52.497  1.00  0.00     0.174 HD
ENDBRANCH   6  31
TORSDOF 8
ENDMDL
MODEL 9
REMARK VINA RESULT:      -7.5      4.866      9.324
REMARK  8 active torsions:
REMARK  status: ('A' for Active; 'I' for Inactive)
REMARK    1  A    between atoms: C2_2  and  O1_3 
REMARK    2  A    between atoms: O1_3  and  C3_4 
REMARK    3  A    between atoms: C5_6  and  N1_7 
REMARK    4  A    between atoms: C8_10  and  N2_11 
REMARK    5  A    between atoms: N2_11  and  C9_12 
REMARK    6  A    between atoms: C15_20  and  N4_21 
REMARK    7  A    between atoms: C18_25  and  O2_26 
REMARK    8  A    between atoms: C20_28  and  O3_29 
ROOT
HETATM    1  N1  UNL     1      25.889   4.205  49.699  1.00  0.00    -0.326 N 
HETATM    2  C6  UNL     1      24.508   3.769  49.688  1.00  0.00     0.177 A 
HETATM    3  C7  UNL     1      24.931   2.744  50.682  1.00  0.00     0.053 A 
HETATM    4  C8  UNL     1      24.552   1.669  51.495  1.00  0.00     0.159 A 
HETATM    5  N3  UNL     1      25.559   1.156  52.213  1.00  0.00    -0.045 NA
HETATM    6  C15 UNL     1      26.820   1.552  52.224  1.00  0.00     0.724 A 
HETATM    7  N5  UNL     1      27.146   2.590  51.429  1.00  0.00    -0.044 NA
HETATM    8  C16 UNL     1      26.224   3.201  50.648  1.00  0.00     0.161 A 
ENDROOT
BRANCH   1   9
HETATM    9  C5  UNL     1      26.539   5.250  48.986  1.00  0.00     0.042 A 
HETATM   10  C4  UNL     1      25.824   6.358  48.607  1.00  0.00     0.069 A 
HETATM   11  C3  UNL     1      26.476   7.374  47.909  1.00  0.00     0.107 A 
HETATM   12  C20 UNL     1      27.818   7.296  47.589  1.00  0.00     0.135 A 
HETATM   13  C18 UNL     1      28.518   6.156  47.988  1.00  0.00     0.106 A 
HETATM   14  C17 UNL     1      27.881   5.134  48.685  1.00  0.00     0.069 A 
BRANCH  11  15
HETATM   15  O1  UNL     1      25.761   8.503  47.519  1.00  0.00    -0.348 OA
BRANCH  15  16
HETATM   16  C2  UNL     1      24.538   8.332  46.815  1.00  0.00     0.171 C 
HETATM   17  C1  UNL     1      24.819   8.212  45.343  1.00  0.00     0.034 C 
ENDBRANCH  15  16
ENDBRANCH  11  15
BRANCH  12  18
HETATM   18  O3  UNL     1      28.486   8.291  46.896  1.00  0.00    -0.351 OA
HETATM   19  C21 UNL     1      29.055   9.358  47.651  1.00  0.00     0.210 C 
ENDBRANCH  12  18
BRANCH  13  20
HETATM   20  O2  UNL     1      29.859   6.072  47.670  1.00  0.00    -0.353 OA
HETATM   21  C19 UNL     1      30.800   6.037  48.735  1.00  0.00     0.210 C 
ENDBRANCH  13  20
ENDBRANCH   1   9
BRANCH   4  22
HETATM   22  N2  UNL     1      23.220   1.205  51.521  1.00  0.00    -0.340 N 
HETATM   23  H9  UNL     1      22.626   1.483  50.687  1.00  0.00     0.167 HD
BRANCH  22  24
HETATM   24  C9  UNL     1      22.569   0.428  52.494  1.00  0.00     0.035 A 
HETATM   25  C10 UNL     1      23.148  -0.149  53.600  1.00  0.00     0.029 A 
HETATM   26  C11 UNL     1      22.503  -0.905  54.542  1.00  0.00     0.004 A 
HETATM   27  C12 UNL     1      21.166  -1.107  54.377  1.00  0.00     0.019 A 
HETATM   28  C13 UNL     1      20.516  -0.570  53.311  1.00  0.00     0.013 A 
HETATM   29 BR1  UNL     1      18.650  -0.864  53.098  1.00  0.00    -0.051 Br
HETATM   30  C14 UNL     1      21.216   0.174  52.406  1.00  0.00     0.048 A 
ENDBRANCH  22  24
ENDBRANCH   4  22
BRANCH   6  31
HETATM   31  N4  UNL     1      27.794   0.904  53.048  1.00  0.00    -0.231 N 
HETATM   32  H14 UNL     1      28.440   1.226  53.823  1.00  0.00     0.174 HD
HETATM   33  H15 UNL     1      27.892  -0.122  52.837  1.00  0.00     0.174 HD
ENDBRANCH   6  31
TORSDOF 8
ENDMDL
