MODEL 1
REMARK VINA RESULT:      -8.8      0.000      0.000
REMARK  8 active torsions:
REMARK  status: ('A' for Active; 'I' for Inactive)
REMARK    1  A    between atoms: C2_2  and  C4_4 
REMARK    2  A    between atoms: C4_4  and  C5_5 
REMARK    3  A    between atoms: C7_9  and  N3_10 
REMARK    4  A    between atoms: N3_10  and  C8_11 
REMARK    5  A    between atoms: C14_19  and  C15_20 
REMARK    6  A    between atoms: C15_20  and  O1_21 
REMARK    7  A    between atoms: O1_21  and  C16_22 
REMARK    8  A    between atoms: N4_25  and  S1_26 
ROOT
HETATM    1  C5  UNL     1      21.432  -0.495  53.837  1.00  0.00     0.074 A 
HETATM    2  N1  UNL     1      21.726  -1.184  54.931  1.00  0.00    -0.241 NA
HETATM    3  C6  UNL     1      22.953  -1.405  55.371  1.00  0.00     0.236 A 
HETATM    4  N2  UNL     1      23.910  -0.874  54.619  1.00  0.00    -0.223 NA
HETATM    5  C7  UNL     1      23.695  -0.169  53.507  1.00  0.00     0.143 A 
HETATM    6  C14 UNL     1      22.420   0.052  53.062  1.00  0.00     0.060 A 
ENDROOT
BRANCH   6   7
HETATM    7  C15 UNL     1      22.137   0.726  51.975  1.00  0.00     0.152 C 
BRANCH   7   8
HETATM    8  O1  UNL     1      22.728   1.294  50.898  1.00  0.00    -0.357 OA
BRANCH   8   9
HETATM    9  C16 UNL     1      22.896   2.657  50.633  1.00  0.00     0.130 C 
HETATM   10  C17 UNL     1      22.795   3.466  51.904  1.00  0.00     0.048 C 
HETATM   11  C18 UNL     1      23.679   4.684  51.784  1.00  0.00     0.109 C 
HETATM   12  N4  UNL     1      23.708   5.077  50.411  1.00  0.00    -0.211 NA
HETATM   13  C20 UNL     1      24.562   4.245  49.596  1.00  0.00     0.109 C 
HETATM   14  C21 UNL     1      24.280   2.814  49.988  1.00  0.00     0.048 C 
BRANCH  12  15
HETATM   15  S1  UNL     1      23.978   6.752  50.161  1.00  0.00     0.207 S 
HETATM   16  C19 UNL     1      24.012   7.067  48.418  1.00  0.00     0.180 C 
HETATM   17  O2  UNL     1      22.959   7.597  50.864  1.00  0.00    -0.212 OA
HETATM   18  O3  UNL     1      25.326   7.098  50.721  1.00  0.00    -0.212 OA
ENDBRANCH  12  15
ENDBRANCH   8   9
ENDBRANCH   7   8
ENDBRANCH   6   7
BRANCH   1  19
HETATM   19  C4  UNL     1      20.225  -0.271  53.415  1.00  0.00     0.035 C 
BRANCH  19  20
HETATM   20  C2  UNL     1      19.018  -1.004  53.388  1.00  0.00    -0.081 C 
HETATM   21  C1  UNL     1      18.706  -0.227  52.319  1.00  0.00     0.038 C 
HETATM   22  C3  UNL     1      17.775  -1.755  53.357  1.00  0.00     0.043 C 
ENDBRANCH  19  20
ENDBRANCH   1  19
BRANCH   5  23
HETATM   23  N3  UNL     1      24.817   0.322  52.828  1.00  0.00    -0.340 N 
HETATM   24  H8  UNL     1      24.636   0.920  52.000  1.00  0.00     0.167 HD
BRANCH  23  25
HETATM   25  C8  UNL     1      26.194   0.137  53.092  1.00  0.00     0.035 A 
HETATM   26  C9  UNL     1      26.813  -1.081  52.804  1.00  0.00     0.032 A 
HETATM   27  C10 UNL     1      28.129  -1.341  53.022  1.00  0.00     0.046 A 
HETATM   28  C11 UNL     1      28.932  -0.384  53.553  1.00  0.00     0.138 A 
HETATM   29  F1  UNL     1      30.239  -0.652  53.766  1.00  0.00    -0.204 F 
HETATM   30  C12 UNL     1      28.387   0.837  53.860  1.00  0.00     0.074 A 
HETATM   31 CL1  UNL     1      29.448   2.050  54.541  1.00  0.00    -0.081 Cl
HETATM   32  C13 UNL     1      27.057   1.049  53.621  1.00  0.00     0.056 A 
ENDBRANCH  23  25
ENDBRANCH   5  23
TORSDOF 8
ENDMDL
MODEL 2
REMARK VINA RESULT:      -8.7      1.167      1.473
REMARK  8 active torsions:
REMARK  status: ('A' for Active; 'I' for Inactive)
REMARK    1  A    between atoms: C2_2  and  C4_4 
REMARK    2  A    between atoms: C4_4  and  C5_5 
REMARK    3  A    between atoms: C7_9  and  N3_10 
REMARK    4  A    between atoms: N3_10  and  C8_11 
REMARK    5  A    between atoms: C14_19  and  C15_20 
REMARK    6  A    between atoms: C15_20  and  O1_21 
REMARK    7  A    between atoms: O1_21  and  C16_22 
REMARK    8  A    between atoms: N4_25  and  S1_26 
ROOT
HETATM    1  C5  UNL     1      21.281  -0.658  53.845  1.00  0.00     0.074 A 
HETATM    2  N1  UNL     1      21.650  -1.288  54.951  1.00  0.00    -0.241 NA
HETATM    3  C6  UNL     1      22.902  -1.437  55.348  1.00  0.00     0.236 A 
HETATM    4  N2  UNL     1      23.804  -0.895  54.538  1.00  0.00    -0.223 NA
HETATM    5  C7  UNL     1      23.513  -0.246  53.409  1.00  0.00     0.143 A 
HETATM    6  C14 UNL     1      22.212  -0.099  53.009  1.00  0.00     0.060 A 
ENDROOT
BRANCH   6   7
HETATM    7  C15 UNL     1      21.855   0.517  51.910  1.00  0.00     0.152 C 
BRANCH   7   8
HETATM    8  O1  UNL     1      22.375   1.199  50.863  1.00  0.00    -0.357 OA
BRANCH   8   9
HETATM    9  C16 UNL     1      22.416   2.585  50.679  1.00  0.00     0.130 C 
HETATM   10  C17 UNL     1      22.723   3.289  51.978  1.00  0.00     0.048 C 
HETATM   11  C18 UNL     1      23.491   4.556  51.683  1.00  0.00     0.109 C 
HETATM   12  N4  UNL     1      23.055   5.052  50.417  1.00  0.00    -0.211 NA
HETATM   13  C20 UNL     1      23.608   4.329  49.297  1.00  0.00     0.109 C 
HETATM   14  C21 UNL     1      23.505   2.859  49.632  1.00  0.00     0.048 C 
BRANCH  12  15
HETATM   15  S1  UNL     1      23.190   6.754  50.240  1.00  0.00     0.207 S 
HETATM   16  C19 UNL     1      21.579   7.471  50.413  1.00  0.00     0.180 C 
HETATM   17  O2  UNL     1      24.174   7.343  51.206  1.00  0.00    -0.212 OA
HETATM   18  O3  UNL     1      23.680   7.043  48.852  1.00  0.00    -0.212 OA
ENDBRANCH  12  15
ENDBRANCH   8   9
ENDBRANCH   7   8
ENDBRANCH   6   7
BRANCH   1  19
HETATM   19  C4  UNL     1      20.050  -0.505  53.465  1.00  0.00     0.035 C 
BRANCH  19  20
HETATM   20  C2  UNL     1      18.891  -1.313  53.463  1.00  0.00    -0.081 C 
HETATM   21  C1  UNL     1      18.479  -0.515  52.444  1.00  0.00     0.038 C 
HETATM   22  C3  UNL     1      17.698  -2.141  53.457  1.00  0.00     0.043 C 
ENDBRANCH  19  20
ENDBRANCH   1  19
BRANCH   5  23
HETATM   23  N3  UNL     1      24.583   0.267  52.666  1.00  0.00    -0.340 N 
HETATM   24  H8  UNL     1      24.383   0.534  51.684  1.00  0.00     0.167 HD
BRANCH  23  25
HETATM   25  C8  UNL     1      25.927   0.492  53.043  1.00  0.00     0.035 A 
HETATM   26  C9  UNL     1      26.346   1.760  53.450  1.00  0.00     0.032 A 
HETATM   27  C10 UNL     1      27.615   2.061  53.832  1.00  0.00     0.046 A 
HETATM   28  C11 UNL     1      28.571   1.098  53.834  1.00  0.00     0.138 A 
HETATM   29  F1  UNL     1      29.830   1.407  54.215  1.00  0.00    -0.204 F 
HETATM   30  C12 UNL     1      28.227  -0.172  53.444  1.00  0.00     0.074 A 
HETATM   31 CL1  UNL     1      29.480  -1.392  53.458  1.00  0.00    -0.081 Cl
HETATM   32  C13 UNL     1      26.936  -0.424  53.069  1.00  0.00     0.056 A 
ENDBRANCH  23  25
ENDBRANCH   5  23
TORSDOF 8
ENDMDL
MODEL 3
REMARK VINA RESULT:      -8.4      3.217      4.763
REMARK  8 active torsions:
REMARK  status: ('A' for Active; 'I' for Inactive)
REMARK    1  A    between atoms: C2_2  and  C4_4 
REMARK    2  A    between atoms: C4_4  and  C5_5 
REMARK    3  A    between atoms: C7_9  and  N3_10 
REMARK    4  A    between atoms: N3_10  and  C8_11 
REMARK    5  A    between atoms: C14_19  and  C15_20 
REMARK    6  A    between atoms: C15_20  and  O1_21 
REMARK    7  A    between atoms: O1_21  and  C16_22 
REMARK    8  A    between atoms: N4_25  and  S1_26 
ROOT
HETATM    1  C5  UNL     1      23.659   2.590  50.385  1.00  0.00     0.074 A 
HETATM    2  N1  UNL     1      22.629   2.373  51.190  1.00  0.00    -0.241 NA
HETATM    3  C6  UNL     1      22.721   2.207  52.498  1.00  0.00     0.236 A 
HETATM    4  N2  UNL     1      23.959   2.273  52.975  1.00  0.00    -0.223 NA
HETATM    5  C7  UNL     1      25.045   2.488  52.231  1.00  0.00     0.143 A 
HETATM    6  C14 UNL     1      24.935   2.659  50.877  1.00  0.00     0.060 A 
ENDROOT
BRANCH   6   7
HETATM    7  C15 UNL     1      25.958   2.864  50.085  1.00  0.00     0.152 C 
BRANCH   7   8
HETATM    8  O1  UNL     1      26.410   3.722  49.141  1.00  0.00    -0.357 OA
BRANCH   8   9
HETATM    9  C16 UNL     1      26.795   5.056  49.310  1.00  0.00     0.130 C 
HETATM   10  C17 UNL     1      28.002   5.377  48.462  1.00  0.00     0.048 C 
HETATM   11  C18 UNL     1      27.941   6.827  48.045  1.00  0.00     0.109 C 
HETATM   12  N4  UNL     1      27.293   7.560  49.086  1.00  0.00    -0.211 NA
HETATM   13  C20 UNL     1      25.859   7.392  49.098  1.00  0.00     0.109 C 
HETATM   14  C21 UNL     1      25.591   5.918  48.903  1.00  0.00     0.048 C 
BRANCH  12  15
HETATM   15  S1  UNL     1      27.770   9.204  49.196  1.00  0.00     0.207 S 
HETATM   16  C19 UNL     1      29.521   9.271  49.452  1.00  0.00     0.180 C 
HETATM   17  O2  UNL     1      27.348   9.993  47.993  1.00  0.00    -0.212 OA
HETATM   18  O3  UNL     1      27.102   9.807  50.396  1.00  0.00    -0.212 OA
ENDBRANCH  12  15
ENDBRANCH   8   9
ENDBRANCH   7   8
ENDBRANCH   6   7
BRANCH   1  19
HETATM   19  C4  UNL     1      23.562   2.764  49.102  1.00  0.00     0.035 C 
BRANCH  19  20
HETATM   20  C2  UNL     1      22.726   3.521  48.251  1.00  0.00    -0.081 C 
HETATM   21  C1  UNL     1      22.499   2.341  47.619  1.00  0.00     0.038 C 
HETATM   22  C3  UNL     1      21.865   4.295  47.374  1.00  0.00     0.043 C 
ENDBRANCH  19  20
ENDBRANCH   1  19
BRANCH   5  23
HETATM   23  N3  UNL     1      26.280   2.529  52.889  1.00  0.00    -0.340 N 
HETATM   24  H8  UNL     1      26.568   3.443  53.285  1.00  0.00     0.167 HD
BRANCH  23  25
HETATM   25  C8  UNL     1      27.226   1.502  53.113  1.00  0.00     0.035 A 
HETATM   26  C9  UNL     1      28.475   1.797  53.661  1.00  0.00     0.032 A 
HETATM   27  C10 UNL     1      29.438   0.872  53.913  1.00  0.00     0.046 A 
HETATM   28  C11 UNL     1      29.215  -0.437  53.629  1.00  0.00     0.138 A 
HETATM   29  F1  UNL     1      30.179  -1.349  53.882  1.00  0.00    -0.204 F 
HETATM   30  C12 UNL     1      28.007  -0.796  53.087  1.00  0.00     0.074 A 
HETATM   31 CL1  UNL     1      27.748  -2.489  52.733  1.00  0.00    -0.081 Cl
HETATM   32  C13 UNL     1      27.071   0.173  52.853  1.00  0.00     0.056 A 
ENDBRANCH  23  25
ENDBRANCH   5  23
TORSDOF 8
ENDMDL
MODEL 4
REMARK VINA RESULT:      -8.4      3.626      6.308
REMARK  8 active torsions:
REMARK  status: ('A' for Active; 'I' for Inactive)
REMARK    1  A    between atoms: C2_2  and  C4_4 
REMARK    2  A    between atoms: C4_4  and  C5_5 
REMARK    3  A    between atoms: C7_9  and  N3_10 
REMARK    4  A    between atoms: N3_10  and  C8_11 
REMARK    5  A    between atoms: C14_19  and  C15_20 
REMARK    6  A    between atoms: C15_20  and  O1_21 
REMARK    7  A    between atoms: O1_21  and  C16_22 
REMARK    8  A    between atoms: N4_25  and  S1_26 
ROOT
HETATM    1  C5  UNL     1      25.788  -0.404  53.462  1.00  0.00     0.074 A 
HETATM    2  N1  UNL     1      25.518  -1.189  54.496  1.00  0.00    -0.241 NA
HETATM    3  C6  UNL     1      24.345  -1.257  55.101  1.00  0.00     0.236 A 
HETATM    4  N2  UNL     1      23.416  -0.457  54.589  1.00  0.00    -0.223 NA
HETATM    5  C7  UNL     1      23.609   0.360  53.553  1.00  0.00     0.143 A 
HETATM    6  C14 UNL     1      24.829   0.421  52.935  1.00  0.00     0.060 A 
ENDROOT
BRANCH   6   7
HETATM    7  C15 UNL     1      25.091   1.206  51.920  1.00  0.00     0.152 C 
BRANCH   7   8
HETATM    8  O1  UNL     1      24.496   2.088  51.084  1.00  0.00    -0.357 OA
BRANCH   8   9
HETATM    9  C16 UNL     1      24.981   3.332  50.666  1.00  0.00     0.130 C 
HETATM   10  C17 UNL     1      26.460   3.259  50.371  1.00  0.00     0.048 C 
HETATM   11  C18 UNL     1      26.793   4.239  49.272  1.00  0.00     0.109 C 
HETATM   12  N4  UNL     1      25.904   5.351  49.387  1.00  0.00    -0.211 NA
HETATM   13  C20 UNL     1      24.577   5.078  48.888  1.00  0.00     0.109 C 
HETATM   14  C21 UNL     1      24.187   3.715  49.409  1.00  0.00     0.048 C 
BRANCH  12  15
HETATM   15  S1  UNL     1      26.543   6.831  48.799  1.00  0.00     0.207 S 
HETATM   16  C19 UNL     1      26.382   8.061  50.063  1.00  0.00     0.180 C 
HETATM   17  O2  UNL     1      27.961   6.686  48.334  1.00  0.00    -0.212 OA
HETATM   18  O3  UNL     1      25.718   7.263  47.623  1.00  0.00    -0.212 OA
ENDBRANCH  12  15
ENDBRANCH   8   9
ENDBRANCH   7   8
ENDBRANCH   6   7
BRANCH   1  19
HETATM   19  C4  UNL     1      26.938  -0.348  52.864  1.00  0.00     0.035 C 
BRANCH  19  20
HETATM   20  C2  UNL     1      28.254  -0.756  53.178  1.00  0.00    -0.081 C 
HETATM   21  C1  UNL     1      28.463   0.552  53.475  1.00  0.00     0.038 C 
HETATM   22  C3  UNL     1      29.608  -1.171  53.502  1.00  0.00     0.043 C 
ENDBRANCH  19  20
ENDBRANCH   1  19
BRANCH   5  23
HETATM   23  N3  UNL     1      22.523   1.140  53.135  1.00  0.00    -0.340 N 
HETATM   24  H8  UNL     1      22.612   2.166  53.258  1.00  0.00     0.167 HD
BRANCH  23  25
HETATM   25  C8  UNL     1      21.294   0.751  52.555  1.00  0.00     0.035 A 
HETATM   26  C9  UNL     1      20.999   1.084  51.231  1.00  0.00     0.032 A 
HETATM   27  C10 UNL     1      19.846   0.747  50.596  1.00  0.00     0.046 A 
HETATM   28  C11 UNL     1      18.890   0.040  51.252  1.00  0.00     0.138 A 
HETATM   29  F1  UNL     1      17.747  -0.290  50.611  1.00  0.00    -0.204 F 
HETATM   30  C12 UNL     1      19.116  -0.319  52.556  1.00  0.00     0.074 A 
HETATM   31 CL1  UNL     1      17.866  -1.230  53.374  1.00  0.00    -0.081 Cl
HETATM   32  C13 UNL     1      20.292   0.044  53.150  1.00  0.00     0.056 A 
ENDBRANCH  23  25
ENDBRANCH   5  23
TORSDOF 8
ENDMDL
MODEL 5
REMARK VINA RESULT:      -8.2      2.114      2.483
REMARK  8 active torsions:
REMARK  status: ('A' for Active; 'I' for Inactive)
REMARK    1  A    between atoms: C2_2  and  C4_4 
REMARK    2  A    between atoms: C4_4  and  C5_5 
REMARK    3  A    between atoms: C7_9  and  N3_10 
REMARK    4  A    between atoms: N3_10  and  C8_11 
REMARK    5  A    between atoms: C14_19  and  C15_20 
REMARK    6  A    between atoms: C15_20  and  O1_21 
REMARK    7  A    between atoms: O1_21  and  C16_22 
REMARK    8  A    between atoms: N4_25  and  S1_26 
ROOT
HETATM    1  C5  UNL     1      21.374  -0.647  53.940  1.00  0.00     0.074 A 
HETATM    2  N1  UNL     1      21.699  -1.350  55.016  1.00  0.00    -0.241 NA
HETATM    3  C6  UNL     1      22.934  -1.530  55.450  1.00  0.00     0.236 A 
HETATM    4  N2  UNL     1      23.868  -0.940  54.711  1.00  0.00    -0.223 NA
HETATM    5  C7  UNL     1      23.621  -0.218  53.617  1.00  0.00     0.143 A 
HETATM    6  C14 UNL     1      22.337  -0.039  53.178  1.00  0.00     0.060 A 
ENDROOT
BRANCH   6   7
HETATM    7  C15 UNL     1      22.024   0.648  52.109  1.00  0.00     0.152 C 
BRANCH   7   8
HETATM    8  O1  UNL     1      22.519   1.015  50.904  1.00  0.00    -0.357 OA
BRANCH   8   9
HETATM    9  C16 UNL     1      22.050   2.023  50.055  1.00  0.00     0.130 C 
HETATM   10  C17 UNL     1      23.200   2.803  49.464  1.00  0.00     0.048 C 
HETATM   11  C18 UNL     1      22.810   3.290  48.089  1.00  0.00     0.109 C 
HETATM   12  N4  UNL     1      21.402   3.530  48.088  1.00  0.00    -0.211 NA
HETATM   13  C20 UNL     1      20.615   2.323  48.001  1.00  0.00     0.109 C 
HETATM   14  C21 UNL     1      21.232   1.330  48.957  1.00  0.00     0.048 C 
BRANCH  12  15
HETATM   15  S1  UNL     1      20.892   4.737  46.980  1.00  0.00     0.207 S 
HETATM   16  C19 UNL     1      22.282   5.755  46.570  1.00  0.00     0.180 C 
HETATM   17  O2  UNL     1      20.250   4.145  45.760  1.00  0.00    -0.212 OA
HETATM   18  O3  UNL     1      19.870   5.598  47.662  1.00  0.00    -0.212 OA
ENDBRANCH  12  15
ENDBRANCH   8   9
ENDBRANCH   7   8
ENDBRANCH   6   7
BRANCH   1  19
HETATM   19  C4  UNL     1      20.159  -0.464  53.524  1.00  0.00     0.035 C 
BRANCH  19  20
HETATM   20  C2  UNL     1      18.985  -1.249  53.473  1.00  0.00    -0.081 C 
HETATM   21  C1  UNL     1      18.611  -0.414  52.470  1.00  0.00     0.038 C 
HETATM   22  C3  UNL     1      17.776  -2.053  53.417  1.00  0.00     0.043 C 
ENDBRANCH  19  20
ENDBRANCH   1  19
BRANCH   5  23
HETATM   23  N3  UNL     1      24.720   0.337  52.950  1.00  0.00    -0.340 N 
HETATM   24  H8  UNL     1      24.512   0.998  52.178  1.00  0.00     0.167 HD
BRANCH  23  25
HETATM   25  C8  UNL     1      26.105   0.145  53.162  1.00  0.00     0.035 A 
HETATM   26  C9  UNL     1      26.709  -1.070  52.834  1.00  0.00     0.032 A 
HETATM   27  C10 UNL     1      28.031  -1.336  53.001  1.00  0.00     0.046 A 
HETATM   28  C11 UNL     1      28.857  -0.389  53.515  1.00  0.00     0.138 A 
HETATM   29  F1  UNL     1      30.170  -0.663  53.677  1.00  0.00    -0.204 F 
HETATM   30  C12 UNL     1      28.327   0.829  53.859  1.00  0.00     0.074 A 
HETATM   31 CL1  UNL     1      29.415   2.030  54.518  1.00  0.00    -0.081 Cl
HETATM   32  C13 UNL     1      26.990   1.047  53.672  1.00  0.00     0.056 A 
ENDBRANCH  23  25
ENDBRANCH   5  23
TORSDOF 8
ENDMDL
MODEL 6
REMARK VINA RESULT:      -8.1      3.587      6.226
REMARK  8 active torsions:
REMARK  status: ('A' for Active; 'I' for Inactive)
REMARK    1  A    between atoms: C2_2  and  C4_4 
REMARK    2  A    between atoms: C4_4  and  C5_5 
REMARK    3  A    between atoms: C7_9  and  N3_10 
REMARK    4  A    between atoms: N3_10  and  C8_11 
REMARK    5  A    between atoms: C14_19  and  C15_20 
REMARK    6  A    between atoms: C15_20  and  O1_21 
REMARK    7  A    between atoms: O1_21  and  C16_22 
REMARK    8  A    between atoms: N4_25  and  S1_26 
ROOT
HETATM    1  C5  UNL     1      25.013  -0.525  53.621  1.00  0.00     0.074 A 
HETATM    2  N1  UNL     1      24.902  -1.292  54.696  1.00  0.00    -0.241 NA
HETATM    3  C6  UNL     1      23.797  -1.431  55.408  1.00  0.00     0.236 A 
HETATM    4  N2  UNL     1      22.763  -0.726  54.961  1.00  0.00    -0.223 NA
HETATM    5  C7  UNL     1      22.796   0.067  53.889  1.00  0.00     0.143 A 
HETATM    6  C14 UNL     1      23.947   0.202  53.160  1.00  0.00     0.060 A 
ENDROOT
BRANCH   6   7
HETATM    7  C15 UNL     1      24.053   0.969  52.104  1.00  0.00     0.152 C 
BRANCH   7   8
HETATM    8  O1  UNL     1      23.319   1.471  51.083  1.00  0.00    -0.357 OA
BRANCH   8   9
HETATM    9  C16 UNL     1      22.993   2.809  50.840  1.00  0.00     0.130 C 
HETATM   10  C17 UNL     1      23.288   3.661  52.051  1.00  0.00     0.048 C 
HETATM   11  C18 UNL     1      23.675   5.048  51.597  1.00  0.00     0.109 C 
HETATM   12  N4  UNL     1      22.966   5.331  50.390  1.00  0.00    -0.211 NA
HETATM   13  C20 UNL     1      23.526   4.679  49.230  1.00  0.00     0.109 C 
HETATM   14  C21 UNL     1      23.832   3.256  49.635  1.00  0.00     0.048 C 
BRANCH  12  15
HETATM   15  S1  UNL     1      22.654   6.998  50.128  1.00  0.00     0.207 S 
HETATM   16  C19 UNL     1      24.032   7.934  50.729  1.00  0.00     0.180 C 
HETATM   17  O2  UNL     1      22.359   7.295  48.688  1.00  0.00    -0.212 OA
HETATM   18  O3  UNL     1      21.447   7.380  50.931  1.00  0.00    -0.212 OA
ENDBRANCH  12  15
ENDBRANCH   8   9
ENDBRANCH   7   8
ENDBRANCH   6   7
BRANCH   1  19
HETATM   19  C4  UNL     1      26.098  -0.400  52.919  1.00  0.00     0.035 C 
BRANCH  19  20
HETATM   20  C2  UNL     1      27.459  -0.728  53.106  1.00  0.00    -0.081 C 
HETATM   21  C1  UNL     1      27.622   0.597  53.356  1.00  0.00     0.038 C 
HETATM   22  C3  UNL     1      28.860  -1.059  53.301  1.00  0.00     0.043 C 
ENDBRANCH  19  20
ENDBRANCH   1  19
BRANCH   5  23
HETATM   23  N3  UNL     1      21.617   0.743  53.550  1.00  0.00    -0.340 N 
HETATM   24  H8  UNL     1      21.615   1.771  53.686  1.00  0.00     0.167 HD
BRANCH  23  25
HETATM   25  C8  UNL     1      20.398   0.245  53.037  1.00  0.00     0.035 A 
HETATM   26  C9  UNL     1      19.835   0.801  51.886  1.00  0.00     0.032 A 
HETATM   27  C10 UNL     1      18.671   0.381  51.324  1.00  0.00     0.046 A 
HETATM   28  C11 UNL     1      17.977  -0.645  51.882  1.00  0.00     0.138 A 
HETATM   29  F1  UNL     1      16.822  -1.055  51.316  1.00  0.00    -0.204 F 
HETATM   30  C12 UNL     1      18.476  -1.237  53.015  1.00  0.00     0.074 A 
HETATM   31 CL1  UNL     1      17.561  -2.556  53.710  1.00  0.00    -0.081 Cl
HETATM   32  C13 UNL     1      19.651  -0.776  53.542  1.00  0.00     0.056 A 
ENDBRANCH  23  25
ENDBRANCH   5  23
TORSDOF 8
ENDMDL
MODEL 7
REMARK VINA RESULT:      -8.1      3.265      5.497
REMARK  8 active torsions:
REMARK  status: ('A' for Active; 'I' for Inactive)
REMARK    1  A    between atoms: C2_2  and  C4_4 
REMARK    2  A    between atoms: C4_4  and  C5_5 
REMARK    3  A    between atoms: C7_9  and  N3_10 
REMARK    4  A    between atoms: N3_10  and  C8_11 
REMARK    5  A    between atoms: C14_19  and  C15_20 
REMARK    6  A    between atoms: C15_20  and  O1_21 
REMARK    7  A    between atoms: O1_21  and  C16_22 
REMARK    8  A    between atoms: N4_25  and  S1_26 
ROOT
HETATM    1  C5  UNL     1      24.345   3.143  49.814  1.00  0.00     0.074 A 
HETATM    2  N1  UNL     1      25.411   3.778  49.347  1.00  0.00    -0.241 NA
HETATM    3  C6  UNL     1      26.618   3.710  49.881  1.00  0.00     0.236 A 
HETATM    4  N2  UNL     1      26.702   2.935  50.956  1.00  0.00    -0.223 NA
HETATM    5  C7  UNL     1      25.677   2.264  51.486  1.00  0.00     0.143 A 
HETATM    6  C14 UNL     1      24.431   2.344  50.924  1.00  0.00     0.060 A 
ENDROOT
BRANCH   6   7
HETATM    7  C15 UNL     1      23.380   1.721  51.396  1.00  0.00     0.152 C 
BRANCH   7   8
HETATM    8  O1  UNL     1      22.486   1.774  52.411  1.00  0.00    -0.357 OA
BRANCH   8   9
HETATM    9  C16 UNL     1      21.120   2.066  52.334  1.00  0.00     0.130 C 
HETATM   10  C17 UNL     1      20.896   3.555  52.233  1.00  0.00     0.048 C 
HETATM   11  C18 UNL     1      19.649   3.812  51.421  1.00  0.00     0.109 C 
HETATM   12  N4  UNL     1      18.743   2.731  51.649  1.00  0.00    -0.211 NA
HETATM   13  C20 UNL     1      19.093   1.530  50.928  1.00  0.00     0.109 C 
HETATM   14  C21 UNL     1      20.583   1.342  51.092  1.00  0.00     0.048 C 
BRANCH  12  15
HETATM   15  S1  UNL     1      17.087   3.148  51.479  1.00  0.00     0.207 S 
HETATM   16  C19 UNL     1      16.117   1.670  51.582  1.00  0.00     0.180 C 
HETATM   17  O2  UNL     1      16.660   4.173  52.486  1.00  0.00    -0.212 OA
HETATM   18  O3  UNL     1      16.891   3.738  50.114  1.00  0.00    -0.212 OA
ENDBRANCH  12  15
ENDBRANCH   8   9
ENDBRANCH   7   8
ENDBRANCH   6   7
BRANCH   1  19
HETATM   19  C4  UNL     1      23.164   3.204  49.281  1.00  0.00     0.035 C 
BRANCH  19  20
HETATM   20  C2  UNL     1      22.611   3.807  48.130  1.00  0.00    -0.081 C 
HETATM   21  C1  UNL     1      22.340   2.536  47.737  1.00  0.00     0.038 C 
HETATM   22  C3  UNL     1      22.040   4.424  46.944  1.00  0.00     0.043 C 
ENDBRANCH  19  20
ENDBRANCH   1  19
BRANCH   5  23
HETATM   23  N3  UNL     1      25.933   1.491  52.625  1.00  0.00    -0.340 N 
HETATM   24  H8  UNL     1      25.487   1.801  53.508  1.00  0.00     0.167 HD
BRANCH  23  25
HETATM   25  C8  UNL     1      26.715   0.322  52.774  1.00  0.00     0.035 A 
HETATM   26  C9  UNL     1      26.191  -0.928  52.440  1.00  0.00     0.032 A 
HETATM   27  C10 UNL     1      26.874  -2.098  52.548  1.00  0.00     0.046 A 
HETATM   28  C11 UNL     1      28.152  -2.099  53.006  1.00  0.00     0.138 A 
HETATM   29  F1  UNL     1      28.823  -3.268  53.110  1.00  0.00    -0.204 F 
HETATM   30  C12 UNL     1      28.728  -0.903  53.352  1.00  0.00     0.074 A 
HETATM   31 CL1  UNL     1      30.376  -0.937  53.937  1.00  0.00    -0.081 Cl
HETATM   32  C13 UNL     1      27.998   0.246  53.225  1.00  0.00     0.056 A 
ENDBRANCH  23  25
ENDBRANCH   5  23
TORSDOF 8
ENDMDL
MODEL 8
REMARK VINA RESULT:      -8.0      3.677      6.250
REMARK  8 active torsions:
REMARK  status: ('A' for Active; 'I' for Inactive)
REMARK    1  A    between atoms: C2_2  and  C4_4 
REMARK    2  A    between atoms: C4_4  and  C5_5 
REMARK    3  A    between atoms: C7_9  and  N3_10 
REMARK    4  A    between atoms: N3_10  and  C8_11 
REMARK    5  A    between atoms: C14_19  and  C15_20 
REMARK    6  A    between atoms: C15_20  and  O1_21 
REMARK    7  A    between atoms: O1_21  and  C16_22 
REMARK    8  A    between atoms: N4_25  and  S1_26 
ROOT
HETATM    1  C5  UNL     1      24.275  -0.471  53.804  1.00  0.00     0.074 A 
HETATM    2  N1  UNL     1      23.932  -1.227  54.837  1.00  0.00    -0.241 NA
HETATM    3  C6  UNL     1      22.714  -1.294  55.346  1.00  0.00     0.236 A 
HETATM    4  N2  UNL     1      21.819  -0.526  54.735  1.00  0.00    -0.223 NA
HETATM    5  C7  UNL     1      22.086   0.261  53.691  1.00  0.00     0.143 A 
HETATM    6  C14 UNL     1      23.352   0.321  53.173  1.00  0.00     0.060 A 
ENDROOT
BRANCH   6   7
HETATM    7  C15 UNL     1      23.686   1.078  52.158  1.00  0.00     0.152 C 
BRANCH   7   8
HETATM    8  O1  UNL     1      23.145   1.744  51.112  1.00  0.00    -0.357 OA
BRANCH   8   9
HETATM    9  C16 UNL     1      23.407   3.057  50.704  1.00  0.00     0.130 C 
HETATM   10  C17 UNL     1      22.780   4.048  51.655  1.00  0.00     0.048 C 
HETATM   11  C18 UNL     1      23.631   5.294  51.699  1.00  0.00     0.109 C 
HETATM   12  N4  UNL     1      24.234   5.464  50.416  1.00  0.00    -0.211 NA
HETATM   13  C20 UNL     1      25.352   4.580  50.186  1.00  0.00     0.109 C 
HETATM   14  C21 UNL     1      24.934   3.212  50.673  1.00  0.00     0.048 C 
BRANCH  12  15
HETATM   15  S1  UNL     1      24.582   7.094  50.008  1.00  0.00     0.207 S 
HETATM   16  C19 UNL     1      24.261   7.328  48.282  1.00  0.00     0.180 C 
HETATM   17  O2  UNL     1      23.816   8.062  50.858  1.00  0.00    -0.212 OA
HETATM   18  O3  UNL     1      26.044   7.334  50.245  1.00  0.00    -0.212 OA
ENDBRANCH  12  15
ENDBRANCH   8   9
ENDBRANCH   7   8
ENDBRANCH   6   7
BRANCH   1  19
HETATM   19  C4  UNL     1      25.470  -0.416  53.301  1.00  0.00     0.035 C 
BRANCH  19  20
HETATM   20  C2  UNL     1      26.769  -0.211  53.816  1.00  0.00    -0.081 C 
HETATM   21  C1  UNL     1      27.189  -0.532  52.566  1.00  0.00     0.038 C 
HETATM   22  C3  UNL     1      28.107  -0.000  54.342  1.00  0.00     0.043 C 
ENDBRANCH  19  20
ENDBRANCH   1  19
BRANCH   5  23
HETATM   23  N3  UNL     1      21.028   1.010  53.161  1.00  0.00    -0.340 N 
HETATM   24  H8  UNL     1      21.035   2.028  53.356  1.00  0.00     0.167 HD
BRANCH  23  25
HETATM   25  C8  UNL     1      19.925   0.598  52.379  1.00  0.00     0.035 A 
HETATM   26  C9  UNL     1      19.769   1.066  51.072  1.00  0.00     0.032 A 
HETATM   27  C10 UNL     1      18.743   0.719  50.252  1.00  0.00     0.046 A 
HETATM   28  C11 UNL     1      17.783  -0.137  50.689  1.00  0.00     0.138 A 
HETATM   29  F1  UNL     1      16.767  -0.477  49.866  1.00  0.00    -0.204 F 
HETATM   30  C12 UNL     1      17.876  -0.635  51.964  1.00  0.00     0.074 A 
HETATM   31 CL1  UNL     1      16.626  -1.737  52.496  1.00  0.00    -0.081 Cl
HETATM   32  C13 UNL     1      18.929  -0.254  52.749  1.00  0.00     0.056 A 
ENDBRANCH  23  25
ENDBRANCH   5  23
TORSDOF 8
ENDMDL
MODEL 9
REMARK VINA RESULT:      -8.0      1.729      2.273
REMARK  8 active torsions:
REMARK  status: ('A' for Active; 'I' for Inactive)
REMARK    1  A    between atoms: C2_2  and  C4_4 
REMARK    2  A    between atoms: C4_4  and  C5_5 
REMARK    3  A    between atoms: C7_9  and  N3_10 
REMARK    4  A    between atoms: N3_10  and  C8_11 
REMARK    5  A    between atoms: C14_19  and  C15_20 
REMARK    6  A    between atoms: C15_20  and  O1_21 
REMARK    7  A    between atoms: O1_21  and  C16_22 
REMARK    8  A    between atoms: N4_25  and  S1_26 
ROOT
HETATM    1  C5  UNL     1      21.392   0.020  52.476  1.00  0.00     0.074 A 
HETATM    2  N1  UNL     1      21.526  -0.710  53.573  1.00  0.00    -0.241 NA
HETATM    3  C6  UNL     1      22.656  -0.856  54.244  1.00  0.00     0.236 A 
HETATM    4  N2  UNL     1      23.689  -0.199  53.730  1.00  0.00    -0.223 NA
HETATM    5  C7  UNL     1      23.634   0.556  52.631  1.00  0.00     0.143 A 
HETATM    6  C14 UNL     1      22.458   0.698  51.945  1.00  0.00     0.060 A 
ENDROOT
BRANCH   6   7
HETATM    7  C15 UNL     1      22.334   1.414  50.856  1.00  0.00     0.152 C 
BRANCH   7   8
HETATM    8  O1  UNL     1      22.249   2.699  50.438  1.00  0.00    -0.357 OA
BRANCH   8   9
HETATM    9  C16 UNL     1      23.293   3.540  50.038  1.00  0.00     0.130 C 
HETATM   10  C17 UNL     1      23.087   4.011  48.619  1.00  0.00     0.048 C 
HETATM   11  C18 UNL     1      23.680   5.392  48.467  1.00  0.00     0.109 C 
HETATM   12  N4  UNL     1      24.803   5.489  49.343  1.00  0.00    -0.211 NA
HETATM   13  C20 UNL     1      24.436   5.683  50.726  1.00  0.00     0.109 C 
HETATM   14  C21 UNL     1      23.306   4.723  51.016  1.00  0.00     0.048 C 
BRANCH  12  15
HETATM   15  S1  UNL     1      26.016   6.584  48.819  1.00  0.00     0.207 S 
HETATM   16  C19 UNL     1      26.231   7.829  50.061  1.00  0.00     0.180 C 
HETATM   17  O2  UNL     1      27.303   5.885  48.496  1.00  0.00    -0.212 OA
HETATM   18  O3  UNL     1      25.532   7.255  47.568  1.00  0.00    -0.212 OA
ENDBRANCH  12  15
ENDBRANCH   8   9
ENDBRANCH   7   8
ENDBRANCH   6   7
BRANCH   1  19
HETATM   19  C4  UNL     1      20.278   0.169  51.827  1.00  0.00     0.035 C 
BRANCH  19  20
HETATM   20  C2  UNL     1      18.941  -0.246  52.017  1.00  0.00    -0.081 C 
HETATM   21  C1  UNL     1      18.680   0.482  50.901  1.00  0.00     0.038 C 
HETATM   22  C3  UNL     1      17.565  -0.670  52.208  1.00  0.00     0.043 C 
ENDBRANCH  19  20
ENDBRANCH   1  19
BRANCH   5  23
HETATM   23  N3  UNL     1      24.817   1.182  52.218  1.00  0.00    -0.340 N 
HETATM   24  H8  UNL     1      24.728   1.908  51.483  1.00  0.00     0.167 HD
BRANCH  23  25
HETATM   25  C8  UNL     1      26.148   0.989  52.653  1.00  0.00     0.035 A 
HETATM   26  C9  UNL     1      26.908   2.068  53.109  1.00  0.00     0.032 A 
HETATM   27  C10 UNL     1      28.190   1.970  53.549  1.00  0.00     0.046 A 
HETATM   28  C11 UNL     1      28.813   0.764  53.563  1.00  0.00     0.138 A 
HETATM   29  F1  UNL     1      30.088   0.676  54.002  1.00  0.00    -0.204 F 
HETATM   30  C12 UNL     1      28.123  -0.339  53.128  1.00  0.00     0.074 A 
HETATM   31 CL1  UNL     1      28.952  -1.879  53.160  1.00  0.00    -0.081 Cl
HETATM   32  C13 UNL     1      26.834  -0.187  52.696  1.00  0.00     0.056 A 
ENDBRANCH  23  25
ENDBRANCH   5  23
TORSDOF 8
ENDMDL
