MODEL 1
REMARK VINA RESULT:      -7.5      0.000      0.000
REMARK  5 active torsions:
REMARK  status: ('A' for Active; 'I' for Inactive)
REMARK    1  A    between atoms: C1_1  and  C8_10 
REMARK    2  A    between atoms: C2_2  and  C3_3 
REMARK    3  A    between atoms: C3_3  and  N1_4 
REMARK    4  A    between atoms: C8_10  and  C9_11 
REMARK    5  A    between atoms: C10_12  and  C11_13 
ROOT
HETATM    1  C9  UNL     1      25.540   2.360  52.232  1.00  0.00    -0.021 C 
HETATM    2  C10 UNL     1      25.500   1.930  53.478  1.00  0.00     0.023 C 
ENDROOT
BRANCH   1   3
HETATM    3  C8  UNL     1      24.567   3.341  51.689  1.00  0.00     0.054 C 
BRANCH   3   4
HETATM    4  C1  UNL     1      23.300   3.336  52.453  1.00  0.00    -0.025 C 
HETATM    5  C2  UNL     1      22.350   2.448  52.291  1.00  0.00    -0.001 C 
BRANCH   5   6
HETATM    6  C3  UNL     1      22.229   1.285  51.397  1.00  0.00     0.299 C 
BRANCH   6   7
HETATM    7  N1  UNL     1      21.657   0.136  52.098  1.00  0.00     0.095 N 
HETATM    8  C4  UNL     1      20.390   0.560  52.671  1.00  0.00     0.302 C 
HETATM    9  C5  UNL     1      19.746  -0.559  53.449  1.00  0.00     0.299 C 
HETATM   10  N2  UNL     1      20.618  -1.115  54.452  1.00  0.00     0.086 N 
HETATM   11  C6  UNL     1      21.914  -1.444  53.891  1.00  0.00     0.299 C 
HETATM   12  H9  UNL     1      20.194  -2.030  54.759  1.00  0.00     0.315 HD
HETATM   13  C7  UNL     1      22.525  -0.253  53.184  1.00  0.00     0.302 C 
ENDBRANCH   6   7
ENDBRANCH   5   6
ENDBRANCH   3   4
ENDBRANCH   1   3
BRANCH   2  14
HETATM   14  C11 UNL     1      26.491   0.966  53.938  1.00  0.00     0.032 C 
HETATM   15  N3  UNL     1      27.692   1.283  54.292  1.00  0.00    -0.290 NA
HETATM   16  C12 UNL     1      28.694   0.383  54.737  1.00  0.00     0.177 C 
HETATM   17  C13 UNL     1      29.742   0.112  53.697  1.00  0.00     0.012 C 
HETATM   18  C14 UNL     1      29.603  -1.129  53.246  1.00  0.00     0.085 C 
HETATM   19  N4  UNL     1      28.660  -2.200  53.558  1.00  0.00    -0.376 N 
HETATM   20  C15 UNL     1      27.537  -1.829  52.681  1.00  0.00     0.084 C 
HETATM   21  H22 UNL     1      28.664  -3.024  54.181  1.00  0.00     0.164 HD
HETATM   22  C16 UNL     1      26.382  -1.092  52.688  1.00  0.00    -0.004 C 
HETATM   23  C17 UNL     1      26.262  -0.493  54.041  1.00  0.00     0.087 C 
ENDBRANCH   2  14
TORSDOF 5
ENDMDL
MODEL 2
REMARK VINA RESULT:      -7.4      2.937      5.250
REMARK  5 active torsions:
REMARK  status: ('A' for Active; 'I' for Inactive)
REMARK    1  A    between atoms: C1_1  and  C8_10 
REMARK    2  A    between atoms: C2_2  and  C3_3 
REMARK    3  A    between atoms: C3_3  and  N1_4 
REMARK    4  A    between atoms: C8_10  and  C9_11 
REMARK    5  A    between atoms: C10_12  and  C11_13 
ROOT
HETATM    1  C9  UNL     1      24.148   1.952  52.931  1.00  0.00    -0.021 C 
HETATM    2  C10 UNL     1      25.287   2.279  53.511  1.00  0.00     0.023 C 
ENDROOT
BRANCH   1   3
HETATM    3  C8  UNL     1      23.168   2.964  52.461  1.00  0.00     0.054 C 
BRANCH   3   4
HETATM    4  C1  UNL     1      23.769   4.313  52.379  1.00  0.00    -0.025 C 
HETATM    5  C2  UNL     1      24.220   4.848  51.271  1.00  0.00    -0.001 C 
BRANCH   5   6
HETATM    6  C3  UNL     1      24.279   4.349  49.887  1.00  0.00     0.299 C 
BRANCH   6   7
HETATM    7  N1  UNL     1      25.362   4.985  49.141  1.00  0.00     0.095 N 
HETATM    8  C4  UNL     1      26.560   4.185  49.339  1.00  0.00     0.302 C 
HETATM    9  C5  UNL     1      27.742   4.794  48.631  1.00  0.00     0.299 C 
HETATM   10  N2  UNL     1      27.963   6.170  48.995  1.00  0.00     0.086 N 
HETATM   11  C6  UNL     1      26.739   6.940  48.887  1.00  0.00     0.299 C 
HETATM   12  H9  UNL     1      28.625   6.577  48.283  1.00  0.00     0.315 HD
HETATM   13  C7  UNL     1      25.617   6.301  49.677  1.00  0.00     0.302 C 
ENDBRANCH   6   7
ENDBRANCH   5   6
ENDBRANCH   3   4
ENDBRANCH   1   3
BRANCH   2  14
HETATM   14  C11 UNL     1      26.200   1.229  53.946  1.00  0.00     0.032 C 
HETATM   15  N3  UNL     1      27.397   1.452  54.376  1.00  0.00    -0.290 NA
HETATM   16  C12 UNL     1      28.326   0.467  54.801  1.00  0.00     0.177 C 
HETATM   17  C13 UNL     1      29.408   0.208  53.794  1.00  0.00     0.012 C 
HETATM   18  C14 UNL     1      29.225  -0.989  53.248  1.00  0.00     0.085 C 
HETATM   19  N4  UNL     1      28.211  -2.022  53.439  1.00  0.00    -0.376 N 
HETATM   20  C15 UNL     1      27.154  -1.527  52.540  1.00  0.00     0.084 C 
HETATM   21  H22 UNL     1      28.138  -2.887  54.001  1.00  0.00     0.164 HD
HETATM   22  C16 UNL     1      26.042  -0.727  52.547  1.00  0.00    -0.004 C 
HETATM   23  C17 UNL     1      25.888  -0.218  53.932  1.00  0.00     0.087 C 
ENDBRANCH   2  14
TORSDOF 5
ENDMDL
MODEL 3
REMARK VINA RESULT:      -7.3      4.281      6.876
REMARK  5 active torsions:
REMARK  status: ('A' for Active; 'I' for Inactive)
REMARK    1  A    between atoms: C1_1  and  C8_10 
REMARK    2  A    between atoms: C2_2  and  C3_3 
REMARK    3  A    between atoms: C3_3  and  N1_4 
REMARK    4  A    between atoms: C8_10  and  C9_11 
REMARK    5  A    between atoms: C10_12  and  C11_13 
ROOT
HETATM    1  C9  UNL     1      25.130   3.241  50.630  1.00  0.00    -0.021 C 
HETATM    2  C10 UNL     1      26.272   2.596  50.778  1.00  0.00     0.023 C 
ENDROOT
BRANCH   1   3
HETATM    3  C8  UNL     1      24.546   3.543  49.300  1.00  0.00     0.054 C 
BRANCH   3   4
HETATM    4  C1  UNL     1      24.087   4.947  49.208  1.00  0.00    -0.025 C 
HETATM    5  C2  UNL     1      24.867   5.954  48.899  1.00  0.00    -0.001 C 
BRANCH   5   6
HETATM    6  C3  UNL     1      26.301   6.028  48.575  1.00  0.00     0.299 C 
BRANCH   6   7
HETATM    7  N1  UNL     1      26.811   7.388  48.740  1.00  0.00     0.095 N 
HETATM    8  C4  UNL     1      28.263   7.320  48.701  1.00  0.00     0.302 C 
HETATM    9  C5  UNL     1      28.875   8.681  48.902  1.00  0.00     0.299 C 
HETATM   10  N2  UNL     1      28.410   9.330  50.101  1.00  0.00     0.086 N 
HETATM   11  C6  UNL     1      26.963   9.308  50.179  1.00  0.00     0.299 C 
HETATM   12  H9  UNL     1      28.681  10.347  50.029  1.00  0.00     0.315 HD
HETATM   13  C7  UNL     1      26.427   7.900  50.034  1.00  0.00     0.302 C 
ENDBRANCH   6   7
ENDBRANCH   5   6
ENDBRANCH   3   4
ENDBRANCH   1   3
BRANCH   2  14
HETATM   14  C11 UNL     1      26.782   2.335  52.118  1.00  0.00     0.032 C 
HETATM   15  N3  UNL     1      28.032   2.408  52.436  1.00  0.00    -0.290 NA
HETATM   16  C12 UNL     1      28.580   2.156  53.720  1.00  0.00     0.177 C 
HETATM   17  C13 UNL     1      29.278   0.830  53.810  1.00  0.00     0.012 C 
HETATM   18  C14 UNL     1      28.558   0.004  54.560  1.00  0.00     0.085 C 
HETATM   19  N4  UNL     1      27.283   0.150  55.256  1.00  0.00    -0.376 N 
HETATM   20  C15 UNL     1      26.346  -0.141  54.157  1.00  0.00     0.084 C 
HETATM   21  H22 UNL     1      26.994   0.381  56.221  1.00  0.00     0.164 HD
HETATM   22  C16 UNL     1      25.641   0.490  53.166  1.00  0.00    -0.004 C 
HETATM   23  C17 UNL     1      25.950   1.938  53.275  1.00  0.00     0.087 C 
ENDBRANCH   2  14
TORSDOF 5
ENDMDL
MODEL 4
REMARK VINA RESULT:      -7.2      4.864      7.633
REMARK  5 active torsions:
REMARK  status: ('A' for Active; 'I' for Inactive)
REMARK    1  A    between atoms: C1_1  and  C8_10 
REMARK    2  A    between atoms: C2_2  and  C3_3 
REMARK    3  A    between atoms: C3_3  and  N1_4 
REMARK    4  A    between atoms: C8_10  and  C9_11 
REMARK    5  A    between atoms: C10_12  and  C11_13 
ROOT
HETATM    1  C9  UNL     1      25.768   3.682  50.547  1.00  0.00    -0.021 C 
HETATM    2  C10 UNL     1      26.578   2.651  50.698  1.00  0.00     0.023 C 
ENDROOT
BRANCH   1   3
HETATM    3  C8  UNL     1      25.342   4.178  49.214  1.00  0.00     0.054 C 
BRANCH   3   4
HETATM    4  C1  UNL     1      25.681   5.605  49.026  1.00  0.00    -0.025 C 
HETATM    5  C2  UNL     1      26.868   6.036  48.676  1.00  0.00    -0.001 C 
BRANCH   5   6
HETATM    6  C3  UNL     1      28.127   5.331  48.383  1.00  0.00     0.299 C 
BRANCH   6   7
HETATM    7  N1  UNL     1      29.152   6.257  47.904  1.00  0.00     0.095 N 
HETATM    8  C4  UNL     1      30.405   5.895  48.548  1.00  0.00     0.302 C 
HETATM    9  C5  UNL     1      31.514   6.827  48.138  1.00  0.00     0.299 C 
HETATM   10  N2  UNL     1      31.190   8.213  48.360  1.00  0.00     0.086 N 
HETATM   11  C6  UNL     1      29.894   8.541  47.798  1.00  0.00     0.299 C 
HETATM   12  H9  UNL     1      31.893   8.786  47.823  1.00  0.00     0.315 HD
HETATM   13  C7  UNL     1      28.821   7.603  48.308  1.00  0.00     0.302 C 
ENDBRANCH   6   7
ENDBRANCH   5   6
ENDBRANCH   3   4
ENDBRANCH   1   3
BRANCH   2  14
HETATM   14  C11 UNL     1      26.952   2.222  52.040  1.00  0.00     0.032 C 
HETATM   15  N3  UNL     1      28.136   2.368  52.535  1.00  0.00    -0.290 NA
HETATM   16  C12 UNL     1      28.553   1.961  53.828  1.00  0.00     0.177 C 
HETATM   17  C13 UNL     1      29.395   0.718  53.809  1.00  0.00     0.012 C 
HETATM   18  C14 UNL     1      28.699  -0.293  54.315  1.00  0.00     0.085 C 
HETATM   19  N4  UNL     1      27.340  -0.398  54.842  1.00  0.00    -0.376 N 
HETATM   20  C15 UNL     1      26.586  -0.595  53.593  1.00  0.00     0.084 C 
HETATM   21  H22 UNL     1      26.911  -0.365  55.782  1.00  0.00     0.164 HD
HETATM   22  C16 UNL     1      25.932   0.118  52.622  1.00  0.00    -0.004 C 
HETATM   23  C17 UNL     1      26.043   1.551  52.995  1.00  0.00     0.087 C 
ENDBRANCH   2  14
TORSDOF 5
ENDMDL
MODEL 5
REMARK VINA RESULT:      -7.2      2.318      4.467
REMARK  5 active torsions:
REMARK  status: ('A' for Active; 'I' for Inactive)
REMARK    1  A    between atoms: C1_1  and  C8_10 
REMARK    2  A    between atoms: C2_2  and  C3_3 
REMARK    3  A    between atoms: C3_3  and  N1_4 
REMARK    4  A    between atoms: C8_10  and  C9_11 
REMARK    5  A    between atoms: C10_12  and  C11_13 
ROOT
HETATM    1  C9  UNL     1      23.770   0.453  53.264  1.00  0.00    -0.021 C 
HETATM    2  C10 UNL     1      24.933   1.076  53.278  1.00  0.00     0.023 C 
ENDROOT
BRANCH   1   3
HETATM    3  C8  UNL     1      22.533   1.075  52.729  1.00  0.00     0.054 C 
BRANCH   3   4
HETATM    4  C1  UNL     1      22.563   1.173  51.253  1.00  0.00    -0.025 C 
HETATM    5  C2  UNL     1      22.799   2.283  50.597  1.00  0.00    -0.001 C 
BRANCH   5   6
HETATM    6  C3  UNL     1      23.082   3.655  51.049  1.00  0.00     0.299 C 
BRANCH   6   7
HETATM    7  N1  UNL     1      24.080   4.298  50.196  1.00  0.00     0.095 N 
HETATM    8  C4  UNL     1      25.287   3.489  50.250  1.00  0.00     0.302 C 
HETATM    9  C5  UNL     1      26.388   4.103  49.424  1.00  0.00     0.299 C 
HETATM   10  N2  UNL     1      26.655   5.473  49.780  1.00  0.00     0.086 N 
HETATM   11  C6  UNL     1      25.432   6.250  49.819  1.00  0.00     0.299 C 
HETATM   12  H9  UNL     1      27.237   5.888  49.005  1.00  0.00     0.315 HD
HETATM   13  C7  UNL     1      24.400   5.605  50.719  1.00  0.00     0.302 C 
ENDBRANCH   6   7
ENDBRANCH   5   6
ENDBRANCH   3   4
ENDBRANCH   1   3
BRANCH   2  14
HETATM   14  C11 UNL     1      26.104   0.399  53.821  1.00  0.00     0.032 C 
HETATM   15  N3  UNL     1      27.138   1.017  54.286  1.00  0.00    -0.290 NA
HETATM   16  C12 UNL     1      28.304   0.407  54.815  1.00  0.00     0.177 C 
HETATM   17  C13 UNL     1      29.473   0.461  53.874  1.00  0.00     0.012 C 
HETATM   18  C14 UNL     1      29.715  -0.757  53.403  1.00  0.00     0.085 C 
HETATM   19  N4  UNL     1      29.075  -2.051  53.620  1.00  0.00    -0.376 N 
HETATM   20  C15 UNL     1      27.974  -1.969  52.645  1.00  0.00     0.084 C 
HETATM   21  H22 UNL     1      29.248  -2.864  54.235  1.00  0.00     0.164 HD
HETATM   22  C16 UNL     1      26.666  -1.571  52.551  1.00  0.00    -0.004 C 
HETATM   23  C17 UNL     1      26.272  -1.070  53.892  1.00  0.00     0.087 C 
ENDBRANCH   2  14
TORSDOF 5
ENDMDL
MODEL 6
REMARK VINA RESULT:      -7.1      1.595      3.604
REMARK  5 active torsions:
REMARK  status: ('A' for Active; 'I' for Inactive)
REMARK    1  A    between atoms: C1_1  and  C8_10 
REMARK    2  A    between atoms: C2_2  and  C3_3 
REMARK    3  A    between atoms: C3_3  and  N1_4 
REMARK    4  A    between atoms: C8_10  and  C9_11 
REMARK    5  A    between atoms: C10_12  and  C11_13 
ROOT
HETATM    1  C9  UNL     1      24.075  -0.874  54.773  1.00  0.00    -0.021 C 
HETATM    2  C10 UNL     1      24.391  -0.574  53.528  1.00  0.00     0.023 C 
ENDROOT
BRANCH   1   3
HETATM    3  C8  UNL     1      22.681  -1.153  55.202  1.00  0.00     0.054 C 
BRANCH   3   4
HETATM    4  C1  UNL     1      21.850  -1.643  54.080  1.00  0.00    -0.025 C 
HETATM    5  C2  UNL     1      20.958  -0.913  53.456  1.00  0.00    -0.001 C 
BRANCH   5   6
HETATM    6  C3  UNL     1      20.524   0.482  53.634  1.00  0.00     0.299 C 
BRANCH   6   7
HETATM    7  N1  UNL     1      21.315   1.391  52.807  1.00  0.00     0.095 N 
HETATM    8  C4  UNL     1      20.519   2.588  52.586  1.00  0.00     0.302 C 
HETATM    9  C5  UNL     1      21.247   3.569  51.706  1.00  0.00     0.299 C 
HETATM   10  N2  UNL     1      21.681   2.988  50.461  1.00  0.00     0.086 N 
HETATM   11  C6  UNL     1      22.391   1.744  50.686  1.00  0.00     0.299 C 
HETATM   12  H9  UNL     1      22.383   3.650  50.037  1.00  0.00     0.315 HD
HETATM   13  C7  UNL     1      21.569   0.786  51.522  1.00  0.00     0.302 C 
ENDBRANCH   6   7
ENDBRANCH   5   6
ENDBRANCH   3   4
ENDBRANCH   1   3
BRANCH   2  14
HETATM   14  C11 UNL     1      25.783  -0.313  53.183  1.00  0.00     0.032 C 
HETATM   15  N3  UNL     1      26.760  -1.094  53.503  1.00  0.00    -0.290 NA
HETATM   16  C12 UNL     1      28.130  -0.880  53.201  1.00  0.00     0.177 C 
HETATM   17  C13 UNL     1      28.929  -0.425  54.387  1.00  0.00     0.012 C 
HETATM   18  C14 UNL     1      29.262   0.851  54.229  1.00  0.00     0.085 C 
HETATM   19  N4  UNL     1      28.992   1.825  53.175  1.00  0.00    -0.376 N 
HETATM   20  C15 UNL     1      27.658   2.296  53.584  1.00  0.00     0.084 C 
HETATM   21  H22 UNL     1      29.502   2.170  52.345  1.00  0.00     0.164 HD
HETATM   22  C16 UNL     1      26.329   2.026  53.387  1.00  0.00    -0.004 C 
HETATM   23  C17 UNL     1      26.259   0.879  52.447  1.00  0.00     0.087 C 
ENDBRANCH   2  14
TORSDOF 5
ENDMDL
MODEL 7
REMARK VINA RESULT:      -7.1      5.271      7.738
REMARK  5 active torsions:
REMARK  status: ('A' for Active; 'I' for Inactive)
REMARK    1  A    between atoms: C1_1  and  C8_10 
REMARK    2  A    between atoms: C2_2  and  C3_3 
REMARK    3  A    between atoms: C3_3  and  N1_4 
REMARK    4  A    between atoms: C8_10  and  C9_11 
REMARK    5  A    between atoms: C10_12  and  C11_13 
ROOT
HETATM    1  C9  UNL     1      27.053   3.998  49.130  1.00  0.00    -0.021 C 
HETATM    2  C10 UNL     1      27.106   5.234  48.672  1.00  0.00     0.023 C 
ENDROOT
BRANCH   1   3
HETATM    3  C8  UNL     1      25.779   3.335  49.506  1.00  0.00     0.054 C 
BRANCH   3   4
HETATM    4  C1  UNL     1      25.513   3.443  50.958  1.00  0.00    -0.025 C 
HETATM    5  C2  UNL     1      25.804   2.508  51.828  1.00  0.00    -0.001 C 
BRANCH   5   6
HETATM    6  C3  UNL     1      26.425   1.181  51.680  1.00  0.00     0.299 C 
BRANCH   6   7
HETATM    7  N1  UNL     1      27.602   1.049  52.536  1.00  0.00     0.095 N 
HETATM    8  C4  UNL     1      27.291   0.065  53.561  1.00  0.00     0.302 C 
HETATM    9  C5  UNL     1      28.443  -0.105  54.516  1.00  0.00     0.299 C 
HETATM   10  N2  UNL     1      28.877   1.139  55.096  1.00  0.00     0.086 N 
HETATM   11  C6  UNL     1      29.092   2.144  54.073  1.00  0.00     0.299 C 
HETATM   12  H9  UNL     1      29.820   0.966  55.534  1.00  0.00     0.315 HD
HETATM   13  C7  UNL     1      27.868   2.305  53.196  1.00  0.00     0.302 C 
ENDBRANCH   6   7
ENDBRANCH   5   6
ENDBRANCH   3   4
ENDBRANCH   1   3
BRANCH   2  14
HETATM   14  C11 UNL     1      28.396   5.816  48.323  1.00  0.00     0.032 C 
HETATM   15  N3  UNL     1      29.528   5.232  48.536  1.00  0.00    -0.290 NA
HETATM   16  C12 UNL     1      30.808   5.760  48.225  1.00  0.00     0.177 C 
HETATM   17  C13 UNL     1      31.547   6.256  49.433  1.00  0.00     0.012 C 
HETATM   18  C14 UNL     1      31.601   7.582  49.402  1.00  0.00     0.085 C 
HETATM   19  N4  UNL     1      31.086   8.575  48.463  1.00  0.00    -0.376 N 
HETATM   20  C15 UNL     1      29.703   8.711  48.951  1.00  0.00     0.084 C 
HETATM   21  H22 UNL     1      31.475   9.100  47.661  1.00  0.00     0.164 HD
HETATM   22  C16 UNL     1      28.452   8.186  48.759  1.00  0.00    -0.004 C 
HETATM   23  C17 UNL     1      28.579   7.149  47.705  1.00  0.00     0.087 C 
ENDBRANCH   2  14
TORSDOF 5
ENDMDL
MODEL 8
REMARK VINA RESULT:      -7.0      1.817      3.903
REMARK  5 active torsions:
REMARK  status: ('A' for Active; 'I' for Inactive)
REMARK    1  A    between atoms: C1_1  and  C8_10 
REMARK    2  A    between atoms: C2_2  and  C3_3 
REMARK    3  A    between atoms: C3_3  and  N1_4 
REMARK    4  A    between atoms: C8_10  and  C9_11 
REMARK    5  A    between atoms: C10_12  and  C11_13 
ROOT
HETATM    1  C9  UNL     1      23.406  -0.414  53.118  1.00  0.00    -0.021 C 
HETATM    2  C10 UNL     1      24.438  -0.645  53.907  1.00  0.00     0.023 C 
ENDROOT
BRANCH   1   3
HETATM    3  C8  UNL     1      22.006  -0.699  53.523  1.00  0.00     0.054 C 
BRANCH   3   4
HETATM    4  C1  UNL     1      21.227   0.543  53.716  1.00  0.00    -0.025 C 
HETATM    5  C2  UNL     1      21.058   1.453  52.788  1.00  0.00    -0.001 C 
BRANCH   5   6
HETATM    6  C3  UNL     1      21.529   1.544  51.397  1.00  0.00     0.299 C 
BRANCH   6   7
HETATM    7  N1  UNL     1      22.294   2.770  51.176  1.00  0.00     0.095 N 
HETATM    8  C4  UNL     1      23.416   2.438  50.313  1.00  0.00     0.302 C 
HETATM    9  C5  UNL     1      24.283   3.644  50.064  1.00  0.00     0.299 C 
HETATM   10  N2  UNL     1      24.724   4.276  51.281  1.00  0.00     0.086 N 
HETATM   11  C6  UNL     1      23.610   4.516  52.177  1.00  0.00     0.299 C 
HETATM   12  H9  UNL     1      25.096   5.227  51.020  1.00  0.00     0.315 HD
HETATM   13  C7  UNL     1      22.826   3.245  52.431  1.00  0.00     0.302 C 
ENDBRANCH   6   7
ENDBRANCH   5   6
ENDBRANCH   3   4
ENDBRANCH   1   3
BRANCH   2  14
HETATM   14  C11 UNL     1      25.783  -0.338  53.439  1.00  0.00     0.032 C 
HETATM   15  N3  UNL     1      26.808  -1.094  53.656  1.00  0.00    -0.290 NA
HETATM   16  C12 UNL     1      28.137  -0.837  53.230  1.00  0.00     0.177 C 
HETATM   17  C13 UNL     1      29.029  -0.372  54.344  1.00  0.00     0.012 C 
HETATM   18  C14 UNL     1      29.311   0.914  54.175  1.00  0.00     0.085 C 
HETATM   19  N4  UNL     1      28.917   1.892  53.164  1.00  0.00    -0.376 N 
HETATM   20  C15 UNL     1      27.614   2.320  53.702  1.00  0.00     0.084 C 
HETATM   21  H22 UNL     1      29.337   2.262  52.295  1.00  0.00     0.164 HD
HETATM   22  C16 UNL     1      26.281   2.013  53.625  1.00  0.00    -0.004 C 
HETATM   23  C17 UNL     1      26.155   0.876  52.678  1.00  0.00     0.087 C 
ENDBRANCH   2  14
TORSDOF 5
ENDMDL
MODEL 9
REMARK VINA RESULT:      -6.9      1.625      2.393
REMARK  5 active torsions:
REMARK  status: ('A' for Active; 'I' for Inactive)
REMARK    1  A    between atoms: C1_1  and  C8_10 
REMARK    2  A    between atoms: C2_2  and  C3_3 
REMARK    3  A    between atoms: C3_3  and  N1_4 
REMARK    4  A    between atoms: C8_10  and  C9_11 
REMARK    5  A    between atoms: C10_12  and  C11_13 
ROOT
HETATM    1  C9  UNL     1      25.172   3.341  50.737  1.00  0.00    -0.021 C 
HETATM    2  C10 UNL     1      26.299   2.659  50.811  1.00  0.00     0.023 C 
ENDROOT
BRANCH   1   3
HETATM    3  C8  UNL     1      24.585   3.782  49.447  1.00  0.00     0.054 C 
BRANCH   3   4
HETATM    4  C1  UNL     1      23.518   2.865  48.989  1.00  0.00    -0.025 C 
HETATM    5  C2  UNL     1      22.356   2.738  49.581  1.00  0.00    -0.001 C 
BRANCH   5   6
HETATM    6  C3  UNL     1      21.778   3.387  50.770  1.00  0.00     0.299 C 
BRANCH   6   7
HETATM    7  N1  UNL     1      21.208   2.401  51.686  1.00  0.00     0.095 N 
HETATM    8  C4  UNL     1      22.308   1.806  52.429  1.00  0.00     0.302 C 
HETATM    9  C5  UNL     1      21.811   0.745  53.375  1.00  0.00     0.299 C 
HETATM   10  N2  UNL     1      21.014  -0.260  52.719  1.00  0.00     0.086 N 
HETATM   11  C6  UNL     1      19.980   0.346  51.903  1.00  0.00     0.299 C 
HETATM   12  H9  UNL     1      20.510  -0.798  53.472  1.00  0.00     0.315 HD
HETATM   13  C7  UNL     1      20.564   1.351  50.934  1.00  0.00     0.302 C 
ENDBRANCH   6   7
ENDBRANCH   5   6
ENDBRANCH   3   4
ENDBRANCH   1   3
BRANCH   2  14
HETATM   14  C11 UNL     1      26.814   2.260  52.115  1.00  0.00     0.032 C 
HETATM   15  N3  UNL     1      28.056   2.357  52.456  1.00  0.00    -0.290 NA
HETATM   16  C12 UNL     1      28.608   1.975  53.706  1.00  0.00     0.177 C 
HETATM   17  C13 UNL     1      29.374   0.686  53.640  1.00  0.00     0.012 C 
HETATM   18  C14 UNL     1      28.694  -0.263  54.272  1.00  0.00     0.085 C 
HETATM   19  N4  UNL     1      27.408  -0.270  54.964  1.00  0.00    -0.376 N 
HETATM   20  C15 UNL     1      26.495  -0.470  53.826  1.00  0.00     0.084 C 
HETATM   21  H22 UNL     1      27.101  -0.177  55.947  1.00  0.00     0.164 HD
HETATM   22  C16 UNL     1      25.764   0.242  52.911  1.00  0.00    -0.004 C 
HETATM   23  C17 UNL     1      25.996   1.679  53.203  1.00  0.00     0.087 C 
ENDBRANCH   2  14
TORSDOF 5
ENDMDL
