MODEL 1
REMARK VINA RESULT:      -9.0      0.000      0.000
REMARK  4 active torsions:
REMARK  status: ('A' for Active; 'I' for Inactive)
REMARK    1  A    between atoms: C10_11  and  C11_12 
REMARK    2  A    between atoms: C11_12  and  C12_13 
REMARK    3  A    between atoms: C12_13  and  C13_14 
REMARK    4  A    between atoms: C24_26  and  N2_27 
ROOT
HETATM    1  C1  UNL     1      29.367  -2.212  53.251  1.00  0.00     0.038 C 
HETATM    2  C2  UNL     1      29.301  -0.756  53.390  1.00  0.00    -0.008 C 
HETATM    3  C3  UNL     1      27.998  -0.407  53.406  1.00  0.00     0.005 C 
HETATM    4  C4  UNL     1      26.772  -1.241  53.310  1.00  0.00     0.021 C 
HETATM    5  C5  UNL     1      25.456  -1.007  53.345  1.00  0.00    -0.004 C 
HETATM    6  C6  UNL     1      24.638   0.185  53.504  1.00  0.00     0.116 C 
HETATM    7 CL1  UNL     1      22.954  -0.300  53.986  1.00  0.00    -0.120 Cl
HETATM    8  C7  UNL     1      24.591   1.172  52.420  1.00  0.00     0.081 C 
HETATM    9  C8  UNL     1      25.700   1.141  51.446  1.00  0.00     0.051 C 
HETATM   10  C9  UNL     1      26.602   2.352  51.581  1.00  0.00    -0.044 C 
HETATM   11  C10 UNL     1      27.040   3.327  50.801  1.00  0.00    -0.020 C 
HETATM   12  C23 UNL     1      26.982   2.219  53.053  1.00  0.00     0.215 C 
HETATM   13  N1  UNL     1      25.735   2.536  53.806  1.00  0.00    -0.252 NA
HETATM   14  C24 UNL     1      24.621   2.535  53.100  1.00  0.00     0.100 C 
HETATM   15  N3  UNL     1      27.395   0.904  53.413  1.00  0.00    -0.266 NA
HETATM   16  H26 UNL     1      27.936   0.885  52.486  1.00  0.00     0.130 HD
ENDROOT
BRANCH  11  17
HETATM   17  C11 UNL     1      26.625   3.387  49.377  1.00  0.00     0.032 C 
BRANCH  17  18
HETATM   18  C12 UNL     1      25.794   4.611  49.069  1.00  0.00     0.043 C 
BRANCH  18  19
HETATM   19  C13 UNL     1      24.393   4.298  49.357  1.00  0.00    -0.047 A 
HETATM   20  C14 UNL     1      23.822   3.063  49.129  1.00  0.00     0.008 A 
HETATM   21  C15 UNL     1      22.510   2.777  49.389  1.00  0.00     0.001 A 
HETATM   22  C16 UNL     1      21.679   3.732  49.903  1.00  0.00     0.012 A 
HETATM   23  C17 UNL     1      22.201   4.987  50.151  1.00  0.00    -0.025 A 
HETATM   24  C18 UNL     1      21.343   5.956  50.681  1.00  0.00     0.012 A 
HETATM   25  C22 UNL     1      23.515   5.245  49.882  1.00  0.00    -0.020 A 
HETATM   26  C19 UNL     1      21.869   7.225  50.937  1.00  0.00     0.001 A 
HETATM   27  C20 UNL     1      23.194   7.484  50.666  1.00  0.00     0.001 A 
HETATM   28  C21 UNL     1      24.009   6.505  50.144  1.00  0.00     0.013 A 
ENDBRANCH  18  19
ENDBRANCH  17  18
ENDBRANCH  11  17
BRANCH  14  29
HETATM   29  N2  UNL     1      23.917   3.758  53.245  1.00  0.00    -0.387 N 
HETATM   30  H24 UNL     1      24.314   4.581  52.745  1.00  0.00     0.157 HD
HETATM   31  H25 UNL     1      23.085   3.654  53.846  1.00  0.00     0.157 HD
ENDBRANCH  14  29
TORSDOF 4
ENDMDL
MODEL 2
REMARK VINA RESULT:      -8.9      3.113      7.049
REMARK  4 active torsions:
REMARK  status: ('A' for Active; 'I' for Inactive)
REMARK    1  A    between atoms: C10_11  and  C11_12 
REMARK    2  A    between atoms: C11_12  and  C12_13 
REMARK    3  A    between atoms: C12_13  and  C13_14 
REMARK    4  A    between atoms: C24_26  and  N2_27 
ROOT
HETATM    1  C1  UNL     1      18.677   1.831  49.893  1.00  0.00     0.038 C 
HETATM    2  C2  UNL     1      19.302   2.547  51.007  1.00  0.00    -0.008 C 
HETATM    3  C3  UNL     1      20.291   3.308  50.497  1.00  0.00     0.005 C 
HETATM    4  C4  UNL     1      20.758   3.478  49.097  1.00  0.00     0.021 C 
HETATM    5  C5  UNL     1      21.693   4.215  48.487  1.00  0.00    -0.004 C 
HETATM    6  C6  UNL     1      22.669   5.195  48.935  1.00  0.00     0.116 C 
HETATM    7 CL1  UNL     1      23.237   6.173  47.513  1.00  0.00    -0.120 Cl
HETATM    8  C7  UNL     1      23.815   4.751  49.736  1.00  0.00     0.081 C 
HETATM    9  C8  UNL     1      23.682   3.449  50.420  1.00  0.00     0.051 C 
HETATM   10  C9  UNL     1      23.572   3.613  51.923  1.00  0.00    -0.044 C 
HETATM   11  C10 UNL     1      24.214   3.176  52.995  1.00  0.00    -0.020 C 
HETATM   12  C23 UNL     1      22.366   4.544  51.989  1.00  0.00     0.215 C 
HETATM   13  N1  UNL     1      22.854   5.849  51.457  1.00  0.00    -0.252 NA
HETATM   14  C24 UNL     1      24.003   5.813  50.812  1.00  0.00     0.100 C 
HETATM   15  N3  UNL     1      21.276   4.115  51.177  1.00  0.00    -0.266 NA
HETATM   16  H26 UNL     1      21.486   3.122  51.525  1.00  0.00     0.130 HD
ENDROOT
BRANCH  11  17
HETATM   17  C11 UNL     1      25.380   2.270  52.850  1.00  0.00     0.032 C 
BRANCH  17  18
HETATM   18  C12 UNL     1      24.993   0.913  52.307  1.00  0.00     0.043 C 
BRANCH  18  19
HETATM   19  C13 UNL     1      24.451   0.117  53.411  1.00  0.00    -0.047 A 
HETATM   20  C14 UNL     1      25.214  -0.367  54.453  1.00  0.00     0.008 A 
HETATM   21  C15 UNL     1      24.705  -1.120  55.475  1.00  0.00     0.001 A 
HETATM   22  C16 UNL     1      23.377  -1.435  55.513  1.00  0.00     0.012 A 
HETATM   23  C17 UNL     1      22.567  -0.973  54.493  1.00  0.00    -0.025 A 
HETATM   24  C18 UNL     1      21.208  -1.298  54.543  1.00  0.00     0.012 A 
HETATM   25  C22 UNL     1      23.101  -0.224  53.484  1.00  0.00    -0.020 A 
HETATM   26  C19 UNL     1      20.385  -0.830  53.515  1.00  0.00     0.001 A 
HETATM   27  C20 UNL     1      20.925  -0.074  52.498  1.00  0.00     0.001 A 
HETATM   28  C21 UNL     1      22.268   0.226  52.482  1.00  0.00     0.013 A 
ENDBRANCH  18  19
ENDBRANCH  17  18
ENDBRANCH  11  17
BRANCH  14  29
HETATM   29  N2  UNL     1      24.929   6.742  51.355  1.00  0.00    -0.387 N 
HETATM   30  H24 UNL     1      24.684   7.150  52.281  1.00  0.00     0.157 HD
HETATM   31  H25 UNL     1      25.740   6.885  50.734  1.00  0.00     0.157 HD
ENDBRANCH  14  29
TORSDOF 4
ENDMDL
MODEL 3
REMARK VINA RESULT:      -8.8      2.785      7.619
REMARK  4 active torsions:
REMARK  status: ('A' for Active; 'I' for Inactive)
REMARK    1  A    between atoms: C10_11  and  C11_12 
REMARK    2  A    between atoms: C11_12  and  C12_13 
REMARK    3  A    between atoms: C12_13  and  C13_14 
REMARK    4  A    between atoms: C24_26  and  N2_27 
ROOT
HETATM    1  C1  UNL     1      27.574   7.368  48.915  1.00  0.00     0.038 C 
HETATM    2  C2  UNL     1      26.895   6.122  48.556  1.00  0.00    -0.008 C 
HETATM    3  C3  UNL     1      25.640   6.186  49.045  1.00  0.00     0.005 C 
HETATM    4  C4  UNL     1      24.956   7.257  49.816  1.00  0.00     0.021 C 
HETATM    5  C5  UNL     1      23.729   7.435  50.315  1.00  0.00    -0.004 C 
HETATM    6  C6  UNL     1      22.504   6.649  50.313  1.00  0.00     0.116 C 
HETATM    7 CL1  UNL     1      21.096   7.726  50.710  1.00  0.00    -0.120 Cl
HETATM    8  C7  UNL     1      22.442   5.418  51.108  1.00  0.00     0.081 C 
HETATM    9  C8  UNL     1      23.731   4.808  51.490  1.00  0.00     0.051 C 
HETATM   10  C9  UNL     1      23.976   3.504  50.756  1.00  0.00    -0.044 C 
HETATM   11  C10 UNL     1      24.229   2.245  51.075  1.00  0.00    -0.020 C 
HETATM   12  C23 UNL     1      23.853   3.998  49.318  1.00  0.00     0.215 C 
HETATM   13  N1  UNL     1      22.408   4.318  49.139  1.00  0.00    -0.252 NA
HETATM   14  C24 UNL     1      21.698   4.406  50.246  1.00  0.00     0.100 C 
HETATM   15  N3  UNL     1      24.604   5.182  49.061  1.00  0.00    -0.266 NA
HETATM   16  H26 UNL     1      25.388   4.739  49.646  1.00  0.00     0.130 HD
ENDROOT
BRANCH  11  17
HETATM   17  C11 UNL     1      24.334   1.842  52.499  1.00  0.00     0.032 C 
BRANCH  17  18
HETATM   18  C12 UNL     1      25.027   0.510  52.673  1.00  0.00     0.043 C 
BRANCH  18  19
HETATM   19  C13 UNL     1      26.418   0.764  53.055  1.00  0.00    -0.047 A 
HETATM   20  C14 UNL     1      26.905   2.011  53.388  1.00  0.00     0.008 A 
HETATM   21  C15 UNL     1      28.207   2.246  53.734  1.00  0.00     0.001 A 
HETATM   22  C16 UNL     1      29.113   1.225  53.765  1.00  0.00     0.012 A 
HETATM   23  C17 UNL     1      28.677  -0.046  53.441  1.00  0.00    -0.025 A 
HETATM   24  C18 UNL     1      29.612  -1.085  53.481  1.00  0.00     0.012 A 
HETATM   25  C22 UNL     1      27.370  -0.252  53.099  1.00  0.00    -0.020 A 
HETATM   26  C19 UNL     1      29.173  -2.371  53.156  1.00  0.00     0.001 A 
HETATM   27  C20 UNL     1      27.856  -2.579  52.813  1.00  0.00     0.001 A 
HETATM   28  C21 UNL     1      26.963  -1.531  52.784  1.00  0.00     0.013 A 
ENDBRANCH  18  19
ENDBRANCH  17  18
ENDBRANCH  11  17
BRANCH  14  29
HETATM   29  N2  UNL     1      20.564   3.554  50.201  1.00  0.00    -0.387 N 
HETATM   30  H24 UNL     1      19.751   3.836  50.789  1.00  0.00     0.157 HD
HETATM   31  H25 UNL     1      20.711   2.750  49.571  1.00  0.00     0.157 HD
ENDBRANCH  14  29
TORSDOF 4
ENDMDL
MODEL 4
REMARK VINA RESULT:      -8.6      3.608      7.869
REMARK  4 active torsions:
REMARK  status: ('A' for Active; 'I' for Inactive)
REMARK    1  A    between atoms: C10_11  and  C11_12 
REMARK    2  A    between atoms: C11_12  and  C12_13 
REMARK    3  A    between atoms: C12_13  and  C13_14 
REMARK    4  A    between atoms: C24_26  and  N2_27 
ROOT
HETATM    1  C1  UNL     1      24.766   8.123  44.044  1.00  0.00     0.038 C 
HETATM    2  C2  UNL     1      23.791   7.796  45.085  1.00  0.00    -0.008 C 
HETATM    3  C3  UNL     1      24.422   7.877  46.274  1.00  0.00     0.005 C 
HETATM    4  C4  UNL     1      25.830   8.220  46.600  1.00  0.00     0.021 C 
HETATM    5  C5  UNL     1      26.541   8.357  47.724  1.00  0.00    -0.004 C 
HETATM    6  C6  UNL     1      26.239   8.237  49.142  1.00  0.00     0.116 C 
HETATM    7 CL1  UNL     1      27.531   9.073  50.107  1.00  0.00    -0.120 Cl
HETATM    8  C7  UNL     1      25.962   6.911  49.706  1.00  0.00     0.081 C 
HETATM    9  C8  UNL     1      25.558   5.857  48.754  1.00  0.00     0.051 C 
HETATM   10  C9  UNL     1      24.101   5.474  48.923  1.00  0.00    -0.044 C 
HETATM   11  C10 UNL     1      23.410   4.371  49.161  1.00  0.00    -0.020 C 
HETATM   12  C23 UNL     1      23.457   6.845  48.736  1.00  0.00     0.215 C 
HETATM   13  N1  UNL     1      23.834   7.620  49.953  1.00  0.00    -0.252 NA
HETATM   14  C24 UNL     1      24.808   7.110  50.680  1.00  0.00     0.100 C 
HETATM   15  N3  UNL     1      23.945   7.546  47.595  1.00  0.00    -0.266 NA
HETATM   16  H26 UNL     1      23.898   6.610  47.074  1.00  0.00     0.130 HD
ENDROOT
BRANCH  11  17
HETATM   17  C11 UNL     1      24.109   3.074  49.330  1.00  0.00     0.032 C 
BRANCH  17  18
HETATM   18  C12 UNL     1      24.947   3.029  50.588  1.00  0.00     0.043 C 
BRANCH  18  19
HETATM   19  C13 UNL     1      24.420   1.969  51.450  1.00  0.00    -0.047 A 
HETATM   20  C14 UNL     1      23.074   1.751  51.662  1.00  0.00     0.008 A 
HETATM   21  C15 UNL     1      22.587   0.767  52.477  1.00  0.00     0.001 A 
HETATM   22  C16 UNL     1      23.437  -0.072  53.139  1.00  0.00     0.012 A 
HETATM   23  C17 UNL     1      24.796   0.102  52.962  1.00  0.00    -0.025 A 
HETATM   24  C18 UNL     1      25.657  -0.765  53.641  1.00  0.00     0.012 A 
HETATM   25  C22 UNL     1      25.256   1.093  52.142  1.00  0.00    -0.020 A 
HETATM   26  C19 UNL     1      27.033  -0.594  53.461  1.00  0.00     0.001 A 
HETATM   27  C20 UNL     1      27.495   0.405  52.634  1.00  0.00     0.001 A 
HETATM   28  C21 UNL     1      26.617   1.241  51.981  1.00  0.00     0.013 A 
ENDBRANCH  18  19
ENDBRANCH  17  18
ENDBRANCH  11  17
BRANCH  14  29
HETATM   29  N2  UNL     1      24.412   6.950  52.034  1.00  0.00    -0.387 N 
HETATM   30  H24 UNL     1      24.014   7.793  52.500  1.00  0.00     0.157 HD
HETATM   31  H25 UNL     1      24.582   5.991  52.374  1.00  0.00     0.157 HD
ENDBRANCH  14  29
TORSDOF 4
ENDMDL
MODEL 5
REMARK VINA RESULT:      -8.5      2.869      8.064
REMARK  4 active torsions:
REMARK  status: ('A' for Active; 'I' for Inactive)
REMARK    1  A    between atoms: C10_11  and  C11_12 
REMARK    2  A    between atoms: C11_12  and  C12_13 
REMARK    3  A    between atoms: C12_13  and  C13_14 
REMARK    4  A    between atoms: C24_26  and  N2_27 
ROOT
HETATM    1  C1  UNL     1      19.158   3.228  47.021  1.00  0.00     0.038 C 
HETATM    2  C2  UNL     1      19.431   3.357  48.453  1.00  0.00    -0.008 C 
HETATM    3  C3  UNL     1      20.478   4.195  48.594  1.00  0.00     0.005 C 
HETATM    4  C4  UNL     1      21.286   4.914  47.575  1.00  0.00     0.021 C 
HETATM    5  C5  UNL     1      22.307   5.776  47.605  1.00  0.00    -0.004 C 
HETATM    6  C6  UNL     1      23.079   6.404  48.666  1.00  0.00     0.116 C 
HETATM    7 CL1  UNL     1      23.948   7.855  48.001  1.00  0.00    -0.120 Cl
HETATM    8  C7  UNL     1      23.997   5.586  49.466  1.00  0.00     0.081 C 
HETATM    9  C8  UNL     1      23.758   4.129  49.466  1.00  0.00     0.051 C 
HETATM   10  C9  UNL     1      23.249   3.643  50.809  1.00  0.00    -0.044 C 
HETATM   11  C10 UNL     1      23.610   2.749  51.716  1.00  0.00    -0.020 C 
HETATM   12  C23 UNL     1      22.021   4.536  50.952  1.00  0.00     0.215 C 
HETATM   13  N1  UNL     1      22.562   5.907  51.177  1.00  0.00    -0.252 NA
HETATM   14  C24 UNL     1      23.840   6.072  50.901  1.00  0.00     0.100 C 
HETATM   15  N3  UNL     1      21.206   4.567  49.783  1.00  0.00    -0.266 NA
HETATM   16  H26 UNL     1      21.369   3.509  49.714  1.00  0.00     0.130 HD
ENDROOT
BRANCH  11  17
HETATM   17  C11 UNL     1      24.819   1.916  51.504  1.00  0.00     0.032 C 
BRANCH  17  18
HETATM   18  C12 UNL     1      25.055   0.941  52.634  1.00  0.00     0.043 C 
BRANCH  18  19
HETATM   19  C13 UNL     1      26.468   1.014  53.014  1.00  0.00    -0.047 A 
HETATM   20  C14 UNL     1      27.106   2.184  53.367  1.00  0.00     0.008 A 
HETATM   21  C15 UNL     1      28.429   2.250  53.710  1.00  0.00     0.001 A 
HETATM   22  C16 UNL     1      29.202   1.124  53.719  1.00  0.00     0.012 A 
HETATM   23  C17 UNL     1      28.611  -0.077  53.374  1.00  0.00    -0.025 A 
HETATM   24  C18 UNL     1      29.409  -1.224  53.391  1.00  0.00     0.012 A 
HETATM   25  C22 UNL     1      27.287  -0.113  53.036  1.00  0.00    -0.020 A 
HETATM   26  C19 UNL     1      28.814  -2.440  53.046  1.00  0.00     0.001 A 
HETATM   27  C20 UNL     1      27.480  -2.477  52.705  1.00  0.00     0.001 A 
HETATM   28  C21 UNL     1      26.724  -1.326  52.699  1.00  0.00     0.013 A 
ENDBRANCH  18  19
ENDBRANCH  17  18
ENDBRANCH  11  17
BRANCH  14  29
HETATM   29  N2  UNL     1      24.541   6.617  52.008  1.00  0.00    -0.387 N 
HETATM   30  H24 UNL     1      24.989   5.932  52.653  1.00  0.00     0.157 HD
HETATM   31  H25 UNL     1      24.506   7.648  52.017  1.00  0.00     0.157 HD
ENDBRANCH  14  29
TORSDOF 4
ENDMDL
MODEL 6
REMARK VINA RESULT:      -8.4      3.168      7.261
REMARK  4 active torsions:
REMARK  status: ('A' for Active; 'I' for Inactive)
REMARK    1  A    between atoms: C10_11  and  C11_12 
REMARK    2  A    between atoms: C11_12  and  C12_13 
REMARK    3  A    between atoms: C12_13  and  C13_14 
REMARK    4  A    between atoms: C24_26  and  N2_27 
ROOT
HETATM    1  C1  UNL     1      22.804   9.238  48.246  1.00  0.00     0.038 C 
HETATM    2  C2  UNL     1      22.536   8.478  49.468  1.00  0.00    -0.008 C 
HETATM    3  C3  UNL     1      23.390   7.436  49.495  1.00  0.00     0.005 C 
HETATM    4  C4  UNL     1      24.447   7.026  48.533  1.00  0.00     0.021 C 
HETATM    5  C5  UNL     1      25.355   6.046  48.477  1.00  0.00    -0.004 C 
HETATM    6  C6  UNL     1      25.717   4.942  49.352  1.00  0.00     0.116 C 
HETATM    7 CL1  UNL     1      27.373   4.340  48.909  1.00  0.00    -0.120 Cl
HETATM    8  C7  UNL     1      24.791   3.814  49.504  1.00  0.00     0.081 C 
HETATM    9  C8  UNL     1      23.381   4.060  49.140  1.00  0.00     0.051 C 
HETATM   10  C9  UNL     1      22.480   4.072  50.360  1.00  0.00    -0.044 C 
HETATM   11  C10 UNL     1      21.399   3.430  50.772  1.00  0.00    -0.020 C 
HETATM   12  C23 UNL     1      23.174   5.159  51.175  1.00  0.00     0.215 C 
HETATM   13  N1  UNL     1      24.465   4.552  51.611  1.00  0.00    -0.252 NA
HETATM   14  C24 UNL     1      24.822   3.450  50.983  1.00  0.00     0.100 C 
HETATM   15  N3  UNL     1      23.467   6.331  50.420  1.00  0.00    -0.266 NA
HETATM   16  H26 UNL     1      22.495   6.219  49.980  1.00  0.00     0.130 HD
ENDROOT
BRANCH  11  17
HETATM   17  C11 UNL     1      20.781   2.385  49.920  1.00  0.00     0.032 C 
BRANCH  17  18
HETATM   18  C12 UNL     1      21.359   1.012  50.179  1.00  0.00     0.043 C 
BRANCH  18  19
HETATM   19  C13 UNL     1      20.598   0.393  51.266  1.00  0.00    -0.047 A 
HETATM   20  C14 UNL     1      19.226   0.252  51.257  1.00  0.00     0.008 A 
HETATM   21  C15 UNL     1      18.517  -0.317  52.280  1.00  0.00     0.001 A 
HETATM   22  C16 UNL     1      19.157  -0.786  53.392  1.00  0.00     0.012 A 
HETATM   23  C17 UNL     1      20.533  -0.669  53.452  1.00  0.00    -0.025 A 
HETATM   24  C18 UNL     1      21.178  -1.156  54.593  1.00  0.00     0.012 A 
HETATM   25  C22 UNL     1      21.215  -0.097  52.416  1.00  0.00    -0.020 A 
HETATM   26  C19 UNL     1      22.569  -1.044  54.655  1.00  0.00     0.001 A 
HETATM   27  C20 UNL     1      23.256  -0.467  53.610  1.00  0.00     0.001 A 
HETATM   28  C21 UNL     1      22.587   0.002  52.502  1.00  0.00     0.013 A 
ENDBRANCH  18  19
ENDBRANCH  17  18
ENDBRANCH  11  17
BRANCH  14  29
HETATM   29  N2  UNL     1      25.084   2.397  51.898  1.00  0.00    -0.387 N 
HETATM   30  H24 UNL     1      24.343   1.670  51.989  1.00  0.00     0.157 HD
HETATM   31  H25 UNL     1      26.001   2.506  52.357  1.00  0.00     0.157 HD
ENDBRANCH  14  29
TORSDOF 4
ENDMDL
MODEL 7
REMARK VINA RESULT:      -8.3      3.602      7.879
REMARK  4 active torsions:
REMARK  status: ('A' for Active; 'I' for Inactive)
REMARK    1  A    between atoms: C10_11  and  C11_12 
REMARK    2  A    between atoms: C11_12  and  C12_13 
REMARK    3  A    between atoms: C12_13  and  C13_14 
REMARK    4  A    between atoms: C24_26  and  N2_27 
ROOT
HETATM    1  C1  UNL     1      23.642   7.581  44.266  1.00  0.00     0.038 C 
HETATM    2  C2  UNL     1      22.805   7.366  45.448  1.00  0.00    -0.008 C 
HETATM    3  C3  UNL     1      23.598   7.471  46.533  1.00  0.00     0.005 C 
HETATM    4  C4  UNL     1      25.054   7.747  46.643  1.00  0.00     0.021 C 
HETATM    5  C5  UNL     1      25.921   7.900  47.650  1.00  0.00    -0.004 C 
HETATM    6  C6  UNL     1      25.812   7.870  49.101  1.00  0.00     0.116 C 
HETATM    7 CL1  UNL     1      27.267   8.677  49.831  1.00  0.00    -0.120 Cl
HETATM    8  C7  UNL     1      25.549   6.593  49.774  1.00  0.00     0.081 C 
HETATM    9  C8  UNL     1      24.964   5.517  48.949  1.00  0.00     0.051 C 
HETATM   10  C9  UNL     1      23.526   5.230  49.337  1.00  0.00    -0.044 C 
HETATM   11  C10 UNL     1      22.819   4.183  49.731  1.00  0.00    -0.020 C 
HETATM   12  C23 UNL     1      22.934   6.624  49.159  1.00  0.00     0.215 C 
HETATM   13  N1  UNL     1      23.515   7.437  50.266  1.00  0.00    -0.252 NA
HETATM   14  C24 UNL     1      24.553   6.909  50.883  1.00  0.00     0.100 C 
HETATM   15  N3  UNL     1      23.293   7.237  47.923  1.00  0.00    -0.266 NA
HETATM   16  H26 UNL     1      23.126   6.280  47.469  1.00  0.00     0.130 HD
ENDROOT
BRANCH  11  17
HETATM   17  C11 UNL     1      23.468   2.857  49.880  1.00  0.00     0.032 C 
BRANCH  17  18
HETATM   18  C12 UNL     1      22.585   1.858  50.591  1.00  0.00     0.043 C 
BRANCH  18  19
HETATM   19  C13 UNL     1      23.368   1.233  51.659  1.00  0.00    -0.047 A 
HETATM   20  C14 UNL     1      24.732   1.387  51.799  1.00  0.00     0.008 A 
HETATM   21  C15 UNL     1      25.462   0.793  52.791  1.00  0.00     0.001 A 
HETATM   22  C16 UNL     1      24.854  -0.004  53.719  1.00  0.00     0.012 A 
HETATM   23  C17 UNL     1      23.488  -0.191  53.625  1.00  0.00    -0.025 A 
HETATM   24  C18 UNL     1      22.876  -1.006  54.582  1.00  0.00     0.012 A 
HETATM   25  C22 UNL     1      22.784   0.414  52.624  1.00  0.00    -0.020 A 
HETATM   26  C19 UNL     1      21.494  -1.194  54.493  1.00  0.00     0.001 A 
HETATM   27  C20 UNL     1      20.785  -0.583  53.483  1.00  0.00     0.001 A 
HETATM   28  C21 UNL     1      21.422   0.213  52.558  1.00  0.00     0.013 A 
ENDBRANCH  18  19
ENDBRANCH  17  18
ENDBRANCH  11  17
BRANCH  14  29
HETATM   29  N2  UNL     1      24.341   6.843  52.285  1.00  0.00    -0.387 N 
HETATM   30  H24 UNL     1      23.351   6.764  52.599  1.00  0.00     0.157 HD
HETATM   31  H25 UNL     1      25.228   6.884  52.810  1.00  0.00     0.157 HD
ENDBRANCH  14  29
TORSDOF 4
ENDMDL
MODEL 8
REMARK VINA RESULT:      -7.8      8.097      9.674
REMARK  4 active torsions:
REMARK  status: ('A' for Active; 'I' for Inactive)
REMARK    1  A    between atoms: C10_11  and  C11_12 
REMARK    2  A    between atoms: C11_12  and  C12_13 
REMARK    3  A    between atoms: C12_13  and  C13_14 
REMARK    4  A    between atoms: C24_26  and  N2_27 
ROOT
HETATM    1  C1  UNL     1      34.643   2.858  46.828  1.00  0.00     0.038 C 
HETATM    2  C2  UNL     1      34.821   4.023  47.696  1.00  0.00    -0.008 C 
HETATM    3  C3  UNL     1      33.615   4.609  47.842  1.00  0.00     0.005 C 
HETATM    4  C4  UNL     1      32.288   4.244  47.284  1.00  0.00     0.021 C 
HETATM    5  C5  UNL     1      31.046   4.728  47.386  1.00  0.00    -0.004 C 
HETATM    6  C6  UNL     1      30.441   5.837  48.108  1.00  0.00     0.116 C 
HETATM    7 CL1  UNL     1      28.644   5.583  48.207  1.00  0.00    -0.120 Cl
HETATM    8  C7  UNL     1      30.737   7.211  47.690  1.00  0.00     0.081 C 
HETATM    9  C8  UNL     1      31.957   7.410  46.881  1.00  0.00     0.051 C 
HETATM   10  C9  UNL     1      33.031   8.147  47.657  1.00  0.00    -0.044 C 
HETATM   11  C10 UNL     1      33.751   9.248  47.509  1.00  0.00    -0.020 C 
HETATM   12  C23 UNL     1      33.155   7.218  48.860  1.00  0.00     0.215 C 
HETATM   13  N1  UNL     1      31.886   7.400  49.622  1.00  0.00    -0.252 NA
HETATM   14  C24 UNL     1      30.910   8.007  48.977  1.00  0.00     0.100 C 
HETATM   15  N3  UNL     1      33.265   5.843  48.504  1.00  0.00    -0.266 NA
HETATM   16  H26 UNL     1      33.927   6.161  47.721  1.00  0.00     0.130 HD
ENDROOT
BRANCH  11  17
HETATM   17  C11 UNL     1      33.573  10.100  46.308  1.00  0.00     0.032 C 
BRANCH  17  18
HETATM   18  C12 UNL     1      32.792  11.360  46.603  1.00  0.00     0.043 C 
BRANCH  18  19
HETATM   19  C13 UNL     1      31.378  11.096  46.330  1.00  0.00    -0.047 A 
HETATM   20  C14 UNL     1      30.927  10.407  45.223  1.00  0.00     0.008 A 
HETATM   21  C15 UNL     1      29.605  10.172  44.966  1.00  0.00     0.001 A 
HETATM   22  C16 UNL     1      28.639  10.623  45.820  1.00  0.00     0.012 A 
HETATM   23  C17 UNL     1      29.037  11.319  46.946  1.00  0.00    -0.025 A 
HETATM   24  C18 UNL     1      28.041  11.773  47.816  1.00  0.00     0.012 A 
HETATM   25  C22 UNL     1      30.365  11.539  47.178  1.00  0.00    -0.020 A 
HETATM   26  C19 UNL     1      28.440  12.474  48.957  1.00  0.00     0.001 A 
HETATM   27  C20 UNL     1      29.778  12.695  49.191  1.00  0.00     0.001 A 
HETATM   28  C21 UNL     1      30.732  12.233  48.312  1.00  0.00     0.013 A 
ENDBRANCH  18  19
ENDBRANCH  17  18
ENDBRANCH  11  17
BRANCH  14  29
HETATM   29  N2  UNL     1      30.424   9.123  49.707  1.00  0.00    -0.387 N 
HETATM   30  H24 UNL     1      30.678   9.158  50.717  1.00  0.00     0.157 HD
HETATM   31  H25 UNL     1      29.871   9.760  49.114  1.00  0.00     0.157 HD
ENDBRANCH  14  29
TORSDOF 4
ENDMDL
MODEL 9
REMARK VINA RESULT:      -7.7      4.493      8.389
REMARK  4 active torsions:
REMARK  status: ('A' for Active; 'I' for Inactive)
REMARK    1  A    between atoms: C10_11  and  C11_12 
REMARK    2  A    between atoms: C11_12  and  C12_13 
REMARK    3  A    between atoms: C12_13  and  C13_14 
REMARK    4  A    between atoms: C24_26  and  N2_27 
ROOT
HETATM    1  C1  UNL     1      23.569   7.692  43.857  1.00  0.00     0.038 C 
HETATM    2  C2  UNL     1      23.257   7.778  45.285  1.00  0.00    -0.008 C 
HETATM    3  C3  UNL     1      24.393   8.112  45.931  1.00  0.00     0.005 C 
HETATM    4  C4  UNL     1      25.761   8.371  45.411  1.00  0.00     0.021 C 
HETATM    5  C5  UNL     1      26.931   8.732  45.948  1.00  0.00    -0.004 C 
HETATM    6  C6  UNL     1      27.380   9.043  47.296  1.00  0.00     0.116 C 
HETATM    7 CL1  UNL     1      28.946   9.962  47.213  1.00  0.00    -0.120 Cl
HETATM    8  C7  UNL     1      27.476   7.965  48.286  1.00  0.00     0.081 C 
HETATM    9  C8  UNL     1      26.697   6.741  48.012  1.00  0.00     0.051 C 
HETATM   10  C9  UNL     1      25.535   6.588  48.974  1.00  0.00    -0.044 C 
HETATM   11  C10 UNL     1      25.101   5.679  49.832  1.00  0.00    -0.020 C 
HETATM   12  C23 UNL     1      24.827   7.916  48.729  1.00  0.00     0.215 C 
HETATM   13  N1  UNL     1      25.727   8.950  49.317  1.00  0.00    -0.252 NA
HETATM   14  C24 UNL     1      26.954   8.554  49.590  1.00  0.00     0.100 C 
HETATM   15  N3  UNL     1      24.652   8.216  47.346  1.00  0.00    -0.266 NA
HETATM   16  H26 UNL     1      24.390   7.184  47.217  1.00  0.00     0.130 HD
ENDROOT
BRANCH  11  17
HETATM   17  C11 UNL     1      25.845   4.408  50.014  1.00  0.00     0.032 C 
BRANCH  17  18
HETATM   18  C12 UNL     1      24.930   3.207  50.079  1.00  0.00     0.043 C 
BRANCH  18  19
HETATM   19  C13 UNL     1      25.426   2.311  51.128  1.00  0.00    -0.047 A 
HETATM   20  C14 UNL     1      26.749   2.239  51.510  1.00  0.00     0.008 A 
HETATM   21  C15 UNL     1      27.209   1.394  52.482  1.00  0.00     0.001 A 
HETATM   22  C16 UNL     1      26.353   0.556  53.138  1.00  0.00     0.012 A 
HETATM   23  C17 UNL     1      25.015   0.589  52.793  1.00  0.00    -0.025 A 
HETATM   24  C18 UNL     1      24.146  -0.269  53.474  1.00  0.00     0.012 A 
HETATM   25  C22 UNL     1      24.582   1.444  51.819  1.00  0.00    -0.020 A 
HETATM   26  C19 UNL     1      22.792  -0.235  53.130  1.00  0.00     0.001 A 
HETATM   27  C20 UNL     1      22.356   0.626  52.149  1.00  0.00     0.001 A 
HETATM   28  C21 UNL     1      23.241   1.457  51.499  1.00  0.00     0.013 A 
ENDBRANCH  18  19
ENDBRANCH  17  18
ENDBRANCH  11  17
BRANCH  14  29
HETATM   29  N2  UNL     1      27.293   8.821  50.943  1.00  0.00    -0.387 N 
HETATM   30  H24 UNL     1      27.002   8.105  51.641  1.00  0.00     0.157 HD
HETATM   31  H25 UNL     1      27.795   9.716  51.044  1.00  0.00     0.157 HD
ENDBRANCH  14  29
TORSDOF 4
ENDMDL
