MODEL 1
REMARK VINA RESULT:      -9.7      0.000      0.000
REMARK  2 active torsions:
REMARK  status: ('A' for Active; 'I' for Inactive)
REMARK    1  A    between atoms: C2_2  and  C3_3 
REMARK       I    between atoms: C3_3  and  N1_5 
REMARK    2  A    between atoms: N1_5  and  C4_6 
ROOT
HETATM    1  C4  UNL     1      23.725  -0.674  54.144  1.00  0.00     0.035 A 
HETATM    2  C5  UNL     1      24.568  -0.840  55.220  1.00  0.00     0.032 A 
HETATM    3  C6  UNL     1      25.781  -0.214  55.222  1.00  0.00     0.035 A 
HETATM    4  C7  UNL     1      26.114   0.563  54.131  1.00  0.00     0.070 A 
HETATM    5  C8  UNL     1      25.390   0.813  53.001  1.00  0.00     0.019 A 
HETATM    6  C9  UNL     1      24.169   0.119  53.129  1.00  0.00     0.045 A 
HETATM    7  C10 UNL     1      25.402   1.382  51.764  1.00  0.00     0.043 C 
HETATM    8  N2  UNL     1      24.107   1.191  51.148  1.00  0.00    -0.391 N 
HETATM    9  C11 UNL     1      22.931   1.884  50.783  1.00  0.00     0.121 C 
HETATM   10  C12 UNL     1      22.846   2.717  49.555  1.00  0.00     0.046 C 
HETATM   11  C13 UNL     1      21.526   3.533  49.689  1.00  0.00     0.169 C 
HETATM   12  O2  UNL     1      21.585   4.334  50.764  1.00  0.00    -0.387 OA
HETATM   13  C14 UNL     1      22.279   5.477  50.833  1.00  0.00     0.195 C 
HETATM   14  C15 UNL     1      23.627   5.447  50.253  1.00  0.00    -0.001 C 
HETATM   15  C16 UNL     1      24.761   5.631  49.561  1.00  0.00    -0.002 C 
HETATM   16  C17 UNL     1      25.882   5.969  48.734  1.00  0.00    -0.004 C 
HETATM   17  C18 UNL     1      26.922   5.103  48.923  1.00  0.00    -0.021 C 
HETATM   18  C19 UNL     1      26.186   4.305  49.876  1.00  0.00     0.049 C 
HETATM   19  C20 UNL     1      26.541   3.233  50.519  1.00  0.00     0.011 C 
HETATM   20  C21 UNL     1      26.689   2.012  51.368  1.00  0.00     0.160 C 
HETATM   21  N3  UNL     1      27.648   2.263  52.307  1.00  0.00    -0.271 NA
HETATM   22  C22 UNL     1      27.994   1.986  53.477  1.00  0.00     0.228 C 
HETATM   23  N4  UNL     1      27.267   1.121  54.307  1.00  0.00    -0.242 NA
HETATM   24  H10 UNL     1      24.375   0.166  50.985  1.00  0.00     0.159 HD
ENDROOT
BRANCH   1  25
HETATM   25  N1  UNL     1      22.482  -1.363  54.154  1.00  0.00    -0.327 N 
HETATM   26  C3  UNL     1      21.545  -0.325  53.926  1.00  0.00     0.221 C 
HETATM   27  O1  UNL     1      21.982   0.879  53.781  1.00  0.00    -0.273 OA
HETATM   28  H6  UNL     1      21.958  -2.243  54.255  1.00  0.00     0.169 HD
BRANCH  26  29
HETATM   29  C2  UNL     1      20.073  -0.192  53.793  1.00  0.00     0.098 C 
HETATM   30  C1  UNL     1      19.702   0.008  52.323  1.00  0.00     0.014 C 
ENDBRANCH  26  29
ENDBRANCH   1  25
TORSDOF 2
ENDMDL
MODEL 2
REMARK VINA RESULT:      -9.4      1.938      2.673
REMARK  2 active torsions:
REMARK  status: ('A' for Active; 'I' for Inactive)
REMARK    1  A    between atoms: C2_2  and  C3_3 
REMARK       I    between atoms: C3_3  and  N1_5 
REMARK    2  A    between atoms: N1_5  and  C4_6 
ROOT
HETATM    1  C4  UNL     1      21.871   1.561  52.526  1.00  0.00     0.035 A 
HETATM    2  C5  UNL     1      22.435   0.713  53.454  1.00  0.00     0.032 A 
HETATM    3  C6  UNL     1      23.789   0.538  53.462  1.00  0.00     0.035 A 
HETATM    4  C7  UNL     1      24.540   1.222  52.528  1.00  0.00     0.070 A 
HETATM    5  C8  UNL     1      24.124   2.083  51.554  1.00  0.00     0.019 A 
HETATM    6  C9  UNL     1      22.720   2.179  51.659  1.00  0.00     0.045 A 
HETATM    7  C10 UNL     1      24.498   2.814  50.468  1.00  0.00     0.043 C 
HETATM    8  N2  UNL     1      23.344   3.523  49.960  1.00  0.00    -0.391 N 
HETATM    9  C11 UNL     1      22.778   4.815  49.869  1.00  0.00     0.121 C 
HETATM   10  C12 UNL     1      23.221   5.808  48.856  1.00  0.00     0.046 C 
HETATM   11  C13 UNL     1      22.589   7.164  49.290  1.00  0.00     0.169 C 
HETATM   12  O2  UNL     1      23.053   7.525  50.496  1.00  0.00    -0.387 OA
HETATM   13  C14 UNL     1      24.268   8.035  50.730  1.00  0.00     0.195 C 
HETATM   14  C15 UNL     1      25.383   7.394  50.023  1.00  0.00    -0.001 C 
HETATM   15  C16 UNL     1      26.445   7.068  49.273  1.00  0.00    -0.002 C 
HETATM   16  C17 UNL     1      27.589   6.902  48.425  1.00  0.00    -0.004 C 
HETATM   17  C18 UNL     1      27.952   5.589  48.324  1.00  0.00    -0.021 C 
HETATM   18  C19 UNL     1      26.860   5.143  49.159  1.00  0.00     0.049 C 
HETATM   19  C20 UNL     1      26.525   3.942  49.526  1.00  0.00     0.011 C 
HETATM   20  C21 UNL     1      25.928   2.691  50.083  1.00  0.00     0.160 C 
HETATM   21  N3  UNL     1      26.828   2.143  50.952  1.00  0.00    -0.271 NA
HETATM   22  C22 UNL     1      26.917   1.461  51.997  1.00  0.00     0.228 C 
HETATM   23  N4  UNL     1      25.800   0.985  52.699  1.00  0.00    -0.242 NA
HETATM   24  H10 UNL     1      22.992   2.592  49.562  1.00  0.00     0.159 HD
ENDROOT
BRANCH   1  25
HETATM   25  N1  UNL     1      20.457   1.701  52.519  1.00  0.00    -0.327 N 
HETATM   26  C3  UNL     1      20.054   0.778  51.521  1.00  0.00     0.221 C 
HETATM   27  O1  UNL     1      20.962   0.098  50.910  1.00  0.00    -0.273 OA
HETATM   28  H6  UNL     1      19.610   2.155  52.887  1.00  0.00     0.169 HD
BRANCH  26  29
HETATM   29  C2  UNL     1      18.785   0.317  50.910  1.00  0.00     0.098 C 
HETATM   30  C1  UNL     1      17.998  -0.520  51.920  1.00  0.00     0.014 C 
ENDBRANCH  26  29
ENDBRANCH   1  25
TORSDOF 2
ENDMDL
MODEL 3
REMARK VINA RESULT:      -9.3      2.264      6.257
REMARK  2 active torsions:
REMARK  status: ('A' for Active; 'I' for Inactive)
REMARK    1  A    between atoms: C2_2  and  C3_3 
REMARK       I    between atoms: C3_3  and  N1_5 
REMARK    2  A    between atoms: N1_5  and  C4_6 
ROOT
HETATM    1  C4  UNL     1      24.912   5.267  49.670  1.00  0.00     0.035 A 
HETATM    2  C5  UNL     1      26.162   4.926  49.203  1.00  0.00     0.032 A 
HETATM    3  C6  UNL     1      26.773   3.806  49.687  1.00  0.00     0.035 A 
HETATM    4  C7  UNL     1      26.106   3.059  50.635  1.00  0.00     0.070 A 
HETATM    5  C8  UNL     1      24.878   3.274  51.191  1.00  0.00     0.019 A 
HETATM    6  C9  UNL     1      24.358   4.447  50.605  1.00  0.00     0.045 A 
HETATM    7  C10 UNL     1      23.991   2.871  52.143  1.00  0.00     0.043 C 
HETATM    8  N2  UNL     1      22.807   3.699  52.060  1.00  0.00    -0.391 N 
HETATM    9  C11 UNL     1      21.453   3.674  51.661  1.00  0.00     0.121 C 
HETATM   10  C12 UNL     1      20.383   3.085  52.509  1.00  0.00     0.046 C 
HETATM   11  C13 UNL     1      19.129   2.977  51.592  1.00  0.00     0.169 C 
HETATM   12  O2  UNL     1      19.379   2.155  50.561  1.00  0.00    -0.387 OA
HETATM   13  C14 UNL     1      19.419   0.819  50.636  1.00  0.00     0.195 C 
HETATM   14  C15 UNL     1      20.115   0.261  51.801  1.00  0.00    -0.001 C 
HETATM   15  C16 UNL     1      20.502  -0.376  52.916  1.00  0.00    -0.002 C 
HETATM   16  C17 UNL     1      20.742  -1.131  54.110  1.00  0.00    -0.004 C 
HETATM   17  C18 UNL     1      21.982  -0.875  54.624  1.00  0.00    -0.021 C 
HETATM   18  C19 UNL     1      22.292   0.093  53.597  1.00  0.00     0.049 C 
HETATM   19  C20 UNL     1      23.359   0.814  53.423  1.00  0.00     0.011 C 
HETATM   20  C21 UNL     1      24.448   1.746  53.000  1.00  0.00     0.160 C 
HETATM   21  N3  UNL     1      25.527   0.996  52.631  1.00  0.00    -0.271 NA
HETATM   22  C22 UNL     1      26.513   0.978  51.859  1.00  0.00     0.228 C 
HETATM   23  N4  UNL     1      26.795   2.011  50.954  1.00  0.00    -0.242 NA
HETATM   24  H10 UNL     1      23.371   4.487  52.520  1.00  0.00     0.159 HD
ENDROOT
BRANCH   1  25
HETATM   25  N1  UNL     1      24.312   6.456  49.173  1.00  0.00    -0.327 N 
HETATM   26  C3  UNL     1      23.306   5.962  48.305  1.00  0.00     0.221 C 
HETATM   27  O1  UNL     1      23.178   4.687  48.174  1.00  0.00    -0.273 OA
HETATM   28  H6  UNL     1      24.275   7.484  49.145  1.00  0.00     0.169 HD
BRANCH  26  29
HETATM   29  C2  UNL     1      22.258   6.523  47.418  1.00  0.00     0.098 C 
HETATM   30  C1  UNL     1      21.991   5.560  46.259  1.00  0.00     0.014 C 
ENDBRANCH  26  29
ENDBRANCH   1  25
TORSDOF 2
ENDMDL
MODEL 4
REMARK VINA RESULT:      -9.2      2.762      7.822
REMARK  2 active torsions:
REMARK  status: ('A' for Active; 'I' for Inactive)
REMARK    1  A    between atoms: C2_2  and  C3_3 
REMARK       I    between atoms: C3_3  and  N1_5 
REMARK    2  A    between atoms: N1_5  and  C4_6 
ROOT
HETATM    1  C4  UNL     1      25.786   7.051  50.047  1.00  0.00     0.035 A 
HETATM    2  C5  UNL     1      24.895   8.093  50.178  1.00  0.00     0.032 A 
HETATM    3  C6  UNL     1      23.590   7.823  50.474  1.00  0.00     0.035 A 
HETATM    4  C7  UNL     1      23.217   6.503  50.626  1.00  0.00     0.070 A 
HETATM    5  C8  UNL     1      23.980   5.376  50.521  1.00  0.00     0.019 A 
HETATM    6  C9  UNL     1      25.294   5.793  50.222  1.00  0.00     0.045 A 
HETATM    7  C10 UNL     1      23.973   4.015  50.497  1.00  0.00     0.043 C 
HETATM    8  N2  UNL     1      25.332   3.542  50.341  1.00  0.00    -0.391 N 
HETATM    9  C11 UNL     1      26.382   2.914  51.046  1.00  0.00     0.121 C 
HETATM   10  C12 UNL     1      26.419   1.446  51.278  1.00  0.00     0.046 C 
HETATM   11  C13 UNL     1      27.542   1.214  52.333  1.00  0.00     0.169 C 
HETATM   12  O2  UNL     1      27.232   1.835  53.481  1.00  0.00    -0.387 OA
HETATM   13  C14 UNL     1      26.330   1.403  54.370  1.00  0.00     0.195 C 
HETATM   14  C15 UNL     1      25.071   0.893  53.813  1.00  0.00    -0.001 C 
HETATM   15  C16 UNL     1      23.992   0.189  53.443  1.00  0.00    -0.002 C 
HETATM   16  C17 UNL     1      22.908  -0.702  53.153  1.00  0.00    -0.004 C 
HETATM   17  C18 UNL     1      22.038  -0.157  52.251  1.00  0.00    -0.021 C 
HETATM   18  C19 UNL     1      22.823   1.047  52.106  1.00  0.00     0.049 C 
HETATM   19  C20 UNL     1      22.621   2.091  51.359  1.00  0.00     0.011 C 
HETATM   20  C21 UNL     1      22.632   3.385  50.612  1.00  0.00     0.160 C 
HETATM   21  N3  UNL     1      21.560   4.123  51.027  1.00  0.00    -0.271 NA
HETATM   22  C22 UNL     1      21.167   5.297  51.205  1.00  0.00     0.228 C 
HETATM   23  N4  UNL     1      21.967   6.420  50.948  1.00  0.00    -0.242 NA
HETATM   24  H10 UNL     1      25.280   3.839  49.312  1.00  0.00     0.159 HD
ENDROOT
BRANCH   1  25
HETATM   25  N1  UNL     1      27.131   7.358  49.708  1.00  0.00    -0.327 N 
HETATM   26  C3  UNL     1      27.091   7.428  48.293  1.00  0.00     0.221 C 
HETATM   27  O1  UNL     1      25.968   7.216  47.698  1.00  0.00    -0.273 OA
HETATM   28  H6  UNL     1      28.100   7.542  50.004  1.00  0.00     0.169 HD
BRANCH  26  29
HETATM   29  C2  UNL     1      28.041   7.694  47.185  1.00  0.00     0.098 C 
HETATM   30  C1  UNL     1      29.368   6.983  47.459  1.00  0.00     0.014 C 
ENDBRANCH  26  29
ENDBRANCH   1  25
TORSDOF 2
ENDMDL
MODEL 5
REMARK VINA RESULT:      -8.8      2.296      5.524
REMARK  2 active torsions:
REMARK  status: ('A' for Active; 'I' for Inactive)
REMARK    1  A    between atoms: C2_2  and  C3_3 
REMARK       I    between atoms: C3_3  and  N1_5 
REMARK    2  A    between atoms: N1_5  and  C4_6 
ROOT
HETATM    1  C4  UNL     1      25.512   0.870  52.389  1.00  0.00     0.035 A 
HETATM    2  C5  UNL     1      25.368  -0.316  53.074  1.00  0.00     0.032 A 
HETATM    3  C6  UNL     1      24.130  -0.687  53.515  1.00  0.00     0.035 A 
HETATM    4  C7  UNL     1      23.068   0.155  53.256  1.00  0.00     0.070 A 
HETATM    5  C8  UNL     1      23.060   1.353  52.601  1.00  0.00     0.019 A 
HETATM    6  C9  UNL     1      24.386   1.612  52.197  1.00  0.00     0.045 A 
HETATM    7  C10 UNL     1      22.314   2.439  52.259  1.00  0.00     0.043 C 
HETATM    8  N2  UNL     1      23.133   3.343  51.479  1.00  0.00    -0.391 N 
HETATM    9  C11 UNL     1      23.323   3.824  50.165  1.00  0.00     0.121 C 
HETATM   10  C12 UNL     1      22.459   4.878  49.570  1.00  0.00     0.046 C 
HETATM   11  C13 UNL     1      22.795   4.889  48.049  1.00  0.00     0.169 C 
HETATM   12  O2  UNL     1      22.489   3.704  47.499  1.00  0.00    -0.387 OA
HETATM   13  C14 UNL     1      21.250   3.290  47.206  1.00  0.00     0.195 C 
HETATM   14  C15 UNL     1      20.224   3.564  48.219  1.00  0.00    -0.001 C 
HETATM   15  C16 UNL     1      19.158   3.954  48.933  1.00  0.00    -0.002 C 
HETATM   16  C17 UNL     1      17.956   4.449  49.537  1.00  0.00    -0.004 C 
HETATM   17  C18 UNL     1      17.928   4.195  50.879  1.00  0.00    -0.021 C 
HETATM   18  C19 UNL     1      19.234   3.577  50.867  1.00  0.00     0.049 C 
HETATM   19  C20 UNL     1      19.927   3.069  51.843  1.00  0.00     0.011 C 
HETATM   20  C21 UNL     1      20.917   2.434  52.764  1.00  0.00     0.160 C 
HETATM   21  N3  UNL     1      20.366   1.283  53.249  1.00  0.00    -0.271 NA
HETATM   22  C22 UNL     1      20.652   0.132  53.649  1.00  0.00     0.228 C 
HETATM   23  N4  UNL     1      21.965  -0.359  53.695  1.00  0.00    -0.242 NA
HETATM   24  H10 UNL     1      23.629   3.620  52.388  1.00  0.00     0.159 HD
ENDROOT
BRANCH   1  25
HETATM   25  N1  UNL     1      26.816   1.247  51.970  1.00  0.00    -0.327 N 
HETATM   26  C3  UNL     1      27.353   1.866  53.126  1.00  0.00     0.221 C 
HETATM   27  O1  UNL     1      26.617   1.943  54.180  1.00  0.00    -0.273 OA
HETATM   28  H6  UNL     1      27.533   1.285  51.231  1.00  0.00     0.169 HD
BRANCH  26  29
HETATM   29  C2  UNL     1      28.625   2.515  53.526  1.00  0.00     0.098 C 
HETATM   30  C1  UNL     1      29.344   1.649  54.563  1.00  0.00     0.014 C 
ENDBRANCH  26  29
ENDBRANCH   1  25
TORSDOF 2
ENDMDL
MODEL 6
REMARK VINA RESULT:      -8.8      2.077      6.169
REMARK  2 active torsions:
REMARK  status: ('A' for Active; 'I' for Inactive)
REMARK    1  A    between atoms: C2_2  and  C3_3 
REMARK       I    between atoms: C3_3  and  N1_5 
REMARK    2  A    between atoms: N1_5  and  C4_6 
ROOT
HETATM    1  C4  UNL     1      25.620   3.618  51.090  1.00  0.00     0.035 A 
HETATM    2  C5  UNL     1      26.771   2.863  51.039  1.00  0.00     0.032 A 
HETATM    3  C6  UNL     1      26.760   1.594  51.544  1.00  0.00     0.035 A 
HETATM    4  C7  UNL     1      25.586   1.123  52.094  1.00  0.00     0.070 A 
HETATM    5  C8  UNL     1      24.381   1.752  52.218  1.00  0.00     0.019 A 
HETATM    6  C9  UNL     1      24.526   3.038  51.657  1.00  0.00     0.045 A 
HETATM    7  C10 UNL     1      23.127   1.680  52.742  1.00  0.00     0.043 C 
HETATM    8  N2  UNL     1      22.395   2.873  52.373  1.00  0.00    -0.391 N 
HETATM    9  C11 UNL     1      21.355   3.330  51.534  1.00  0.00     0.121 C 
HETATM   10  C12 UNL     1      19.920   3.149  51.873  1.00  0.00     0.046 C 
HETATM   11  C13 UNL     1      19.132   3.498  50.575  1.00  0.00     0.169 C 
HETATM   12  O2  UNL     1      19.464   2.649  49.591  1.00  0.00    -0.387 OA
HETATM   13  C14 UNL     1      19.037   1.384  49.490  1.00  0.00     0.195 C 
HETATM   14  C15 UNL     1      19.031   0.606  50.735  1.00  0.00    -0.001 C 
HETATM   15  C16 UNL     1      18.749  -0.135  51.815  1.00  0.00    -0.002 C 
HETATM   16  C17 UNL     1      18.271  -0.935  52.904  1.00  0.00    -0.004 C 
HETATM   17  C18 UNL     1      19.244  -1.138  53.842  1.00  0.00    -0.021 C 
HETATM   18  C19 UNL     1      20.208  -0.333  53.128  1.00  0.00     0.049 C 
HETATM   19  C20 UNL     1      21.435  -0.033  53.432  1.00  0.00     0.011 C 
HETATM   20  C21 UNL     1      22.842   0.459  53.540  1.00  0.00     0.160 C 
HETATM   21  N3  UNL     1      23.674  -0.620  53.465  1.00  0.00    -0.271 NA
HETATM   22  C22 UNL     1      24.812  -0.978  53.084  1.00  0.00     0.228 C 
HETATM   23  N4  UNL     1      25.728  -0.103  52.482  1.00  0.00    -0.242 NA
HETATM   24  H10 UNL     1      22.972   3.408  53.102  1.00  0.00     0.159 HD
ENDROOT
BRANCH   1  25
HETATM   25  N1  UNL     1      25.668   4.946  50.587  1.00  0.00    -0.327 N 
HETATM   26  C3  UNL     1      24.797   4.891  49.470  1.00  0.00     0.221 C 
HETATM   27  O1  UNL     1      24.224   3.771  49.191  1.00  0.00    -0.273 OA
HETATM   28  H6  UNL     1      26.038   5.905  50.650  1.00  0.00     0.169 HD
BRANCH  26  29
HETATM   29  C2  UNL     1      24.300   5.819  48.426  1.00  0.00     0.098 C 
HETATM   30  C1  UNL     1      25.328   6.927  48.187  1.00  0.00     0.014 C 
ENDBRANCH  26  29
ENDBRANCH   1  25
TORSDOF 2
ENDMDL
MODEL 7
REMARK VINA RESULT:      -8.8      2.206      6.331
REMARK  2 active torsions:
REMARK  status: ('A' for Active; 'I' for Inactive)
REMARK    1  A    between atoms: C2_2  and  C3_3 
REMARK       I    between atoms: C3_3  and  N1_5 
REMARK    2  A    between atoms: N1_5  and  C4_6 
ROOT
HETATM    1  C4  UNL     1      25.007   5.333  49.206  1.00  0.00     0.035 A 
HETATM    2  C5  UNL     1      26.295   4.975  48.875  1.00  0.00     0.032 A 
HETATM    3  C6  UNL     1      26.880   3.918  49.511  1.00  0.00     0.035 A 
HETATM    4  C7  UNL     1      26.148   3.252  50.473  1.00  0.00     0.070 A 
HETATM    5  C8  UNL     1      24.877   3.493  50.906  1.00  0.00     0.019 A 
HETATM    6  C9  UNL     1      24.391   4.594  50.170  1.00  0.00     0.045 A 
HETATM    7  C10 UNL     1      23.921   3.165  51.819  1.00  0.00     0.043 C 
HETATM    8  N2  UNL     1      22.737   3.958  51.564  1.00  0.00    -0.391 N 
HETATM    9  C11 UNL     1      21.420   3.866  51.063  1.00  0.00     0.121 C 
HETATM   10  C12 UNL     1      20.293   3.339  51.877  1.00  0.00     0.046 C 
HETATM   11  C13 UNL     1      19.118   3.119  50.878  1.00  0.00     0.169 C 
HETATM   12  O2  UNL     1      19.461   2.207  49.955  1.00  0.00    -0.387 OA
HETATM   13  C14 UNL     1      19.512   0.885  50.162  1.00  0.00     0.195 C 
HETATM   14  C15 UNL     1      20.119   0.455  51.427  1.00  0.00    -0.001 C 
HETATM   15  C16 UNL     1      20.423  -0.064  52.625  1.00  0.00    -0.002 C 
HETATM   16  C17 UNL     1      20.575  -0.696  53.902  1.00  0.00    -0.004 C 
HETATM   17  C18 UNL     1      21.767  -0.367  54.485  1.00  0.00    -0.021 C 
HETATM   18  C19 UNL     1      22.146   0.505  53.397  1.00  0.00     0.049 C 
HETATM   19  C20 UNL     1      23.215   1.228  53.239  1.00  0.00     0.011 C 
HETATM   20  C21 UNL     1      24.321   2.137  52.815  1.00  0.00     0.160 C 
HETATM   21  N3  UNL     1      25.437   1.378  52.607  1.00  0.00    -0.271 NA
HETATM   22  C22 UNL     1      26.481   1.307  51.921  1.00  0.00     0.228 C 
HETATM   23  N4  UNL     1      26.823   2.254  50.944  1.00  0.00    -0.242 NA
HETATM   24  H10 UNL     1      23.252   4.797  51.988  1.00  0.00     0.159 HD
ENDROOT
BRANCH   1  25
HETATM   25  N1  UNL     1      24.434   6.455  48.550  1.00  0.00    -0.327 N 
HETATM   26  C3  UNL     1      23.957   7.240  49.629  1.00  0.00     0.221 C 
HETATM   27  O1  UNL     1      24.127   6.805  50.830  1.00  0.00    -0.273 OA
HETATM   28  H6  UNL     1      24.204   6.948  47.676  1.00  0.00     0.169 HD
BRANCH  26  29
HETATM   29  C2  UNL     1      23.252   8.532  49.811  1.00  0.00     0.098 C 
HETATM   30  C1  UNL     1      21.739   8.308  49.762  1.00  0.00     0.014 C 
ENDBRANCH  26  29
ENDBRANCH   1  25
TORSDOF 2
ENDMDL
MODEL 8
REMARK VINA RESULT:      -8.8      2.787      5.858
REMARK  2 active torsions:
REMARK  status: ('A' for Active; 'I' for Inactive)
REMARK    1  A    between atoms: C2_2  and  C3_3 
REMARK       I    between atoms: C3_3  and  N1_5 
REMARK    2  A    between atoms: N1_5  and  C4_6 
ROOT
HETATM    1  C4  UNL     1      18.019   0.563  50.471  1.00  0.00     0.035 A 
HETATM    2  C5  UNL     1      17.148  -0.102  51.305  1.00  0.00     0.032 A 
HETATM    3  C6  UNL     1      17.637  -0.754  52.399  1.00  0.00     0.035 A 
HETATM    4  C7  UNL     1      18.998  -0.721  52.622  1.00  0.00     0.070 A 
HETATM    5  C8  UNL     1      19.975  -0.113  51.888  1.00  0.00     0.019 A 
HETATM    6  C9  UNL     1      19.340   0.523  50.801  1.00  0.00     0.045 A 
HETATM    7  C10 UNL     1      21.317   0.053  51.725  1.00  0.00     0.043 C 
HETATM    8  N2  UNL     1      21.546   0.946  50.609  1.00  0.00    -0.391 N 
HETATM    9  C11 UNL     1      21.965   2.258  50.297  1.00  0.00     0.121 C 
HETATM   10  C12 UNL     1      23.398   2.652  50.271  1.00  0.00     0.046 C 
HETATM   11  C13 UNL     1      23.406   4.208  50.199  1.00  0.00     0.169 C 
HETATM   12  O2  UNL     1      22.825   4.725  51.292  1.00  0.00    -0.387 OA
HETATM   13  C14 UNL     1      23.391   4.794  52.503  1.00  0.00     0.195 C 
HETATM   14  C15 UNL     1      24.126   3.601  52.939  1.00  0.00    -0.001 C 
HETATM   15  C16 UNL     1      25.016   2.691  53.359  1.00  0.00    -0.002 C 
HETATM   16  C17 UNL     1      26.091   1.861  53.819  1.00  0.00    -0.004 C 
HETATM   17  C18 UNL     1      25.726   0.544  53.856  1.00  0.00    -0.021 C 
HETATM   18  C19 UNL     1      24.406   0.816  53.336  1.00  0.00     0.049 C 
HETATM   19  C20 UNL     1      23.429   0.001  53.068  1.00  0.00     0.011 C 
HETATM   20  C21 UNL     1      22.170  -0.702  52.678  1.00  0.00     0.160 C 
HETATM   21  N3  UNL     1      21.624  -1.248  53.805  1.00  0.00    -0.271 NA
HETATM   22  C22 UNL     1      20.534  -1.555  54.336  1.00  0.00     0.228 C 
HETATM   23  N4  UNL     1      19.293  -1.342  53.718  1.00  0.00    -0.242 NA
HETATM   24  H10 UNL     1      21.284   0.137  49.955  1.00  0.00     0.159 HD
ENDROOT
BRANCH   1  25
HETATM   25  N1  UNL     1      17.487   1.207  49.321  1.00  0.00    -0.327 N 
HETATM   26  C3  UNL     1      17.274   2.533  49.773  1.00  0.00     0.221 C 
HETATM   27  O1  UNL     1      17.575   2.824  50.991  1.00  0.00    -0.273 OA
HETATM   28  H6  UNL     1      17.184   1.157  48.339  1.00  0.00     0.169 HD
BRANCH  26  29
HETATM   29  C2  UNL     1      16.761   3.808  49.214  1.00  0.00     0.098 C 
HETATM   30  C1  UNL     1      15.547   4.274  50.020  1.00  0.00     0.014 C 
ENDBRANCH  26  29
ENDBRANCH   1  25
TORSDOF 2
ENDMDL
MODEL 9
REMARK VINA RESULT:      -8.7      2.361      6.618
REMARK  2 active torsions:
REMARK  status: ('A' for Active; 'I' for Inactive)
REMARK    1  A    between atoms: C2_2  and  C3_3 
REMARK       I    between atoms: C3_3  and  N1_5 
REMARK    2  A    between atoms: N1_5  and  C4_6 
ROOT
HETATM    1  C4  UNL     1      24.414   3.312  51.938  1.00  0.00     0.035 A 
HETATM    2  C5  UNL     1      25.534   2.518  52.046  1.00  0.00     0.032 A 
HETATM    3  C6  UNL     1      25.401   1.228  52.473  1.00  0.00     0.035 A 
HETATM    4  C7  UNL     1      24.136   0.773  52.785  1.00  0.00     0.070 A 
HETATM    5  C8  UNL     1      22.945   1.440  52.732  1.00  0.00     0.019 A 
HETATM    6  C9  UNL     1      23.222   2.745  52.275  1.00  0.00     0.045 A 
HETATM    7  C10 UNL     1      21.617   1.388  53.027  1.00  0.00     0.043 C 
HETATM    8  N2  UNL     1      20.995   2.624  52.601  1.00  0.00    -0.391 N 
HETATM    9  C11 UNL     1      20.131   3.158  51.620  1.00  0.00     0.121 C 
HETATM   10  C12 UNL     1      18.653   3.014  51.695  1.00  0.00     0.046 C 
HETATM   11  C13 UNL     1      18.115   3.454  50.301  1.00  0.00     0.169 C 
HETATM   12  O2  UNL     1      18.590   2.642  49.345  1.00  0.00    -0.387 OA
HETATM   13  C14 UNL     1      18.153   1.400  49.104  1.00  0.00     0.195 C 
HETATM   14  C15 UNL     1      17.908   0.563  50.285  1.00  0.00    -0.001 C 
HETATM   15  C16 UNL     1      17.421  -0.218  51.259  1.00  0.00    -0.002 C 
HETATM   16  C17 UNL     1      16.738  -1.052  52.204  1.00  0.00    -0.004 C 
HETATM   17  C18 UNL     1      17.525  -1.336  53.284  1.00  0.00    -0.021 C 
HETATM   18  C19 UNL     1      18.621  -0.532  52.792  1.00  0.00     0.049 C 
HETATM   19  C20 UNL     1      19.784  -0.293  53.320  1.00  0.00     0.011 C 
HETATM   20  C21 UNL     1      21.163   0.142  53.696  1.00  0.00     0.160 C 
HETATM   21  N3  UNL     1      21.966  -0.962  53.709  1.00  0.00    -0.271 NA
HETATM   22  C22 UNL     1      23.142  -1.342  53.512  1.00  0.00     0.228 C 
HETATM   23  N4  UNL     1      24.173  -0.474  53.125  1.00  0.00    -0.242 NA
HETATM   24  H10 UNL     1      21.449   3.102  53.447  1.00  0.00     0.159 HD
ENDROOT
BRANCH   1  25
HETATM   25  N1  UNL     1      24.585   4.659  51.522  1.00  0.00    -0.327 N 
HETATM   26  C3  UNL     1      24.829   4.532  50.132  1.00  0.00     0.221 C 
HETATM   27  O1  UNL     1      24.843   3.351  49.616  1.00  0.00    -0.273 OA
HETATM   28  H6  UNL     1      24.621   5.661  51.757  1.00  0.00     0.169 HD
BRANCH  26  29
HETATM   29  C2  UNL     1      25.100   5.430  48.984  1.00  0.00     0.098 C 
HETATM   30  C1  UNL     1      26.610   5.544  48.761  1.00  0.00     0.014 C 
ENDBRANCH  26  29
ENDBRANCH   1  25
TORSDOF 2
ENDMDL
