MODEL 1
REMARK VINA RESULT:      -7.8      0.000      0.000
REMARK  10 active torsions:
REMARK  status: ('A' for Active; 'I' for Inactive)
REMARK    1  A    between atoms: O1_2  and  C2_3 
REMARK    2  A    between atoms: C2_3  and  C3_4 
REMARK    3  A    between atoms: C3_4  and  C4_5 
REMARK    4  A    between atoms: C8_11  and  N3_12 
REMARK    5  A    between atoms: C15_19  and  O2_20 
REMARK    6  A    between atoms: C18_23  and  C19_24 
REMARK    7  A    between atoms: C19_24  and  C20_25 
REMARK    8  A    between atoms: C20_25  and  O3_26 
REMARK    9  A    between atoms: O3_26  and  C21_27 
REMARK   10  A    between atoms: C21_27  and  O4_28 
ROOT
HETATM    1  C4  UNL     1      25.794   0.133  53.375  1.00  0.00    -0.048 A 
HETATM    2  C5  UNL     1      24.765  -0.494  54.091  1.00  0.00     0.040 A 
HETATM    3  C6  UNL     1      23.428  -0.389  53.791  1.00  0.00     0.072 A 
HETATM    4  N1  UNL     1      22.474  -1.009  54.505  1.00  0.00    -0.241 NA
HETATM    5  C7  UNL     1      21.158  -0.890  54.185  1.00  0.00     0.236 A 
HETATM    6  N2  UNL     1      20.804  -0.139  53.138  1.00  0.00    -0.223 NA
HETATM    7  C8  UNL     1      21.751   0.484  52.419  1.00  0.00     0.149 A 
HETATM    8  C16 UNL     1      23.104   0.396  52.701  1.00  0.00     0.040 A 
HETATM    9  C17 UNL     1      24.093   1.014  51.995  1.00  0.00     0.025 A 
HETATM   10  C18 UNL     1      25.447   0.920  52.284  1.00  0.00    -0.049 A 
ENDROOT
BRANCH   7  11
HETATM   11  N3  UNL     1      21.347   1.275  51.307  1.00  0.00    -0.286 N 
HETATM   12  C9  UNL     1      21.414   0.697  49.992  1.00  0.00     0.101 C 
HETATM   13  C10 UNL     1      21.541   1.396  48.858  1.00  0.00     0.024 C 
HETATM   14  C11 UNL     1      21.638   2.838  48.663  1.00  0.00    -0.061 C 
HETATM   15  C12 UNL     1      22.098   3.285  47.315  1.00  0.00     0.048 C 
HETATM   16  C13 UNL     1      21.372   3.828  49.528  1.00  0.00     0.011 C 
HETATM   17  C14 UNL     1      20.905   3.714  50.926  1.00  0.00     0.057 C 
HETATM   18  C15 UNL     1      20.911   2.591  51.659  1.00  0.00     0.147 C 
BRANCH  18  19
HETATM   19  O2  UNL     1      20.412   2.779  52.941  1.00  0.00    -0.346 OA
HETATM   20  H17 UNL     1      19.607   2.314  53.324  1.00  0.00     0.219 HD
ENDBRANCH  18  19
ENDBRANCH   7  11
BRANCH  10  21
HETATM   21  C19 UNL     1      26.443   1.681  51.494  1.00  0.00     0.065 C 
BRANCH  21  22
HETATM   22  C20 UNL     1      25.901   2.853  50.749  1.00  0.00     0.175 C 
BRANCH  22  23
HETATM   23  O3  UNL     1      26.574   3.096  49.567  1.00  0.00    -0.367 OA
BRANCH  23  24
HETATM   24  C21 UNL     1      26.707   4.418  49.230  1.00  0.00     0.334 C 
BRANCH  24  25
HETATM   25  O4  UNL     1      28.043   4.840  49.360  1.00  0.00    -0.377 OA
HETATM   26  H25 UNL     1      28.568   4.534  48.577  1.00  0.00     0.212 HD
ENDBRANCH  24  25
ENDBRANCH  23  24
ENDBRANCH  22  23
ENDBRANCH  21  22
ENDBRANCH  10  21
BRANCH   1  27
HETATM   27  C3  UNL     1      27.164  -0.168  53.800  1.00  0.00     0.065 C 
BRANCH  27  28
HETATM   28  C2  UNL     1      27.653  -1.397  53.022  1.00  0.00     0.171 C 
BRANCH  28  29
HETATM   29  O1  UNL     1      28.862  -1.874  53.501  1.00  0.00    -0.396 OA
HETATM   30  C1  UNL     1      29.741  -0.805  53.684  1.00  0.00     0.201 C 
ENDBRANCH  28  29
ENDBRANCH  27  28
ENDBRANCH   1  27
TORSDOF 10
ENDMDL
MODEL 2
REMARK VINA RESULT:      -7.6      2.527      4.264
REMARK  10 active torsions:
REMARK  status: ('A' for Active; 'I' for Inactive)
REMARK    1  A    between atoms: O1_2  and  C2_3 
REMARK    2  A    between atoms: C2_3  and  C3_4 
REMARK    3  A    between atoms: C3_4  and  C4_5 
REMARK    4  A    between atoms: C8_11  and  N3_12 
REMARK    5  A    between atoms: C15_19  and  O2_20 
REMARK    6  A    between atoms: C18_23  and  C19_24 
REMARK    7  A    between atoms: C19_24  and  C20_25 
REMARK    8  A    between atoms: C20_25  and  O3_26 
REMARK    9  A    between atoms: O3_26  and  C21_27 
REMARK   10  A    between atoms: C21_27  and  O4_28 
ROOT
HETATM    1  C4  UNL     1      23.169   0.584  52.914  1.00  0.00    -0.048 A 
HETATM    2  C5  UNL     1      21.823   0.968  52.839  1.00  0.00     0.040 A 
HETATM    3  C6  UNL     1      21.368   2.102  52.209  1.00  0.00     0.072 A 
HETATM    4  N1  UNL     1      20.068   2.432  52.160  1.00  0.00    -0.241 NA
HETATM    5  C7  UNL     1      19.644   3.558  51.529  1.00  0.00     0.236 A 
HETATM    6  N2  UNL     1      20.542   4.357  50.943  1.00  0.00    -0.223 NA
HETATM    7  C8  UNL     1      21.844   4.034  50.987  1.00  0.00     0.149 A 
HETATM    8  C16 UNL     1      22.328   2.900  51.616  1.00  0.00     0.040 A 
HETATM    9  C17 UNL     1      23.642   2.541  51.682  1.00  0.00     0.025 A 
HETATM   10  C18 UNL     1      24.118   1.401  52.314  1.00  0.00    -0.049 A 
ENDROOT
BRANCH   7  11
HETATM   11  N3  UNL     1      22.778   4.901  50.353  1.00  0.00    -0.286 N 
HETATM   12  C9  UNL     1      23.420   4.454  49.146  1.00  0.00     0.101 C 
HETATM   13  C10 UNL     1      24.609   4.888  48.709  1.00  0.00     0.024 C 
HETATM   14  C11 UNL     1      25.513   5.867  49.300  1.00  0.00    -0.061 C 
HETATM   15  C12 UNL     1      26.900   5.891  48.750  1.00  0.00     0.048 C 
HETATM   16  C13 UNL     1      25.275   6.756  50.277  1.00  0.00     0.011 C 
HETATM   17  C14 UNL     1      24.017   6.977  51.020  1.00  0.00     0.057 C 
HETATM   18  C15 UNL     1      22.960   6.149  51.025  1.00  0.00     0.147 C 
BRANCH  18  19
HETATM   19  O2  UNL     1      21.914   6.612  51.812  1.00  0.00    -0.346 OA
HETATM   20  H17 UNL     1      21.194   6.038  52.215  1.00  0.00     0.219 HD
ENDBRANCH  18  19
ENDBRANCH   7  11
BRANCH  10  21
HETATM   21  C19 UNL     1      25.573   1.129  52.385  1.00  0.00     0.065 C 
BRANCH  21  22
HETATM   22  C20 UNL     1      26.394   1.790  51.332  1.00  0.00     0.175 C 
BRANCH  22  23
HETATM   23  O3  UNL     1      27.450   2.515  51.850  1.00  0.00    -0.367 OA
BRANCH  23  24
HETATM   24  C21 UNL     1      27.936   2.065  53.051  1.00  0.00     0.334 C 
BRANCH  24  25
HETATM   25  O4  UNL     1      29.164   2.677  53.361  1.00  0.00    -0.377 OA
HETATM   26  H25 UNL     1      29.896   2.229  52.864  1.00  0.00     0.212 HD
ENDBRANCH  24  25
ENDBRANCH  23  24
ENDBRANCH  22  23
ENDBRANCH  21  22
ENDBRANCH  10  21
BRANCH   1  27
HETATM   27  C3  UNL     1      23.446  -0.703  53.559  1.00  0.00     0.065 C 
BRANCH  27  28
HETATM   28  C2  UNL     1      22.281  -1.034  54.502  1.00  0.00     0.171 C 
BRANCH  28  29
HETATM   29  O1  UNL     1      22.712  -1.598  55.691  1.00  0.00    -0.396 OA
HETATM   30  C1  UNL     1      24.090  -1.416  55.817  1.00  0.00     0.201 C 
ENDBRANCH  28  29
ENDBRANCH  27  28
ENDBRANCH   1  27
TORSDOF 10
ENDMDL
MODEL 3
REMARK VINA RESULT:      -7.6      2.509      5.012
REMARK  10 active torsions:
REMARK  status: ('A' for Active; 'I' for Inactive)
REMARK    1  A    between atoms: O1_2  and  C2_3 
REMARK    2  A    between atoms: C2_3  and  C3_4 
REMARK    3  A    between atoms: C3_4  and  C4_5 
REMARK    4  A    between atoms: C8_11  and  N3_12 
REMARK    5  A    between atoms: C15_19  and  O2_20 
REMARK    6  A    between atoms: C18_23  and  C19_24 
REMARK    7  A    between atoms: C19_24  and  C20_25 
REMARK    8  A    between atoms: C20_25  and  O3_26 
REMARK    9  A    between atoms: O3_26  and  C21_27 
REMARK   10  A    between atoms: C21_27  and  O4_28 
ROOT
HETATM    1  C4  UNL     1      25.705   0.535  52.583  1.00  0.00    -0.048 A 
HETATM    2  C5  UNL     1      26.501   1.427  51.851  1.00  0.00     0.040 A 
HETATM    3  C6  UNL     1      26.013   2.411  51.024  1.00  0.00     0.072 A 
HETATM    4  N1  UNL     1      26.813   3.246  50.341  1.00  0.00    -0.241 NA
HETATM    5  C7  UNL     1      26.304   4.211  49.531  1.00  0.00     0.236 A 
HETATM    6  N2  UNL     1      24.978   4.333  49.409  1.00  0.00    -0.223 NA
HETATM    7  C8  UNL     1      24.173   3.502  50.088  1.00  0.00     0.149 A 
HETATM    8  C16 UNL     1      24.638   2.503  50.926  1.00  0.00     0.040 A 
HETATM    9  C17 UNL     1      23.850   1.641  51.631  1.00  0.00     0.025 A 
HETATM   10  C18 UNL     1      24.326   0.642  52.469  1.00  0.00    -0.049 A 
ENDROOT
BRANCH   7  11
HETATM   11  N3  UNL     1      22.765   3.655  49.943  1.00  0.00    -0.286 N 
HETATM   12  C9  UNL     1      22.083   4.587  50.800  1.00  0.00     0.101 C 
HETATM   13  C10 UNL     1      20.788   4.512  51.130  1.00  0.00     0.024 C 
HETATM   14  C11 UNL     1      19.785   3.530  50.735  1.00  0.00    -0.061 C 
HETATM   15  C12 UNL     1      18.521   3.533  51.527  1.00  0.00     0.048 C 
HETATM   16  C13 UNL     1      19.838   2.616  49.755  1.00  0.00     0.011 C 
HETATM   17  C14 UNL     1      20.942   2.361  48.805  1.00  0.00     0.057 C 
HETATM   18  C15 UNL     1      22.194   2.830  48.924  1.00  0.00     0.147 C 
BRANCH  18  19
HETATM   19  O2  UNL     1      23.022   2.431  47.883  1.00  0.00    -0.346 OA
HETATM   20  H17 UNL     1      22.745   2.356  46.919  1.00  0.00     0.219 HD
ENDBRANCH  18  19
ENDBRANCH   7  11
BRANCH  10  21
HETATM   21  C19 UNL     1      23.389  -0.286  53.143  1.00  0.00     0.065 C 
BRANCH  21  22
HETATM   22  C20 UNL     1      22.178   0.351  53.734  1.00  0.00     0.175 C 
BRANCH  22  23
HETATM   23  O3  UNL     1      21.686  -0.339  54.824  1.00  0.00    -0.367 OA
BRANCH  23  24
HETATM   24  C21 UNL     1      21.987  -1.677  54.856  1.00  0.00     0.334 C 
BRANCH  24  25
HETATM   25  O4  UNL     1      22.872  -1.970  55.910  1.00  0.00    -0.377 OA
HETATM   26  H25 UNL     1      23.515  -1.224  56.023  1.00  0.00     0.212 HD
ENDBRANCH  24  25
ENDBRANCH  23  24
ENDBRANCH  22  23
ENDBRANCH  21  22
ENDBRANCH  10  21
BRANCH   1  27
HETATM   27  C3  UNL     1      26.412  -0.390  53.474  1.00  0.00     0.065 C 
BRANCH  27  28
HETATM   28  C2  UNL     1      27.504   0.392  54.216  1.00  0.00     0.171 C 
BRANCH  28  29
HETATM   29  O1  UNL     1      28.479  -0.439  54.742  1.00  0.00    -0.396 OA
HETATM   30  C1  UNL     1      29.448  -0.690  53.769  1.00  0.00     0.201 C 
ENDBRANCH  28  29
ENDBRANCH  27  28
ENDBRANCH   1  27
TORSDOF 10
ENDMDL
MODEL 4
REMARK VINA RESULT:      -7.5      2.619      4.953
REMARK  10 active torsions:
REMARK  status: ('A' for Active; 'I' for Inactive)
REMARK    1  A    between atoms: O1_2  and  C2_3 
REMARK    2  A    between atoms: C2_3  and  C3_4 
REMARK    3  A    between atoms: C3_4  and  C4_5 
REMARK    4  A    between atoms: C8_11  and  N3_12 
REMARK    5  A    between atoms: C15_19  and  O2_20 
REMARK    6  A    between atoms: C18_23  and  C19_24 
REMARK    7  A    between atoms: C19_24  and  C20_25 
REMARK    8  A    between atoms: C20_25  and  O3_26 
REMARK    9  A    between atoms: O3_26  and  C21_27 
REMARK   10  A    between atoms: C21_27  and  O4_28 
ROOT
HETATM    1  C4  UNL     1      25.909   0.634  52.295  1.00  0.00    -0.048 A 
HETATM    2  C5  UNL     1      26.703   1.457  51.485  1.00  0.00     0.040 A 
HETATM    3  C6  UNL     1      26.248   2.569  50.818  1.00  0.00     0.072 A 
HETATM    4  N1  UNL     1      27.045   3.331  50.052  1.00  0.00    -0.241 NA
HETATM    5  C7  UNL     1      26.571   4.427  49.404  1.00  0.00     0.236 A 
HETATM    6  N2  UNL     1      25.281   4.756  49.531  1.00  0.00    -0.223 NA
HETATM    7  C8  UNL     1      24.478   4.000  50.296  1.00  0.00     0.149 A 
HETATM    8  C16 UNL     1      24.910   2.875  50.976  1.00  0.00     0.040 A 
HETATM    9  C17 UNL     1      24.124   2.083  51.761  1.00  0.00     0.025 A 
HETATM   10  C18 UNL     1      24.565   0.956  52.440  1.00  0.00    -0.049 A 
ENDROOT
BRANCH   7  11
HETATM   11  N3  UNL     1      23.110   4.374  50.417  1.00  0.00    -0.286 N 
HETATM   12  C9  UNL     1      22.114   3.549  49.789  1.00  0.00     0.101 C 
HETATM   13  C10 UNL     1      20.907   3.975  49.397  1.00  0.00     0.024 C 
HETATM   14  C11 UNL     1      20.315   5.304  49.496  1.00  0.00    -0.061 C 
HETATM   15  C12 UNL     1      19.089   5.536  48.678  1.00  0.00     0.048 C 
HETATM   16  C13 UNL     1      20.720   6.358  50.222  1.00  0.00     0.011 C 
HETATM   17  C14 UNL     1      21.888   6.448  51.123  1.00  0.00     0.057 C 
HETATM   18  C15 UNL     1      22.900   5.568  51.176  1.00  0.00     0.147 C 
BRANCH  18  19
HETATM   19  O2  UNL     1      23.861   5.905  52.119  1.00  0.00    -0.346 OA
HETATM   20  H17 UNL     1      24.325   6.796  52.180  1.00  0.00     0.219 HD
ENDBRANCH  18  19
ENDBRANCH   7  11
BRANCH  10  21
HETATM   21  C19 UNL     1      23.619   0.124  53.218  1.00  0.00     0.065 C 
BRANCH  21  22
HETATM   22  C20 UNL     1      22.225   0.084  52.689  1.00  0.00     0.175 C 
BRANCH  22  23
HETATM   23  O3  UNL     1      21.274   0.286  53.670  1.00  0.00    -0.367 OA
BRANCH  23  24
HETATM   24  C21 UNL     1      21.497  -0.378  54.849  1.00  0.00     0.334 C 
BRANCH  24  25
HETATM   25  O4  UNL     1      20.900  -1.652  54.831  1.00  0.00    -0.377 OA
HETATM   26  H25 UNL     1      21.479  -2.285  54.334  1.00  0.00     0.212 HD
ENDBRANCH  24  25
ENDBRANCH  23  24
ENDBRANCH  22  23
ENDBRANCH  21  22
ENDBRANCH  10  21
BRANCH   1  27
HETATM   27  C3  UNL     1      26.596  -0.459  52.989  1.00  0.00     0.065 C 
BRANCH  27  28
HETATM   28  C2  UNL     1      27.201   0.095  54.287  1.00  0.00     0.171 C 
BRANCH  28  29
HETATM   29  O1  UNL     1      28.338  -0.595  54.672  1.00  0.00    -0.396 OA
HETATM   30  C1  UNL     1      29.330  -0.431  53.705  1.00  0.00     0.201 C 
ENDBRANCH  28  29
ENDBRANCH  27  28
ENDBRANCH   1  27
TORSDOF 10
ENDMDL
MODEL 5
REMARK VINA RESULT:      -7.5      2.330      4.891
REMARK  10 active torsions:
REMARK  status: ('A' for Active; 'I' for Inactive)
REMARK    1  A    between atoms: O1_2  and  C2_3 
REMARK    2  A    between atoms: C2_3  and  C3_4 
REMARK    3  A    between atoms: C3_4  and  C4_5 
REMARK    4  A    between atoms: C8_11  and  N3_12 
REMARK    5  A    between atoms: C15_19  and  O2_20 
REMARK    6  A    between atoms: C18_23  and  C19_24 
REMARK    7  A    between atoms: C19_24  and  C20_25 
REMARK    8  A    between atoms: C20_25  and  O3_26 
REMARK    9  A    between atoms: O3_26  and  C21_27 
REMARK   10  A    between atoms: C21_27  and  O4_28 
ROOT
HETATM    1  C4  UNL     1      26.564   0.605  52.841  1.00  0.00    -0.048 A 
HETATM    2  C5  UNL     1      27.038   1.630  52.011  1.00  0.00     0.040 A 
HETATM    3  C6  UNL     1      26.248   2.399  51.190  1.00  0.00     0.072 A 
HETATM    4  N1  UNL     1      26.745   3.373  50.410  1.00  0.00    -0.241 NA
HETATM    5  C7  UNL     1      25.941   4.120  49.609  1.00  0.00     0.236 A 
HETATM    6  N2  UNL     1      24.626   3.881  49.595  1.00  0.00    -0.223 NA
HETATM    7  C8  UNL     1      24.121   2.910  50.371  1.00  0.00     0.149 A 
HETATM    8  C16 UNL     1      24.895   2.120  51.205  1.00  0.00     0.040 A 
HETATM    9  C17 UNL     1      24.418   1.125  52.007  1.00  0.00     0.025 A 
HETATM   10  C18 UNL     1      25.201   0.339  52.840  1.00  0.00    -0.049 A 
ENDROOT
BRANCH   7  11
HETATM   11  N3  UNL     1      22.718   2.679  50.339  1.00  0.00    -0.286 N 
HETATM   12  C9  UNL     1      21.929   3.075  51.475  1.00  0.00     0.101 C 
HETATM   13  C10 UNL     1      20.756   2.530  51.817  1.00  0.00     0.024 C 
HETATM   14  C11 UNL     1      20.008   1.457  51.171  1.00  0.00    -0.061 C 
HETATM   15  C12 UNL     1      18.903   0.857  51.973  1.00  0.00     0.048 C 
HETATM   16  C13 UNL     1      20.174   0.928  49.949  1.00  0.00     0.011 C 
HETATM   17  C14 UNL     1      21.173   1.299  48.924  1.00  0.00     0.057 C 
HETATM   18  C15 UNL     1      22.259   2.059  49.135  1.00  0.00     0.147 C 
BRANCH  18  19
HETATM   19  O2  UNL     1      23.020   2.244  47.989  1.00  0.00    -0.346 OA
HETATM   20  H17 UNL     1      22.752   2.808  47.200  1.00  0.00     0.219 HD
ENDBRANCH  18  19
ENDBRANCH   7  11
BRANCH  10  21
HETATM   21  C19 UNL     1      24.596  -0.761  53.627  1.00  0.00     0.065 C 
BRANCH  21  22
HETATM   22  C20 UNL     1      23.208  -0.509  54.108  1.00  0.00     0.175 C 
BRANCH  22  23
HETATM   23  O3  UNL     1      22.287  -1.388  53.571  1.00  0.00    -0.367 OA
BRANCH  23  24
HETATM   24  C21 UNL     1      21.050  -1.375  54.164  1.00  0.00     0.334 C 
BRANCH  24  25
HETATM   25  O4  UNL     1      20.855  -0.192  54.899  1.00  0.00    -0.377 OA
HETATM   26  H25 UNL     1      20.634   0.552  54.283  1.00  0.00     0.212 HD
ENDBRANCH  24  25
ENDBRANCH  23  24
ENDBRANCH  22  23
ENDBRANCH  21  22
ENDBRANCH  10  21
BRANCH   1  27
HETATM   27  C3  UNL     1      27.553  -0.046  53.705  1.00  0.00     0.065 C 
BRANCH  27  28
HETATM   28  C2  UNL     1      28.785   0.864  53.802  1.00  0.00     0.171 C 
BRANCH  28  29
HETATM   29  O1  UNL     1      29.963   0.179  53.555  1.00  0.00    -0.396 OA
HETATM   30  C1  UNL     1      29.721  -1.194  53.606  1.00  0.00     0.201 C 
ENDBRANCH  28  29
ENDBRANCH  27  28
ENDBRANCH   1  27
TORSDOF 10
ENDMDL
MODEL 6
REMARK VINA RESULT:      -6.9      2.864      4.661
REMARK  10 active torsions:
REMARK  status: ('A' for Active; 'I' for Inactive)
REMARK    1  A    between atoms: O1_2  and  C2_3 
REMARK    2  A    between atoms: C2_3  and  C3_4 
REMARK    3  A    between atoms: C3_4  and  C4_5 
REMARK    4  A    between atoms: C8_11  and  N3_12 
REMARK    5  A    between atoms: C15_19  and  O2_20 
REMARK    6  A    between atoms: C18_23  and  C19_24 
REMARK    7  A    between atoms: C19_24  and  C20_25 
REMARK    8  A    between atoms: C20_25  and  O3_26 
REMARK    9  A    between atoms: O3_26  and  C21_27 
REMARK   10  A    between atoms: C21_27  and  O4_28 
ROOT
HETATM    1  C4  UNL     1      22.938   0.430  52.894  1.00  0.00    -0.048 A 
HETATM    2  C5  UNL     1      21.636   0.930  52.755  1.00  0.00     0.040 A 
HETATM    3  C6  UNL     1      21.319   2.131  52.165  1.00  0.00     0.072 A 
HETATM    4  N1  UNL     1      20.055   2.571  52.051  1.00  0.00    -0.241 NA
HETATM    5  C7  UNL     1      19.769   3.762  51.462  1.00  0.00     0.236 A 
HETATM    6  N2  UNL     1      20.767   4.513  50.985  1.00  0.00    -0.223 NA
HETATM    7  C8  UNL     1      22.032   4.079  51.094  1.00  0.00     0.149 A 
HETATM    8  C16 UNL     1      22.378   2.876  51.685  1.00  0.00     0.040 A 
HETATM    9  C17 UNL     1      23.652   2.404  51.814  1.00  0.00     0.025 A 
HETATM   10  C18 UNL     1      23.989   1.196  52.407  1.00  0.00    -0.049 A 
ENDROOT
BRANCH   7  11
HETATM   11  N3  UNL     1      23.075   4.897  50.575  1.00  0.00    -0.286 N 
HETATM   12  C9  UNL     1      23.827   5.714  51.488  1.00  0.00     0.101 C 
HETATM   13  C10 UNL     1      24.468   6.841  51.154  1.00  0.00     0.024 C 
HETATM   14  C11 UNL     1      24.569   7.500  49.857  1.00  0.00    -0.061 C 
HETATM   15  C12 UNL     1      25.075   8.904  49.875  1.00  0.00     0.048 C 
HETATM   16  C13 UNL     1      24.270   7.022  48.640  1.00  0.00     0.011 C 
HETATM   17  C14 UNL     1      23.750   5.682  48.290  1.00  0.00     0.057 C 
HETATM   18  C15 UNL     1      23.242   4.794  49.158  1.00  0.00     0.147 C 
BRANCH  18  19
HETATM   19  O2  UNL     1      22.831   3.616  48.548  1.00  0.00    -0.346 OA
HETATM   20  H17 UNL     1      22.669   3.501  47.562  1.00  0.00     0.219 HD
ENDBRANCH  18  19
ENDBRANCH   7  11
BRANCH  10  21
HETATM   21  C19 UNL     1      25.408   0.799  52.556  1.00  0.00     0.065 C 
BRANCH  21  22
HETATM   22  C20 UNL     1      26.008   1.074  53.893  1.00  0.00     0.175 C 
BRANCH  22  23
HETATM   23  O3  UNL     1      26.863   2.159  53.884  1.00  0.00    -0.367 OA
BRANCH  23  24
HETATM   24  C21 UNL     1      27.745   2.202  52.835  1.00  0.00     0.334 C 
BRANCH  24  25
HETATM   25  O4  UNL     1      29.016   2.629  53.261  1.00  0.00    -0.377 OA
HETATM   26  H25 UNL     1      29.500   1.872  53.680  1.00  0.00     0.212 HD
ENDBRANCH  24  25
ENDBRANCH  23  24
ENDBRANCH  22  23
ENDBRANCH  21  22
ENDBRANCH  10  21
BRANCH   1  27
HETATM   27  C3  UNL     1      23.065  -0.908  53.477  1.00  0.00     0.065 C 
BRANCH  27  28
HETATM   28  C2  UNL     1      22.013  -1.056  54.586  1.00  0.00     0.171 C 
BRANCH  28  29
HETATM   29  O1  UNL     1      22.535  -1.634  55.731  1.00  0.00    -0.396 OA
HETATM   30  C1  UNL     1      23.919  -1.453  55.752  1.00  0.00     0.201 C 
ENDBRANCH  28  29
ENDBRANCH  27  28
ENDBRANCH   1  27
TORSDOF 10
ENDMDL
MODEL 7
REMARK VINA RESULT:      -6.9      1.989      2.610
REMARK  10 active torsions:
REMARK  status: ('A' for Active; 'I' for Inactive)
REMARK    1  A    between atoms: O1_2  and  C2_3 
REMARK    2  A    between atoms: C2_3  and  C3_4 
REMARK    3  A    between atoms: C3_4  and  C4_5 
REMARK    4  A    between atoms: C8_11  and  N3_12 
REMARK    5  A    between atoms: C15_19  and  O2_20 
REMARK    6  A    between atoms: C18_23  and  C19_24 
REMARK    7  A    between atoms: C19_24  and  C20_25 
REMARK    8  A    between atoms: C20_25  and  O3_26 
REMARK    9  A    between atoms: O3_26  and  C21_27 
REMARK   10  A    between atoms: C21_27  and  O4_28 
ROOT
HETATM    1  C4  UNL     1      25.196   0.959  52.125  1.00  0.00    -0.048 A 
HETATM    2  C5  UNL     1      23.947   0.636  52.673  1.00  0.00     0.040 A 
HETATM    3  C6  UNL     1      22.797   1.364  52.481  1.00  0.00     0.072 A 
HETATM    4  N1  UNL     1      21.620   1.017  53.025  1.00  0.00    -0.241 NA
HETATM    5  C7  UNL     1      20.497   1.755  52.818  1.00  0.00     0.236 A 
HETATM    6  N2  UNL     1      20.565   2.851  52.056  1.00  0.00    -0.223 NA
HETATM    7  C8  UNL     1      21.738   3.204  51.508  1.00  0.00     0.149 A 
HETATM    8  C16 UNL     1      22.910   2.490  51.687  1.00  0.00     0.040 A 
HETATM    9  C17 UNL     1      24.119   2.818  51.147  1.00  0.00     0.025 A 
HETATM   10  C18 UNL     1      25.289   2.096  51.332  1.00  0.00    -0.049 A 
ENDROOT
BRANCH   7  11
HETATM   11  N3  UNL     1      21.782   4.374  50.699  1.00  0.00    -0.286 N 
HETATM   12  C9  UNL     1      21.322   4.287  49.339  1.00  0.00     0.101 C 
HETATM   13  C10 UNL     1      21.720   5.092  48.347  1.00  0.00     0.024 C 
HETATM   14  C11 UNL     1      22.663   6.204  48.376  1.00  0.00    -0.061 C 
HETATM   15  C12 UNL     1      23.139   6.691  47.048  1.00  0.00     0.048 C 
HETATM   16  C13 UNL     1      23.169   6.856  49.433  1.00  0.00     0.011 C 
HETATM   17  C14 UNL     1      22.900   6.613  50.867  1.00  0.00     0.057 C 
HETATM   18  C15 UNL     1      22.296   5.526  51.372  1.00  0.00     0.147 C 
BRANCH  18  19
HETATM   19  O2  UNL     1      22.176   5.569  52.754  1.00  0.00    -0.346 OA
HETATM   20  H17 UNL     1      22.935   5.460  53.406  1.00  0.00     0.219 HD
ENDBRANCH  18  19
ENDBRANCH   7  11
BRANCH  10  21
HETATM   21  C19 UNL     1      26.568   2.569  50.754  1.00  0.00     0.065 C 
BRANCH  21  22
HETATM   22  C20 UNL     1      26.454   3.253  49.434  1.00  0.00     0.175 C 
BRANCH  22  23
HETATM   23  O3  UNL     1      26.723   4.606  49.506  1.00  0.00    -0.367 OA
BRANCH  23  24
HETATM   24  C21 UNL     1      27.621   5.075  48.581  1.00  0.00     0.334 C 
BRANCH  24  25
HETATM   25  O4  UNL     1      28.906   5.193  49.140  1.00  0.00    -0.377 OA
HETATM   26  H25 UNL     1      29.574   5.317  48.418  1.00  0.00     0.212 HD
ENDBRANCH  24  25
ENDBRANCH  23  24
ENDBRANCH  22  23
ENDBRANCH  21  22
ENDBRANCH  10  21
BRANCH   1  27
HETATM   27  C3  UNL     1      26.285   0.011  52.377  1.00  0.00     0.065 C 
BRANCH  27  28
HETATM   28  C2  UNL     1      26.980   0.410  53.686  1.00  0.00     0.171 C 
BRANCH  28  29
HETATM   29  O1  UNL     1      28.343   0.595  53.521  1.00  0.00    -0.396 OA
HETATM   30  C1  UNL     1      29.028  -0.086  54.529  1.00  0.00     0.201 C 
ENDBRANCH  28  29
ENDBRANCH  27  28
ENDBRANCH   1  27
TORSDOF 10
ENDMDL
MODEL 8
REMARK VINA RESULT:      -6.6      3.138      5.342
REMARK  10 active torsions:
REMARK  status: ('A' for Active; 'I' for Inactive)
REMARK    1  A    between atoms: O1_2  and  C2_3 
REMARK    2  A    between atoms: C2_3  and  C3_4 
REMARK    3  A    between atoms: C3_4  and  C4_5 
REMARK    4  A    between atoms: C8_11  and  N3_12 
REMARK    5  A    between atoms: C15_19  and  O2_20 
REMARK    6  A    between atoms: C18_23  and  C19_24 
REMARK    7  A    between atoms: C19_24  and  C20_25 
REMARK    8  A    between atoms: C20_25  and  O3_26 
REMARK    9  A    between atoms: O3_26  and  C21_27 
REMARK   10  A    between atoms: C21_27  and  O4_28 
ROOT
HETATM    1  C4  UNL     1      22.626   0.074  52.665  1.00  0.00    -0.048 A 
HETATM    2  C5  UNL     1      24.023   0.180  52.650  1.00  0.00     0.040 A 
HETATM    3  C6  UNL     1      24.721   1.230  52.102  1.00  0.00     0.072 A 
HETATM    4  N1  UNL     1      26.062   1.291  52.110  1.00  0.00    -0.241 NA
HETATM    5  C7  UNL     1      26.728   2.342  51.562  1.00  0.00     0.236 A 
HETATM    6  N2  UNL     1      26.033   3.337  51.002  1.00  0.00    -0.223 NA
HETATM    7  C8  UNL     1      24.692   3.283  50.990  1.00  0.00     0.149 A 
HETATM    8  C16 UNL     1      23.966   2.237  51.533  1.00  0.00     0.040 A 
HETATM    9  C17 UNL     1      22.605   2.148  51.539  1.00  0.00     0.025 A 
HETATM   10  C18 UNL     1      21.885   1.096  52.086  1.00  0.00    -0.049 A 
ENDROOT
BRANCH   7  11
HETATM   11  N3  UNL     1      23.977   4.357  50.390  1.00  0.00    -0.286 N 
HETATM   12  C9  UNL     1      23.435   4.170  49.071  1.00  0.00     0.101 C 
HETATM   13  C10 UNL     1      23.181   5.157  48.204  1.00  0.00     0.024 C 
HETATM   14  C11 UNL     1      23.371   6.595  48.353  1.00  0.00    -0.061 C 
HETATM   15  C12 UNL     1      23.302   7.397  47.097  1.00  0.00     0.048 C 
HETATM   16  C13 UNL     1      23.604   7.306  49.467  1.00  0.00     0.011 C 
HETATM   17  C14 UNL     1      23.729   6.810  50.854  1.00  0.00     0.057 C 
HETATM   18  C15 UNL     1      23.889   5.526  51.209  1.00  0.00     0.147 C 
BRANCH  18  19
HETATM   19  O2  UNL     1      23.978   5.353  52.584  1.00  0.00    -0.346 OA
HETATM   20  H17 UNL     1      23.232   5.519  53.238  1.00  0.00     0.219 HD
ENDBRANCH  18  19
ENDBRANCH   7  11
BRANCH  10  21
HETATM   21  C19 UNL     1      20.407   1.060  51.987  1.00  0.00     0.065 C 
BRANCH  21  22
HETATM   22  C20 UNL     1      19.854   1.353  50.634  1.00  0.00     0.175 C 
BRANCH  22  23
HETATM   23  O3  UNL     1      18.811   2.258  50.665  1.00  0.00    -0.367 OA
BRANCH  23  24
HETATM   24  C21 UNL     1      18.995   3.336  51.494  1.00  0.00     0.334 C 
BRANCH  24  25
HETATM   25  O4  UNL     1      17.773   3.768  52.040  1.00  0.00    -0.377 OA
HETATM   26  H25 UNL     1      17.258   4.265  51.354  1.00  0.00     0.212 HD
ENDBRANCH  24  25
ENDBRANCH  23  24
ENDBRANCH  22  23
ENDBRANCH  21  22
ENDBRANCH  10  21
BRANCH   1  27
HETATM   27  C3  UNL     1      22.066  -1.082  53.371  1.00  0.00     0.065 C 
BRANCH  27  28
HETATM   28  C2  UNL     1      22.018  -0.758  54.871  1.00  0.00     0.171 C 
BRANCH  28  29
HETATM   29  O1  UNL     1      22.600  -1.751  55.641  1.00  0.00    -0.396 OA
HETATM   30  C1  UNL     1      23.950  -1.454  55.837  1.00  0.00     0.201 C 
ENDBRANCH  28  29
ENDBRANCH  27  28
ENDBRANCH   1  27
TORSDOF 10
ENDMDL
MODEL 9
REMARK VINA RESULT:      -6.6      6.234     10.044
REMARK  10 active torsions:
REMARK  status: ('A' for Active; 'I' for Inactive)
REMARK    1  A    between atoms: O1_2  and  C2_3 
REMARK    2  A    between atoms: C2_3  and  C3_4 
REMARK    3  A    between atoms: C3_4  and  C4_5 
REMARK    4  A    between atoms: C8_11  and  N3_12 
REMARK    5  A    between atoms: C15_19  and  O2_20 
REMARK    6  A    between atoms: C18_23  and  C19_24 
REMARK    7  A    between atoms: C19_24  and  C20_25 
REMARK    8  A    between atoms: C20_25  and  O3_26 
REMARK    9  A    between atoms: O3_26  and  C21_27 
REMARK   10  A    between atoms: C21_27  and  O4_28 
ROOT
HETATM    1  C4  UNL     1      26.661   5.384  48.681  1.00  0.00    -0.048 A 
HETATM    2  C5  UNL     1      27.988   4.933  48.666  1.00  0.00     0.040 A 
HETATM    3  C6  UNL     1      29.080   5.726  48.401  1.00  0.00     0.072 A 
HETATM    4  N1  UNL     1      30.336   5.252  48.398  1.00  0.00    -0.241 NA
HETATM    5  C7  UNL     1      31.398   6.058  48.135  1.00  0.00     0.236 A 
HETATM    6  N2  UNL     1      31.188   7.352  47.872  1.00  0.00    -0.223 NA
HETATM    7  C8  UNL     1      29.936   7.833  47.874  1.00  0.00     0.149 A 
HETATM    8  C16 UNL     1      28.820   7.056  48.135  1.00  0.00     0.040 A 
HETATM    9  C17 UNL     1      27.534   7.510  48.145  1.00  0.00     0.025 A 
HETATM   10  C18 UNL     1      26.421   6.724  48.409  1.00  0.00    -0.049 A 
ENDROOT
BRANCH   7  11
HETATM   11  N3  UNL     1      29.741   9.215  47.594  1.00  0.00    -0.286 N 
HETATM   12  C9  UNL     1      29.280   9.593  46.286  1.00  0.00     0.101 C 
HETATM   13  C10 UNL     1      29.497  10.784  45.714  1.00  0.00     0.024 C 
HETATM   14  C11 UNL     1      30.214  11.944  46.232  1.00  0.00    -0.061 C 
HETATM   15  C12 UNL     1      30.563  12.995  45.233  1.00  0.00     0.048 C 
HETATM   16  C13 UNL     1      30.610  12.202  47.488  1.00  0.00     0.011 C 
HETATM   17  C14 UNL     1      30.420  11.366  48.692  1.00  0.00     0.057 C 
HETATM   18  C15 UNL     1      30.043  10.078  48.694  1.00  0.00     0.147 C 
BRANCH  18  19
HETATM   19  O2  UNL     1      29.944   9.545  49.972  1.00  0.00    -0.346 OA
HETATM   20  H17 UNL     1      29.483   9.986  50.750  1.00  0.00     0.219 HD
ENDBRANCH  18  19
ENDBRANCH   7  11
BRANCH  10  21
HETATM   21  C19 UNL     1      25.057   7.297  48.334  1.00  0.00     0.065 C 
BRANCH  21  22
HETATM   22  C20 UNL     1      24.724   8.284  49.400  1.00  0.00     0.175 C 
BRANCH  22  23
HETATM   23  O3  UNL     1      24.971   7.804  50.672  1.00  0.00    -0.367 OA
BRANCH  23  24
HETATM   24  C21 UNL     1      23.985   7.013  51.202  1.00  0.00     0.334 C 
BRANCH  24  25
HETATM   25  O4  UNL     1      24.342   6.550  52.482  1.00  0.00    -0.377 OA
HETATM   26  H25 UNL     1      23.919   5.669  52.649  1.00  0.00     0.212 HD
ENDBRANCH  24  25
ENDBRANCH  23  24
ENDBRANCH  22  23
ENDBRANCH  21  22
ENDBRANCH  10  21
BRANCH   1  27
HETATM   27  C3  UNL     1      25.642   4.403  49.067  1.00  0.00     0.065 C 
BRANCH  27  28
HETATM   28  C2  UNL     1      26.282   3.395  50.032  1.00  0.00     0.171 C 
BRANCH  28  29
HETATM   29  O1  UNL     1      25.338   2.726  50.794  1.00  0.00    -0.396 OA
HETATM   30  C1  UNL     1      24.071   3.243  50.519  1.00  0.00     0.201 C 
ENDBRANCH  28  29
ENDBRANCH  27  28
ENDBRANCH   1  27
TORSDOF 10
ENDMDL
