MODEL 1
REMARK VINA RESULT:      -7.9      0.000      0.000
REMARK  5 active torsions:
REMARK  status: ('A' for Active; 'I' for Inactive)
REMARK    1  A    between atoms: C5_5  and  N1_6 
REMARK    2  A    between atoms: C7_8  and  N2_9 
REMARK    3  A    between atoms: N2_9  and  C8_10 
REMARK    4  A    between atoms: N3_11  and  C9_12 
REMARK    5  A    between atoms: C10_13  and  C11_14 
ROOT
HETATM    1  N2  UNL     1      26.052   0.850  53.362  1.00  0.00    -0.350 N 
HETATM    2  H9  UNL     1      26.033   1.903  53.556  1.00  0.00     0.166 HD
ENDROOT
BRANCH   1   3
HETATM    3  C7  UNL     1      27.316   0.251  53.368  1.00  0.00     0.040 A 
HETATM    4  C2  UNL     1      28.547   0.817  53.583  1.00  0.00    -0.035 A 
HETATM    5  C1  UNL     1      28.642   2.284  53.767  1.00  0.00     0.050 C 
HETATM    6  C3  UNL     1      29.758   0.151  53.615  1.00  0.00     0.011 A 
HETATM    7  C4  UNL     1      29.789  -1.205  53.418  1.00  0.00     0.024 A 
HETATM    8  C5  UNL     1      28.581  -1.818  53.198  1.00  0.00     0.008 A 
HETATM    9  C6  UNL     1      27.399  -1.115  53.175  1.00  0.00     0.053 A 
BRANCH   8  10
HETATM   10  N1  UNL     1      28.589  -3.217  52.990  1.00  0.00    -0.303 NA
HETATM   11  H6  UNL     1      28.785  -4.218  53.150  1.00  0.00     0.124 HD
HETATM   12  H7  UNL     1      29.128  -3.594  53.823  1.00  0.00     0.124 HD
ENDBRANCH   8  10
ENDBRANCH   1   3
BRANCH   1  13
HETATM   13  C8  UNL     1      24.773   0.252  53.160  1.00  0.00     0.207 C 
HETATM   14  N3  UNL     1      23.934   1.160  52.769  1.00  0.00    -0.256 NA
BRANCH  14  15
HETATM   15  C9  UNL     1      22.586   0.977  52.468  1.00  0.00     0.120 C 
HETATM   16  C10 UNL     1      21.685   0.097  52.861  1.00  0.00     0.052 C 
BRANCH  16  17
HETATM   17  C11 UNL     1      20.301   0.072  52.424  1.00  0.00     0.075 C 
HETATM   18  N4  UNL     1      19.583  -0.686  53.198  1.00  0.00    -0.260 NA
HETATM   19  C12 UNL     1      18.223  -1.071  53.253  1.00  0.00     0.117 C 
HETATM   20  C13 UNL     1      17.229  -0.929  52.374  1.00  0.00     0.021 C 
HETATM   21  C14 UNL     1      17.113  -0.348  51.043  1.00  0.00     0.021 C 
HETATM   22  C15 UNL     1      17.837   0.413  50.251  1.00  0.00     0.116 C 
HETATM   23  N5  UNL     1      19.116   1.004  50.415  1.00  0.00    -0.271 NA
HETATM   24  C16 UNL     1      20.100   0.900  51.242  1.00  0.00     0.147 C 
ENDBRANCH  16  17
ENDBRANCH  14  15
ENDBRANCH   1  13
TORSDOF 5
ENDMDL
MODEL 2
REMARK VINA RESULT:      -7.4      1.121      9.170
REMARK  5 active torsions:
REMARK  status: ('A' for Active; 'I' for Inactive)
REMARK    1  A    between atoms: C5_5  and  N1_6 
REMARK    2  A    between atoms: C7_8  and  N2_9 
REMARK    3  A    between atoms: N2_9  and  C8_10 
REMARK    4  A    between atoms: N3_11  and  C9_12 
REMARK    5  A    between atoms: C10_13  and  C11_14 
ROOT
HETATM    1  N2  UNL     1      21.013   1.447  51.841  1.00  0.00    -0.350 N 
HETATM    2  H9  UNL     1      20.970   2.501  52.020  1.00  0.00     0.166 HD
ENDROOT
BRANCH   1   3
HETATM    3  C7  UNL     1      19.779   0.793  51.747  1.00  0.00     0.040 A 
HETATM    4  C2  UNL     1      18.890   0.758  50.702  1.00  0.00    -0.035 A 
HETATM    5  C1  UNL     1      19.172   1.563  49.491  1.00  0.00     0.050 C 
HETATM    6  C3  UNL     1      17.702   0.053  50.664  1.00  0.00     0.011 A 
HETATM    7  C4  UNL     1      17.327  -0.697  51.748  1.00  0.00     0.024 A 
HETATM    8  C5  UNL     1      18.183  -0.692  52.821  1.00  0.00     0.008 A 
HETATM    9  C6  UNL     1      19.357   0.024  52.814  1.00  0.00     0.053 A 
BRANCH   8  10
HETATM   10  N1  UNL     1      17.814  -1.457  53.951  1.00  0.00    -0.303 NA
HETATM   11  H6  UNL     1      17.823  -2.217  54.651  1.00  0.00     0.124 HD
HETATM   12  H7  UNL     1      18.502  -2.266  53.945  1.00  0.00     0.124 HD
ENDBRANCH   8  10
ENDBRANCH   1   3
BRANCH   1  13
HETATM   13  C8  UNL     1      22.327   0.911  51.705  1.00  0.00     0.207 C 
HETATM   14  N3  UNL     1      22.959   1.038  52.831  1.00  0.00    -0.256 NA
BRANCH  14  15
HETATM   15  C9  UNL     1      24.265   0.638  53.105  1.00  0.00     0.120 C 
HETATM   16  C10 UNL     1      25.311   0.386  52.341  1.00  0.00     0.052 C 
BRANCH  16  17
HETATM   17  C11 UNL     1      26.615  -0.027  52.826  1.00  0.00     0.075 C 
HETATM   18  N4  UNL     1      27.362   1.004  53.086  1.00  0.00    -0.260 NA
HETATM   19  C12 UNL     1      28.678   1.201  53.567  1.00  0.00     0.117 C 
HETATM   20  C13 UNL     1      29.693   0.351  53.734  1.00  0.00     0.021 C 
HETATM   21  C14 UNL     1      29.883  -1.076  53.508  1.00  0.00     0.021 C 
HETATM   22  C15 UNL     1      29.134  -2.123  53.238  1.00  0.00     0.116 C 
HETATM   23  N5  UNL     1      27.735  -2.264  53.052  1.00  0.00    -0.271 NA
HETATM   24  C16 UNL     1      26.725  -1.479  52.889  1.00  0.00     0.147 C 
ENDBRANCH  16  17
ENDBRANCH  14  15
ENDBRANCH   1  13
TORSDOF 5
ENDMDL
MODEL 3
REMARK VINA RESULT:      -7.4      4.122      5.305
REMARK  5 active torsions:
REMARK  status: ('A' for Active; 'I' for Inactive)
REMARK    1  A    between atoms: C5_5  and  N1_6 
REMARK    2  A    between atoms: C7_8  and  N2_9 
REMARK    3  A    between atoms: N2_9  and  C8_10 
REMARK    4  A    between atoms: N3_11  and  C9_12 
REMARK    5  A    between atoms: C10_13  and  C11_14 
ROOT
HETATM    1  N2  UNL     1      26.101   0.935  53.093  1.00  0.00    -0.350 N 
HETATM    2  H9  UNL     1      25.419   0.784  53.904  1.00  0.00     0.166 HD
ENDROOT
BRANCH   1   3
HETATM    3  C7  UNL     1      27.334   0.283  53.203  1.00  0.00     0.040 A 
HETATM    4  C2  UNL     1      28.567   0.800  53.513  1.00  0.00    -0.035 A 
HETATM    5  C1  UNL     1      28.708   2.263  53.698  1.00  0.00     0.050 C 
HETATM    6  C3  UNL     1      29.743   0.085  53.647  1.00  0.00     0.011 A 
HETATM    7  C4  UNL     1      29.732  -1.273  53.460  1.00  0.00     0.024 A 
HETATM    8  C5  UNL     1      28.521  -1.837  53.146  1.00  0.00     0.008 A 
HETATM    9  C6  UNL     1      27.376  -1.087  53.025  1.00  0.00     0.053 A 
BRANCH   8  10
HETATM   10  N1  UNL     1      28.487  -3.237  52.947  1.00  0.00    -0.303 NA
HETATM   11  H6  UNL     1      28.345  -4.240  53.147  1.00  0.00     0.124 HD
HETATM   12  H7  UNL     1      28.132  -3.616  53.873  1.00  0.00     0.124 HD
ENDBRANCH   8  10
ENDBRANCH   1   3
BRANCH   1  13
HETATM   13  C8  UNL     1      25.608   1.753  52.035  1.00  0.00     0.207 C 
HETATM   14  N3  UNL     1      24.880   2.703  52.534  1.00  0.00    -0.256 NA
BRANCH  14  15
HETATM   15  C9  UNL     1      24.221   3.709  51.829  1.00  0.00     0.120 C 
HETATM   16  C10 UNL     1      23.480   4.735  52.201  1.00  0.00     0.052 C 
BRANCH  16  17
HETATM   17  C11 UNL     1      22.869   5.690  51.295  1.00  0.00     0.075 C 
HETATM   18  N4  UNL     1      23.657   6.703  51.087  1.00  0.00    -0.260 NA
HETATM   19  C12 UNL     1      23.591   7.892  50.323  1.00  0.00     0.117 C 
HETATM   20  C13 UNL     1      22.573   8.481  49.692  1.00  0.00     0.021 C 
HETATM   21  C14 UNL     1      21.158   8.176  49.522  1.00  0.00     0.021 C 
HETATM   22  C15 UNL     1      20.354   7.158  49.737  1.00  0.00     0.116 C 
HETATM   23  N5  UNL     1      20.586   5.861  50.261  1.00  0.00    -0.271 NA
HETATM   24  C16 UNL     1      21.546   5.252  50.872  1.00  0.00     0.147 C 
ENDBRANCH  16  17
ENDBRANCH  14  15
ENDBRANCH   1  13
TORSDOF 5
ENDMDL
MODEL 4
REMARK VINA RESULT:      -7.4      4.842      6.285
REMARK  5 active torsions:
REMARK  status: ('A' for Active; 'I' for Inactive)
REMARK    1  A    between atoms: C5_5  and  N1_6 
REMARK    2  A    between atoms: C7_8  and  N2_9 
REMARK    3  A    between atoms: N2_9  and  C8_10 
REMARK    4  A    between atoms: N3_11  and  C9_12 
REMARK    5  A    between atoms: C10_13  and  C11_14 
ROOT
HETATM    1  N2  UNL     1      26.095   0.939  52.910  1.00  0.00    -0.350 N 
HETATM    2  H9  UNL     1      25.496   1.070  53.787  1.00  0.00     0.166 HD
ENDROOT
BRANCH   1   3
HETATM    3  C7  UNL     1      27.323   0.296  53.100  1.00  0.00     0.040 A 
HETATM    4  C2  UNL     1      28.535   0.824  53.469  1.00  0.00    -0.035 A 
HETATM    5  C1  UNL     1      28.659   2.292  53.634  1.00  0.00     0.050 C 
HETATM    6  C3  UNL     1      29.704   0.118  53.679  1.00  0.00     0.011 A 
HETATM    7  C4  UNL     1      29.709  -1.243  53.517  1.00  0.00     0.024 A 
HETATM    8  C5  UNL     1      28.519  -1.819  53.147  1.00  0.00     0.008 A 
HETATM    9  C6  UNL     1      27.380  -1.076  52.949  1.00  0.00     0.053 A 
BRANCH   8  10
HETATM   10  N1  UNL     1      28.502  -3.222  52.972  1.00  0.00    -0.303 NA
HETATM   11  H6  UNL     1      28.683  -4.148  52.551  1.00  0.00     0.124 HD
HETATM   12  H7  UNL     1      29.058  -3.374  52.080  1.00  0.00     0.124 HD
ENDBRANCH   8  10
ENDBRANCH   1   3
BRANCH   1  13
HETATM   13  C8  UNL     1      25.511   1.423  51.703  1.00  0.00     0.207 C 
HETATM   14  N3  UNL     1      25.645   2.712  51.651  1.00  0.00    -0.256 NA
BRANCH  14  15
HETATM   15  C9  UNL     1      25.207   3.557  50.633  1.00  0.00     0.120 C 
HETATM   16  C10 UNL     1      25.704   4.654  50.094  1.00  0.00     0.052 C 
BRANCH  16  17
HETATM   17  C11 UNL     1      25.084   5.406  49.018  1.00  0.00     0.075 C 
HETATM   18  N4  UNL     1      25.851   6.382  48.632  1.00  0.00    -0.260 NA
HETATM   19  C12 UNL     1      25.768   7.405  47.658  1.00  0.00     0.117 C 
HETATM   20  C13 UNL     1      24.746   7.838  46.916  1.00  0.00     0.021 C 
HETATM   21  C14 UNL     1      23.342   7.468  46.790  1.00  0.00     0.021 C 
HETATM   22  C15 UNL     1      22.560   6.486  47.183  1.00  0.00     0.116 C 
HETATM   23  N5  UNL     1      22.815   5.317  47.944  1.00  0.00    -0.271 NA
HETATM   24  C16 UNL     1      23.779   4.860  48.669  1.00  0.00     0.147 C 
ENDBRANCH  16  17
ENDBRANCH  14  15
ENDBRANCH   1  13
TORSDOF 5
ENDMDL
MODEL 5
REMARK VINA RESULT:      -7.4      1.703      2.466
REMARK  5 active torsions:
REMARK  status: ('A' for Active; 'I' for Inactive)
REMARK    1  A    between atoms: C5_5  and  N1_6 
REMARK    2  A    between atoms: C7_8  and  N2_9 
REMARK    3  A    between atoms: N2_9  and  C8_10 
REMARK    4  A    between atoms: N3_11  and  C9_12 
REMARK    5  A    between atoms: C10_13  and  C11_14 
ROOT
HETATM    1  N2  UNL     1      25.705  -0.540  54.104  1.00  0.00    -0.350 N 
HETATM    2  H9  UNL     1      25.407  -1.184  54.905  1.00  0.00     0.166 HD
ENDROOT
BRANCH   1   3
HETATM    3  C7  UNL     1      27.084  -0.386  53.926  1.00  0.00     0.040 A 
HETATM    4  C2  UNL     1      27.975  -1.202  53.275  1.00  0.00    -0.035 A 
HETATM    5  C1  UNL     1      27.496  -2.489  52.717  1.00  0.00     0.050 C 
HETATM    6  C3  UNL     1      29.325  -0.964  53.102  1.00  0.00     0.011 A 
HETATM    7  C4  UNL     1      29.880   0.182  53.611  1.00  0.00     0.024 A 
HETATM    8  C5  UNL     1      29.029   1.030  54.274  1.00  0.00     0.008 A 
HETATM    9  C6  UNL     1      27.690   0.753  54.421  1.00  0.00     0.053 A 
BRANCH   8  10
HETATM   10  N1  UNL     1      29.580   2.217  54.809  1.00  0.00    -0.303 NA
HETATM   11  H6  UNL     1      30.191   2.835  55.368  1.00  0.00     0.124 HD
HETATM   12  H7  UNL     1      30.354   1.871  55.448  1.00  0.00     0.124 HD
ENDBRANCH   8  10
ENDBRANCH   1   3
BRANCH   1  13
HETATM   13  C8  UNL     1      24.633   0.019  53.349  1.00  0.00     0.207 C 
HETATM   14  N3  UNL     1      23.509  -0.253  53.937  1.00  0.00    -0.256 NA
BRANCH  14  15
HETATM   15  C9  UNL     1      22.234   0.116  53.513  1.00  0.00     0.120 C 
HETATM   16  C10 UNL     1      21.793   1.036  52.676  1.00  0.00     0.052 C 
BRANCH  16  17
HETATM   17  C11 UNL     1      20.395   1.270  52.360  1.00  0.00     0.075 C 
HETATM   18  N4  UNL     1      19.787   0.153  52.093  1.00  0.00    -0.260 NA
HETATM   19  C12 UNL     1      18.469  -0.216  51.732  1.00  0.00     0.117 C 
HETATM   20  C13 UNL     1      17.422   0.515  51.342  1.00  0.00     0.021 C 
HETATM   21  C14 UNL     1      17.188   1.937  51.128  1.00  0.00     0.021 C 
HETATM   22  C15 UNL     1      17.802   3.070  51.389  1.00  0.00     0.116 C 
HETATM   23  N5  UNL     1      19.032   3.354  52.035  1.00  0.00    -0.271 NA
HETATM   24  C16 UNL     1      20.063   2.687  52.429  1.00  0.00     0.147 C 
ENDBRANCH  16  17
ENDBRANCH  14  15
ENDBRANCH   1  13
TORSDOF 5
ENDMDL
MODEL 6
REMARK VINA RESULT:      -7.3      2.521      3.327
REMARK  5 active torsions:
REMARK  status: ('A' for Active; 'I' for Inactive)
REMARK    1  A    between atoms: C5_5  and  N1_6 
REMARK    2  A    between atoms: C7_8  and  N2_9 
REMARK    3  A    between atoms: N2_9  and  C8_10 
REMARK    4  A    between atoms: N3_11  and  C9_12 
REMARK    5  A    between atoms: C10_13  and  C11_14 
ROOT
HETATM    1  N2  UNL     1      26.106   0.990  53.578  1.00  0.00    -0.350 N 
HETATM    2  H9  UNL     1      25.837   1.344  54.551  1.00  0.00     0.166 HD
ENDROOT
BRANCH   1   3
HETATM    3  C7  UNL     1      27.341   0.338  53.486  1.00  0.00     0.040 A 
HETATM    4  C2  UNL     1      28.608   0.848  53.620  1.00  0.00    -0.035 A 
HETATM    5  C1  UNL     1      28.778   2.307  53.818  1.00  0.00     0.050 C 
HETATM    6  C3  UNL     1      29.788   0.132  53.557  1.00  0.00     0.011 A 
HETATM    7  C4  UNL     1      29.746  -1.221  53.340  1.00  0.00     0.024 A 
HETATM    8  C5  UNL     1      28.500  -1.779  53.197  1.00  0.00     0.008 A 
HETATM    9  C6  UNL     1      27.352  -1.027  53.268  1.00  0.00     0.053 A 
BRANCH   8  10
HETATM   10  N1  UNL     1      28.434  -3.173  52.970  1.00  0.00    -0.303 NA
HETATM   11  H6  UNL     1      28.041  -4.097  52.729  1.00  0.00     0.124 HD
HETATM   12  H7  UNL     1      27.427  -3.334  52.676  1.00  0.00     0.124 HD
ENDBRANCH   8  10
ENDBRANCH   1   3
BRANCH   1  13
HETATM   13  C8  UNL     1      25.137   1.228  52.560  1.00  0.00     0.207 C 
HETATM   14  N3  UNL     1      24.139   1.884  53.066  1.00  0.00    -0.256 NA
BRANCH  14  15
HETATM   15  C9  UNL     1      22.992   2.306  52.396  1.00  0.00     0.120 C 
HETATM   16  C10 UNL     1      22.454   3.493  52.188  1.00  0.00     0.052 C 
BRANCH  16  17
HETATM   17  C11 UNL     1      21.228   3.731  51.449  1.00  0.00     0.075 C 
HETATM   18  N4  UNL     1      21.465   4.401  50.360  1.00  0.00    -0.260 NA
HETATM   19  C12 UNL     1      20.682   4.899  49.292  1.00  0.00     0.117 C 
HETATM   20  C13 UNL     1      19.360   5.017  49.146  1.00  0.00     0.021 C 
HETATM   21  C14 UNL     1      18.205   4.703  49.976  1.00  0.00     0.021 C 
HETATM   22  C15 UNL     1      17.960   4.033  51.082  1.00  0.00     0.116 C 
HETATM   23  N5  UNL     1      18.806   3.301  51.954  1.00  0.00    -0.271 NA
HETATM   24  C16 UNL     1      20.075   3.157  52.129  1.00  0.00     0.147 C 
ENDBRANCH  16  17
ENDBRANCH  14  15
ENDBRANCH   1  13
TORSDOF 5
ENDMDL
MODEL 7
REMARK VINA RESULT:      -7.3      5.180      7.370
REMARK  5 active torsions:
REMARK  status: ('A' for Active; 'I' for Inactive)
REMARK    1  A    between atoms: C5_5  and  N1_6 
REMARK    2  A    between atoms: C7_8  and  N2_9 
REMARK    3  A    between atoms: N2_9  and  C8_10 
REMARK    4  A    between atoms: N3_11  and  C9_12 
REMARK    5  A    between atoms: C10_13  and  C11_14 
ROOT
HETATM    1  N2  UNL     1      27.333   4.282  49.333  1.00  0.00    -0.350 N 
HETATM    2  H9  UNL     1      28.314   3.855  49.364  1.00  0.00     0.166 HD
ENDROOT
BRANCH   1   3
HETATM    3  C7  UNL     1      27.228   5.523  48.697  1.00  0.00     0.040 A 
HETATM    4  C2  UNL     1      28.197   6.263  48.067  1.00  0.00    -0.035 A 
HETATM    5  C1  UNL     1      29.597   5.780  48.085  1.00  0.00     0.050 C 
HETATM    6  C3  UNL     1      28.010   7.471  47.420  1.00  0.00     0.011 A 
HETATM    7  C4  UNL     1      26.758   8.027  47.375  1.00  0.00     0.024 A 
HETATM    8  C5  UNL     1      25.755   7.324  47.994  1.00  0.00     0.008 A 
HETATM    9  C6  UNL     1      25.986   6.125  48.625  1.00  0.00     0.053 A 
BRANCH   8  10
HETATM   10  N1  UNL     1      24.456   7.881  47.962  1.00  0.00    -0.303 NA
HETATM   11  H6  UNL     1      23.520   8.175  48.286  1.00  0.00     0.124 HD
HETATM   12  H7  UNL     1      24.095   7.739  48.951  1.00  0.00     0.124 HD
ENDBRANCH   8  10
ENDBRANCH   1   3
BRANCH   1  13
HETATM   13  C8  UNL     1      26.310   3.485  49.926  1.00  0.00     0.207 C 
HETATM   14  N3  UNL     1      26.813   2.809  50.912  1.00  0.00    -0.256 NA
BRANCH  14  15
HETATM   15  C9  UNL     1      26.137   1.916  51.742  1.00  0.00     0.120 C 
HETATM   16  C10 UNL     1      24.872   1.792  52.094  1.00  0.00     0.052 C 
BRANCH  16  17
HETATM   17  C11 UNL     1      24.354   0.774  52.989  1.00  0.00     0.075 C 
HETATM   18  N4  UNL     1      23.054   0.769  52.984  1.00  0.00    -0.260 NA
HETATM   19  C12 UNL     1      22.046   0.021  53.637  1.00  0.00     0.117 C 
HETATM   20  C13 UNL     1      22.103  -0.831  54.663  1.00  0.00     0.021 C 
HETATM   21  C14 UNL     1      23.170  -1.339  55.516  1.00  0.00     0.021 C 
HETATM   22  C15 UNL     1      24.486  -1.331  55.531  1.00  0.00     0.116 C 
HETATM   23  N5  UNL     1      25.440  -0.776  54.641  1.00  0.00    -0.271 NA
HETATM   24  C16 UNL     1      25.430   0.042  53.644  1.00  0.00     0.147 C 
ENDBRANCH  16  17
ENDBRANCH  14  15
ENDBRANCH   1  13
TORSDOF 5
ENDMDL
MODEL 8
REMARK VINA RESULT:      -7.1      5.698      9.404
REMARK  5 active torsions:
REMARK  status: ('A' for Active; 'I' for Inactive)
REMARK    1  A    between atoms: C5_5  and  N1_6 
REMARK    2  A    between atoms: C7_8  and  N2_9 
REMARK    3  A    between atoms: N2_9  and  C8_10 
REMARK    4  A    between atoms: N3_11  and  C9_12 
REMARK    5  A    between atoms: C10_13  and  C11_14 
ROOT
HETATM    1  N2  UNL     1      25.529   5.512  48.876  1.00  0.00    -0.350 N 
HETATM    2  H9  UNL     1      24.612   5.103  48.505  1.00  0.00     0.166 HD
ENDROOT
BRANCH   1   3
HETATM    3  C7  UNL     1      25.603   6.908  48.915  1.00  0.00     0.040 A 
HETATM    4  C2  UNL     1      24.916   7.838  48.175  1.00  0.00    -0.035 A 
HETATM    5  C1  UNL     1      24.000   7.373  47.108  1.00  0.00     0.050 C 
HETATM    6  C3  UNL     1      25.012   9.211  48.297  1.00  0.00     0.011 A 
HETATM    7  C4  UNL     1      25.860   9.750  49.230  1.00  0.00     0.024 A 
HETATM    8  C5  UNL     1      26.571   8.859  49.994  1.00  0.00     0.008 A 
HETATM    9  C6  UNL     1      26.444   7.499  49.839  1.00  0.00     0.053 A 
BRANCH   8  10
HETATM   10  N1  UNL     1      27.454   9.392  50.962  1.00  0.00    -0.303 NA
HETATM   11  H6  UNL     1      28.328   9.565  51.484  1.00  0.00     0.124 HD
HETATM   12  H7  UNL     1      28.388   8.944  50.728  1.00  0.00     0.124 HD
ENDBRANCH   8  10
ENDBRANCH   1   3
BRANCH   1  13
HETATM   13  C8  UNL     1      26.496   4.548  49.287  1.00  0.00     0.207 C 
HETATM   14  N3  UNL     1      25.983   3.797  50.212  1.00  0.00    -0.256 NA
BRANCH  14  15
HETATM   15  C9  UNL     1      26.608   2.740  50.871  1.00  0.00     0.120 C 
HETATM   16  C10 UNL     1      26.334   2.080  51.980  1.00  0.00     0.052 C 
BRANCH  16  17
HETATM   17  C11 UNL     1      27.125   0.985  52.513  1.00  0.00     0.075 C 
HETATM   18  N4  UNL     1      28.270   1.413  52.956  1.00  0.00    -0.260 NA
HETATM   19  C12 UNL     1      29.403   0.818  53.561  1.00  0.00     0.117 C 
HETATM   20  C13 UNL     1      29.759  -0.461  53.702  1.00  0.00     0.021 C 
HETATM   21  C14 UNL     1      29.173  -1.737  53.316  1.00  0.00     0.021 C 
HETATM   22  C15 UNL     1      28.019  -2.175  52.860  1.00  0.00     0.116 C 
HETATM   23  N5  UNL     1      26.808  -1.506  52.547  1.00  0.00    -0.271 NA
HETATM   24  C16 UNL     1      26.420  -0.284  52.403  1.00  0.00     0.147 C 
ENDBRANCH  16  17
ENDBRANCH  14  15
ENDBRANCH   1  13
TORSDOF 5
ENDMDL
MODEL 9
REMARK VINA RESULT:      -7.1      4.032      5.507
REMARK  5 active torsions:
REMARK  status: ('A' for Active; 'I' for Inactive)
REMARK    1  A    between atoms: C5_5  and  N1_6 
REMARK    2  A    between atoms: C7_8  and  N2_9 
REMARK    3  A    between atoms: N2_9  and  C8_10 
REMARK    4  A    between atoms: N3_11  and  C9_12 
REMARK    5  A    between atoms: C10_13  and  C11_14 
ROOT
HETATM    1  N2  UNL     1      25.486   0.298  53.222  1.00  0.00    -0.350 N 
HETATM    2  H9  UNL     1      24.859  -0.226  53.913  1.00  0.00     0.166 HD
ENDROOT
BRANCH   1   3
HETATM    3  C7  UNL     1      26.863   0.139  53.406  1.00  0.00     0.040 A 
HETATM    4  C2  UNL     1      27.663  -0.936  53.109  1.00  0.00    -0.035 A 
HETATM    5  C1  UNL     1      27.040  -2.173  52.584  1.00  0.00     0.050 C 
HETATM    6  C3  UNL     1      29.033  -1.007  53.281  1.00  0.00     0.011 A 
HETATM    7  C4  UNL     1      29.706   0.070  53.796  1.00  0.00     0.024 A 
HETATM    8  C5  UNL     1      28.948   1.170  54.111  1.00  0.00     0.008 A 
HETATM    9  C6  UNL     1      27.587   1.197  53.921  1.00  0.00     0.053 A 
BRANCH   8  10
HETATM   10  N1  UNL     1      29.621   2.293  54.645  1.00  0.00    -0.303 NA
HETATM   11  H6  UNL     1      30.076   2.910  55.337  1.00  0.00     0.124 HD
HETATM   12  H7  UNL     1      29.732   2.056  55.675  1.00  0.00     0.124 HD
ENDBRANCH   8  10
ENDBRANCH   1   3
BRANCH   1  13
HETATM   13  C8  UNL     1      24.792   1.040  52.222  1.00  0.00     0.207 C 
HETATM   14  N3  UNL     1      24.628   2.260  52.632  1.00  0.00    -0.256 NA
BRANCH  14  15
HETATM   15  C9  UNL     1      23.996   3.294  51.945  1.00  0.00     0.120 C 
HETATM   16  C10 UNL     1      23.688   4.536  52.267  1.00  0.00     0.052 C 
BRANCH  16  17
HETATM   17  C11 UNL     1      23.015   5.479  51.393  1.00  0.00     0.075 C 
HETATM   18  N4  UNL     1      23.703   6.576  51.277  1.00  0.00    -0.260 NA
HETATM   19  C12 UNL     1      23.543   7.797  50.580  1.00  0.00     0.117 C 
HETATM   20  C13 UNL     1      22.493   8.319  49.942  1.00  0.00     0.021 C 
HETATM   21  C14 UNL     1      21.125   7.885  49.694  1.00  0.00     0.021 C 
HETATM   22  C15 UNL     1      20.421   6.780  49.816  1.00  0.00     0.116 C 
HETATM   23  N5  UNL     1      20.766   5.483  50.274  1.00  0.00    -0.271 NA
HETATM   24  C16 UNL     1      21.760   4.937  50.889  1.00  0.00     0.147 C 
ENDBRANCH  16  17
ENDBRANCH  14  15
ENDBRANCH   1  13
TORSDOF 5
ENDMDL
