MODEL 1
REMARK VINA RESULT:      -8.1      0.000      0.000
REMARK  8 active torsions:
REMARK  status: ('A' for Active; 'I' for Inactive)
REMARK    1  A    between atoms: C4_4  and  C5_5 
REMARK    2  A    between atoms: C5_5  and  N1_6 
REMARK    3  A    between atoms: N1_6  and  C6_8 
REMARK    4  A    between atoms: C6_8  and  C7_9 
REMARK    5  A    between atoms: C8_10  and  C9_11 
REMARK    6  A    between atoms: C9_11  and  N2_12 
REMARK    7  A    between atoms: C16_21  and  N5_22 
REMARK    8  A    between atoms: N5_22  and  C17_23 
ROOT
HETATM    1  C1  UNL     1      26.685   3.631  49.697  1.00  0.00     0.036 C 
HETATM    2  C2  UNL     1      26.080   2.648  50.595  1.00  0.00    -0.021 C 
HETATM    3  C3  UNL     1      25.063   2.333  51.368  1.00  0.00    -0.025 C 
HETATM    4  C4  UNL     1      23.889   3.160  51.608  1.00  0.00    -0.018 C 
HETATM    5  C12 UNL     1      22.883   2.682  52.320  1.00  0.00     0.107 C 
HETATM    6  N3  UNL     1      22.917   1.374  52.870  1.00  0.00    -0.316 N 
HETATM    7  C13 UNL     1      21.947   0.759  53.563  1.00  0.00     0.213 A 
HETATM    8  N4  UNL     1      22.436  -0.453  53.809  1.00  0.00    -0.254 NA
HETATM    9  C14 UNL     1      23.652  -0.575  53.291  1.00  0.00     0.146 A 
HETATM   10  C15 UNL     1      23.988   0.596  52.679  1.00  0.00     0.061 A 
HETATM   11  C16 UNL     1      25.240   0.968  51.991  1.00  0.00     0.167 C 
ENDROOT
BRANCH   4  12
HETATM   12  C5  UNL     1      23.819   4.532  51.089  1.00  0.00     0.166 C 
BRANCH  12  13
HETATM   13  N1  UNL     1      23.003   4.575  49.895  1.00  0.00    -0.147 NA
HETATM   14  F1  UNL     1      23.418   3.782  48.914  1.00  0.00    -0.133 F 
BRANCH  13  15
HETATM   15  C6  UNL     1      22.985   5.943  49.415  1.00  0.00     0.153 C 
BRANCH  15  16
HETATM   16  C7  UNL     1      24.386   6.475  49.385  1.00  0.00    -0.012 C 
HETATM   17  C8  UNL     1      24.929   6.846  48.229  1.00  0.00     0.000 C 
BRANCH  17  18
HETATM   18  C9  UNL     1      26.228   7.396  47.814  1.00  0.00     0.298 C 
BRANCH  18  19
HETATM   19  N2  UNL     1      27.272   7.260  48.807  1.00  0.00     0.083 N 
HETATM   20  C10 UNL     1      27.802   8.545  49.215  1.00  0.00     0.309 C 
HETATM   21  C11 UNL     1      28.372   6.548  48.136  1.00  0.00     0.309 C 
ENDBRANCH  18  19
ENDBRANCH  17  18
ENDBRANCH  15  16
ENDBRANCH  13  15
ENDBRANCH  12  13
ENDBRANCH   4  12
BRANCH  11  22
HETATM   22  N5  UNL     1      26.327   1.038  52.979  1.00  0.00    -0.375 N 
HETATM   23  H23 UNL     1      26.161   1.766  53.736  1.00  0.00     0.160 HD
BRANCH  22  24
HETATM   24  C17 UNL     1      27.568   0.381  53.202  1.00  0.00     0.034 A 
HETATM   25  C18 UNL     1      27.573  -0.989  53.057  1.00  0.00     0.029 A 
HETATM   26  C19 UNL     1      28.699  -1.774  53.213  1.00  0.00     0.002 A 
HETATM   27  C20 UNL     1      29.896  -1.136  53.535  1.00  0.00     0.001 A 
HETATM   28  C21 UNL     1      29.865   0.233  53.673  1.00  0.00     0.009 A 
HETATM   29  C22 UNL     1      28.763   1.034  53.525  1.00  0.00    -0.036 A 
HETATM   30  C23 UNL     1      28.724   2.508  53.666  1.00  0.00     0.050 C 
ENDBRANCH  22  24
ENDBRANCH  11  22
TORSDOF 8
ENDMDL
MODEL 2
REMARK VINA RESULT:      -7.9      3.664      8.101
REMARK  8 active torsions:
REMARK  status: ('A' for Active; 'I' for Inactive)
REMARK    1  A    between atoms: C4_4  and  C5_5 
REMARK    2  A    between atoms: C5_5  and  N1_6 
REMARK    3  A    between atoms: N1_6  and  C6_8 
REMARK    4  A    between atoms: C6_8  and  C7_9 
REMARK    5  A    between atoms: C8_10  and  C9_11 
REMARK    6  A    between atoms: C9_11  and  N2_12 
REMARK    7  A    between atoms: C16_21  and  N5_22 
REMARK    8  A    between atoms: N5_22  and  C17_23 
ROOT
HETATM    1  C1  UNL     1      23.035  -1.248  55.060  1.00  0.00     0.036 C 
HETATM    2  C2  UNL     1      23.648  -0.307  54.124  1.00  0.00    -0.021 C 
HETATM    3  C3  UNL     1      23.519   0.401  53.022  1.00  0.00    -0.025 C 
HETATM    4  C4  UNL     1      22.339   0.441  52.169  1.00  0.00    -0.018 C 
HETATM    5  C12 UNL     1      22.295   1.280  51.148  1.00  0.00     0.107 C 
HETATM    6  N3  UNL     1      23.378   2.147  50.851  1.00  0.00    -0.316 N 
HETATM    7  C13 UNL     1      23.434   3.072  49.881  1.00  0.00     0.213 A 
HETATM    8  N4  UNL     1      24.621   3.649  50.045  1.00  0.00    -0.254 NA
HETATM    9  C14 UNL     1      25.264   3.100  51.069  1.00  0.00     0.146 A 
HETATM   10  C15 UNL     1      24.480   2.124  51.607  1.00  0.00     0.061 A 
HETATM   11  C16 UNL     1      24.762   1.210  52.732  1.00  0.00     0.167 C 
ENDROOT
BRANCH   4  12
HETATM   12  C5  UNL     1      21.205  -0.459  52.415  1.00  0.00     0.166 C 
BRANCH  12  13
HETATM   13  N1  UNL     1      20.125   0.258  53.057  1.00  0.00    -0.147 NA
HETATM   14  F1  UNL     1      20.212   0.317  54.381  1.00  0.00    -0.133 F 
BRANCH  13  15
HETATM   15  C6  UNL     1      18.881  -0.393  52.699  1.00  0.00     0.153 C 
BRANCH  15  16
HETATM   16  C7  UNL     1      18.679  -1.592  53.577  1.00  0.00    -0.012 C 
HETATM   17  C8  UNL     1      17.722  -2.469  53.289  1.00  0.00     0.000 C 
BRANCH  17  18
HETATM   18  C9  UNL     1      17.237  -3.720  53.891  1.00  0.00     0.298 C 
BRANCH  18  19
HETATM   19  N2  UNL     1      16.283  -4.439  53.074  1.00  0.00     0.083 N 
HETATM   20  C10 UNL     1      15.146  -3.616  52.718  1.00  0.00     0.309 C 
HETATM   21  C11 UNL     1      15.765  -5.523  53.925  1.00  0.00     0.309 C 
ENDBRANCH  18  19
ENDBRANCH  17  18
ENDBRANCH  15  16
ENDBRANCH  13  15
ENDBRANCH  12  13
ENDBRANCH   4  12
BRANCH  11  22
HETATM   22  N5  UNL     1      25.842   0.291  52.345  1.00  0.00    -0.375 N 
HETATM   23  H23 UNL     1      25.584  -0.343  51.531  1.00  0.00     0.160 HD
BRANCH  22  24
HETATM   24  C17 UNL     1      27.171   0.015  52.772  1.00  0.00     0.034 A 
HETATM   25  C18 UNL     1      27.926   1.096  53.170  1.00  0.00     0.029 A 
HETATM   26  C19 UNL     1      29.222   0.997  53.635  1.00  0.00     0.002 A 
HETATM   27  C20 UNL     1      29.793  -0.273  53.705  1.00  0.00     0.001 A 
HETATM   28  C21 UNL     1      29.018  -1.336  53.303  1.00  0.00     0.009 A 
HETATM   29  C22 UNL     1      27.731  -1.266  52.837  1.00  0.00    -0.036 A 
HETATM   30  C23 UNL     1      26.889  -2.407  52.408  1.00  0.00     0.050 C 
ENDBRANCH  22  24
ENDBRANCH  11  22
TORSDOF 8
ENDMDL
MODEL 3
REMARK VINA RESULT:      -7.9      2.947      5.964
REMARK  8 active torsions:
REMARK  status: ('A' for Active; 'I' for Inactive)
REMARK    1  A    between atoms: C4_4  and  C5_5 
REMARK    2  A    between atoms: C5_5  and  N1_6 
REMARK    3  A    between atoms: N1_6  and  C6_8 
REMARK    4  A    between atoms: C6_8  and  C7_9 
REMARK    5  A    between atoms: C8_10  and  C9_11 
REMARK    6  A    between atoms: C9_11  and  N2_12 
REMARK    7  A    between atoms: C16_21  and  N5_22 
REMARK    8  A    between atoms: N5_22  and  C17_23 
ROOT
HETATM    1  C1  UNL     1      23.744  -1.255  55.311  1.00  0.00     0.036 C 
HETATM    2  C2  UNL     1      24.202  -0.301  54.303  1.00  0.00    -0.021 C 
HETATM    3  C3  UNL     1      23.918   0.382  53.214  1.00  0.00    -0.025 C 
HETATM    4  C4  UNL     1      22.653   0.349  52.495  1.00  0.00    -0.018 C 
HETATM    5  C12 UNL     1      22.455   1.167  51.475  1.00  0.00     0.107 C 
HETATM    6  N3  UNL     1      23.453   2.082  51.052  1.00  0.00    -0.316 N 
HETATM    7  C13 UNL     1      23.356   2.992  50.071  1.00  0.00     0.213 A 
HETATM    8  N4  UNL     1      24.523   3.630  50.098  1.00  0.00    -0.254 NA
HETATM    9  C14 UNL     1      25.301   3.131  51.052  1.00  0.00     0.146 A 
HETATM   10  C15 UNL     1      24.631   2.126  51.684  1.00  0.00     0.061 A 
HETATM   11  C16 UNL     1      25.079   1.247  52.781  1.00  0.00     0.167 C 
ENDROOT
BRANCH   4  12
HETATM   12  C5  UNL     1      21.600  -0.603  52.873  1.00  0.00     0.166 C 
BRANCH  12  13
HETATM   13  N1  UNL     1      20.487   0.095  53.478  1.00  0.00    -0.147 NA
HETATM   14  F1  UNL     1      20.672   0.432  54.749  1.00  0.00    -0.133 F 
BRANCH  13  15
HETATM   15  C6  UNL     1      19.320  -0.760  53.387  1.00  0.00     0.153 C 
BRANCH  15  16
HETATM   16  C7  UNL     1      18.506  -0.360  52.193  1.00  0.00    -0.012 C 
HETATM   17  C8  UNL     1      18.776   0.777  51.559  1.00  0.00     0.000 C 
BRANCH  17  18
HETATM   18  C9  UNL     1      18.220   1.481  50.394  1.00  0.00     0.298 C 
BRANCH  18  19
HETATM   19  N2  UNL     1      18.592   2.878  50.313  1.00  0.00     0.083 N 
HETATM   20  C10 UNL     1      19.572   3.118  49.274  1.00  0.00     0.309 C 
HETATM   21  C11 UNL     1      19.252   3.189  51.592  1.00  0.00     0.309 C 
ENDBRANCH  18  19
ENDBRANCH  17  18
ENDBRANCH  15  16
ENDBRANCH  13  15
ENDBRANCH  12  13
ENDBRANCH   4  12
BRANCH  11  22
HETATM   22  N5  UNL     1      26.157   0.376  52.289  1.00  0.00    -0.375 N 
HETATM   23  H23 UNL     1      25.959  -0.038  51.330  1.00  0.00     0.160 HD
BRANCH  22  24
HETATM   24  C17 UNL     1      27.424  -0.071  52.757  1.00  0.00     0.034 A 
HETATM   25  C18 UNL     1      28.293   0.902  53.202  1.00  0.00     0.029 A 
HETATM   26  C19 UNL     1      29.549   0.635  53.710  1.00  0.00     0.002 A 
HETATM   27  C20 UNL     1      29.953  -0.698  53.777  1.00  0.00     0.001 A 
HETATM   28  C21 UNL     1      29.067  -1.650  53.328  1.00  0.00     0.009 A 
HETATM   29  C22 UNL     1      27.817  -1.412  52.818  1.00  0.00    -0.036 A 
HETATM   30  C23 UNL     1      26.855  -2.433  52.339  1.00  0.00     0.050 C 
ENDBRANCH  22  24
ENDBRANCH  11  22
TORSDOF 8
ENDMDL
MODEL 4
REMARK VINA RESULT:      -7.8      1.896      3.750
REMARK  8 active torsions:
REMARK  status: ('A' for Active; 'I' for Inactive)
REMARK    1  A    between atoms: C4_4  and  C5_5 
REMARK    2  A    between atoms: C5_5  and  N1_6 
REMARK    3  A    between atoms: N1_6  and  C6_8 
REMARK    4  A    between atoms: C6_8  and  C7_9 
REMARK    5  A    between atoms: C8_10  and  C9_11 
REMARK    6  A    between atoms: C9_11  and  N2_12 
REMARK    7  A    between atoms: C16_21  and  N5_22 
REMARK    8  A    between atoms: N5_22  and  C17_23 
ROOT
HETATM    1  C1  UNL     1      26.678   3.696  49.643  1.00  0.00     0.036 C 
HETATM    2  C2  UNL     1      26.074   2.715  50.544  1.00  0.00    -0.021 C 
HETATM    3  C3  UNL     1      25.062   2.406  51.326  1.00  0.00    -0.025 C 
HETATM    4  C4  UNL     1      23.896   3.240  51.579  1.00  0.00    -0.018 C 
HETATM    5  C12 UNL     1      22.894   2.768  52.300  1.00  0.00     0.107 C 
HETATM    6  N3  UNL     1      22.924   1.459  52.847  1.00  0.00    -0.316 N 
HETATM    7  C13 UNL     1      21.956   0.850  53.548  1.00  0.00     0.213 A 
HETATM    8  N4  UNL     1      22.438  -0.366  53.787  1.00  0.00    -0.254 NA
HETATM    9  C14 UNL     1      23.649  -0.496  53.257  1.00  0.00     0.146 A 
HETATM   10  C15 UNL     1      23.987   0.673  52.644  1.00  0.00     0.061 A 
HETATM   11  C16 UNL     1      25.235   1.038  51.945  1.00  0.00     0.167 C 
ENDROOT
BRANCH   4  12
HETATM   12  C5  UNL     1      23.831   4.614  51.063  1.00  0.00     0.166 C 
BRANCH  12  13
HETATM   13  N1  UNL     1      23.115   4.644  49.807  1.00  0.00    -0.147 NA
HETATM   14  F1  UNL     1      23.833   5.068  48.773  1.00  0.00    -0.133 F 
BRANCH  13  15
HETATM   15  C6  UNL     1      21.967   5.515  49.967  1.00  0.00     0.153 C 
BRANCH  15  16
HETATM   16  C7  UNL     1      20.712   4.698  49.884  1.00  0.00    -0.012 C 
HETATM   17  C8  UNL     1      20.709   3.557  49.201  1.00  0.00     0.000 C 
BRANCH  17  18
HETATM   18  C9  UNL     1      19.709   2.521  48.903  1.00  0.00     0.298 C 
BRANCH  18  19
HETATM   19  N2  UNL     1      20.095   1.190  49.319  1.00  0.00     0.083 N 
HETATM   20  C10 UNL     1      19.746   0.931  50.701  1.00  0.00     0.309 C 
HETATM   21  C11 UNL     1      21.565   1.159  49.246  1.00  0.00     0.309 C 
ENDBRANCH  18  19
ENDBRANCH  17  18
ENDBRANCH  15  16
ENDBRANCH  13  15
ENDBRANCH  12  13
ENDBRANCH   4  12
BRANCH  11  22
HETATM   22  N5  UNL     1      26.332   1.099  52.923  1.00  0.00    -0.375 N 
HETATM   23  H23 UNL     1      26.198   1.855  53.659  1.00  0.00     0.160 HD
BRANCH  22  24
HETATM   24  C17 UNL     1      27.551   0.404  53.158  1.00  0.00     0.034 A 
HETATM   25  C18 UNL     1      27.519  -0.964  52.995  1.00  0.00     0.029 A 
HETATM   26  C19 UNL     1      28.620  -1.782  53.159  1.00  0.00     0.002 A 
HETATM   27  C20 UNL     1      29.829  -1.182  53.507  1.00  0.00     0.001 A 
HETATM   28  C21 UNL     1      29.834   0.185  53.663  1.00  0.00     0.009 A 
HETATM   29  C22 UNL     1      28.758   1.019  53.508  1.00  0.00    -0.036 A 
HETATM   30  C23 UNL     1      28.758   2.492  53.667  1.00  0.00     0.050 C 
ENDBRANCH  22  24
ENDBRANCH  11  22
TORSDOF 8
ENDMDL
MODEL 5
REMARK VINA RESULT:      -7.6      3.650      7.493
REMARK  8 active torsions:
REMARK  status: ('A' for Active; 'I' for Inactive)
REMARK    1  A    between atoms: C4_4  and  C5_5 
REMARK    2  A    between atoms: C5_5  and  N1_6 
REMARK    3  A    between atoms: N1_6  and  C6_8 
REMARK    4  A    between atoms: C6_8  and  C7_9 
REMARK    5  A    between atoms: C8_10  and  C9_11 
REMARK    6  A    between atoms: C9_11  and  N2_12 
REMARK    7  A    between atoms: C16_21  and  N5_22 
REMARK    8  A    between atoms: N5_22  and  C17_23 
ROOT
HETATM    1  C1  UNL     1      22.564  -0.815  54.259  1.00  0.00     0.036 C 
HETATM    2  C2  UNL     1      23.342   0.113  53.439  1.00  0.00    -0.021 C 
HETATM    3  C3  UNL     1      23.407   0.831  52.338  1.00  0.00    -0.025 C 
HETATM    4  C4  UNL     1      22.376   0.912  51.313  1.00  0.00    -0.018 C 
HETATM    5  C12 UNL     1      22.515   1.757  50.306  1.00  0.00     0.107 C 
HETATM    6  N3  UNL     1      23.656   2.594  50.190  1.00  0.00    -0.316 N 
HETATM    7  C13 UNL     1      23.889   3.522  49.250  1.00  0.00     0.213 A 
HETATM    8  N4  UNL     1      25.053   4.062  49.603  1.00  0.00    -0.254 NA
HETATM    9  C14 UNL     1      25.512   3.488  50.709  1.00  0.00     0.146 A 
HETATM   10  C15 UNL     1      24.626   2.533  51.108  1.00  0.00     0.061 A 
HETATM   11  C16 UNL     1      24.703   1.604  52.254  1.00  0.00     0.167 C 
ENDROOT
BRANCH   4  12
HETATM   12  C5  UNL     1      21.193   0.044  51.370  1.00  0.00     0.166 C 
BRANCH  12  13
HETATM   13  N1  UNL     1      20.071   0.763  51.934  1.00  0.00    -0.147 NA
HETATM   14  F1  UNL     1      20.395   1.637  52.879  1.00  0.00    -0.133 F 
BRANCH  13  15
HETATM   15  C6  UNL     1      19.151  -0.209  52.491  1.00  0.00     0.153 C 
BRANCH  15  16
HETATM   16  C7  UNL     1      17.774   0.050  51.957  1.00  0.00    -0.012 C 
HETATM   17  C8  UNL     1      16.721  -0.511  52.544  1.00  0.00     0.000 C 
BRANCH  17  18
HETATM   18  C9  UNL     1      15.267  -0.495  52.317  1.00  0.00     0.298 C 
BRANCH  18  19
HETATM   19  N2  UNL     1      14.526   0.284  53.285  1.00  0.00     0.083 N 
HETATM   20  C10 UNL     1      13.151  -0.157  53.397  1.00  0.00     0.309 C 
HETATM   21  C11 UNL     1      14.484   1.654  52.747  1.00  0.00     0.309 C 
ENDBRANCH  18  19
ENDBRANCH  17  18
ENDBRANCH  15  16
ENDBRANCH  13  15
ENDBRANCH  12  13
ENDBRANCH   4  12
BRANCH  11  22
HETATM   22  N5  UNL     1      25.803   0.656  52.030  1.00  0.00    -0.375 N 
HETATM   23  H23 UNL     1      25.623  -0.015  51.224  1.00  0.00     0.160 HD
BRANCH  22  24
HETATM   24  C17 UNL     1      27.074   0.386  52.610  1.00  0.00     0.034 A 
HETATM   25  C18 UNL     1      27.826   1.480  52.979  1.00  0.00     0.029 A 
HETATM   26  C19 UNL     1      29.067   1.392  53.577  1.00  0.00     0.002 A 
HETATM   27  C20 UNL     1      29.582   0.120  53.822  1.00  0.00     0.001 A 
HETATM   28  C21 UNL     1      28.812  -0.956  53.445  1.00  0.00     0.009 A 
HETATM   29  C22 UNL     1      27.579  -0.897  52.850  1.00  0.00    -0.036 A 
HETATM   30  C23 UNL     1      26.741  -2.051  52.448  1.00  0.00     0.050 C 
ENDBRANCH  22  24
ENDBRANCH  11  22
TORSDOF 8
ENDMDL
MODEL 6
REMARK VINA RESULT:      -7.5      2.120      4.917
REMARK  8 active torsions:
REMARK  status: ('A' for Active; 'I' for Inactive)
REMARK    1  A    between atoms: C4_4  and  C5_5 
REMARK    2  A    between atoms: C5_5  and  N1_6 
REMARK    3  A    between atoms: N1_6  and  C6_8 
REMARK    4  A    between atoms: C6_8  and  C7_9 
REMARK    5  A    between atoms: C8_10  and  C9_11 
REMARK    6  A    between atoms: C9_11  and  N2_12 
REMARK    7  A    between atoms: C16_21  and  N5_22 
REMARK    8  A    between atoms: N5_22  and  C17_23 
ROOT
HETATM    1  C1  UNL     1      22.452   4.149  50.301  1.00  0.00     0.036 C 
HETATM    2  C2  UNL     1      23.278   3.365  51.217  1.00  0.00    -0.021 C 
HETATM    3  C3  UNL     1      24.482   2.938  51.532  1.00  0.00    -0.025 C 
HETATM    4  C4  UNL     1      25.708   3.237  50.807  1.00  0.00    -0.018 C 
HETATM    5  C12 UNL     1      26.872   2.838  51.290  1.00  0.00     0.107 C 
HETATM    6  N3  UNL     1      26.962   2.113  52.506  1.00  0.00    -0.316 N 
HETATM    7  C13 UNL     1      28.079   1.698  53.123  1.00  0.00     0.213 A 
HETATM    8  N4  UNL     1      27.643   1.116  54.237  1.00  0.00    -0.254 NA
HETATM    9  C14 UNL     1      26.318   1.171  54.298  1.00  0.00     0.146 A 
HETATM   10  C15 UNL     1      25.853   1.810  53.188  1.00  0.00     0.061 A 
HETATM   11  C16 UNL     1      24.461   2.087  52.781  1.00  0.00     0.167 C 
ENDROOT
BRANCH   4  12
HETATM   12  C5  UNL     1      25.665   3.957  49.527  1.00  0.00     0.166 C 
BRANCH  12  13
HETATM   13  N1  UNL     1      25.980   5.355  49.727  1.00  0.00    -0.147 NA
HETATM   14  F1  UNL     1      24.922   6.141  49.890  1.00  0.00    -0.133 F 
BRANCH  13  15
HETATM   15  C6  UNL     1      26.730   5.814  48.575  1.00  0.00     0.153 C 
BRANCH  15  16
HETATM   16  C7  UNL     1      28.047   5.098  48.525  1.00  0.00    -0.012 C 
HETATM   17  C8  UNL     1      29.137   5.745  48.124  1.00  0.00     0.000 C 
BRANCH  17  18
HETATM   18  C9  UNL     1      30.555   5.394  47.948  1.00  0.00     0.298 C 
BRANCH  18  19
HETATM   19  N2  UNL     1      31.415   6.526  47.678  1.00  0.00     0.083 N 
HETATM   20  C10 UNL     1      32.119   6.383  46.420  1.00  0.00     0.309 C 
HETATM   21  C11 UNL     1      32.440   6.509  48.734  1.00  0.00     0.309 C 
ENDBRANCH  18  19
ENDBRANCH  17  18
ENDBRANCH  15  16
ENDBRANCH  13  15
ENDBRANCH  12  13
ENDBRANCH   4  12
BRANCH  11  22
HETATM   22  N5  UNL     1      23.789   0.816  52.473  1.00  0.00    -0.375 N 
HETATM   23  H23 UNL     1      24.125   0.371  51.568  1.00  0.00     0.160 HD
BRANCH  22  24
HETATM   24  C17 UNL     1      22.790   0.000  53.073  1.00  0.00     0.034 A 
HETATM   25  C18 UNL     1      23.148  -0.664  54.226  1.00  0.00     0.029 A 
HETATM   26  C19 UNL     1      22.290  -1.473  54.944  1.00  0.00     0.002 A 
HETATM   27  C20 UNL     1      20.987  -1.621  54.470  1.00  0.00     0.001 A 
HETATM   28  C21 UNL     1      20.654  -0.947  53.317  1.00  0.00     0.009 A 
HETATM   29  C22 UNL     1      21.485  -0.140  52.586  1.00  0.00    -0.036 A 
HETATM   30  C23 UNL     1      21.131   0.594  51.348  1.00  0.00     0.050 C 
ENDBRANCH  22  24
ENDBRANCH  11  22
TORSDOF 8
ENDMDL
MODEL 7
REMARK VINA RESULT:      -7.3      2.363      5.953
REMARK  8 active torsions:
REMARK  status: ('A' for Active; 'I' for Inactive)
REMARK    1  A    between atoms: C4_4  and  C5_5 
REMARK    2  A    between atoms: C5_5  and  N1_6 
REMARK    3  A    between atoms: N1_6  and  C6_8 
REMARK    4  A    between atoms: C6_8  and  C7_9 
REMARK    5  A    between atoms: C8_10  and  C9_11 
REMARK    6  A    between atoms: C9_11  and  N2_12 
REMARK    7  A    between atoms: C16_21  and  N5_22 
REMARK    8  A    between atoms: N5_22  and  C17_23 
ROOT
HETATM    1  C1  UNL     1      22.607   4.405  52.297  1.00  0.00     0.036 C 
HETATM    2  C2  UNL     1      23.174   3.088  52.583  1.00  0.00    -0.021 C 
HETATM    3  C3  UNL     1      24.198   2.271  52.451  1.00  0.00    -0.025 C 
HETATM    4  C4  UNL     1      25.441   2.570  51.755  1.00  0.00    -0.018 C 
HETATM    5  C12 UNL     1      26.438   1.702  51.790  1.00  0.00     0.107 C 
HETATM    6  N3  UNL     1      26.329   0.471  52.487  1.00  0.00    -0.316 N 
HETATM    7  C13 UNL     1      27.279  -0.463  52.637  1.00  0.00     0.213 A 
HETATM    8  N4  UNL     1      26.710  -1.390  53.403  1.00  0.00    -0.254 NA
HETATM    9  C14 UNL     1      25.466  -1.040  53.707  1.00  0.00     0.146 A 
HETATM   10  C15 UNL     1      25.194   0.162  53.124  1.00  0.00     0.061 A 
HETATM   11  C16 UNL     1      23.945   0.948  53.137  1.00  0.00     0.167 C 
ENDROOT
BRANCH   4  12
HETATM   12  C5  UNL     1      25.592   3.816  50.992  1.00  0.00     0.166 C 
BRANCH  12  13
HETATM   13  N1  UNL     1      25.584   3.538  49.573  1.00  0.00    -0.147 NA
HETATM   14  F1  UNL     1      26.782   3.562  48.999  1.00  0.00    -0.133 F 
BRANCH  13  15
HETATM   15  C6  UNL     1      24.738   4.523  48.929  1.00  0.00     0.153 C 
BRANCH  15  16
HETATM   16  C7  UNL     1      23.335   3.998  48.856  1.00  0.00    -0.012 C 
HETATM   17  C8  UNL     1      22.317   4.845  48.730  1.00  0.00     0.000 C 
BRANCH  17  18
HETATM   18  C9  UNL     1      20.856   4.713  48.630  1.00  0.00     0.298 C 
BRANCH  18  19
HETATM   19  N2  UNL     1      20.326   3.517  49.248  1.00  0.00     0.083 N 
HETATM   20  C10 UNL     1      19.654   2.664  48.289  1.00  0.00     0.309 C 
HETATM   21  C11 UNL     1      19.294   3.979  50.191  1.00  0.00     0.309 C 
ENDBRANCH  18  19
ENDBRANCH  17  18
ENDBRANCH  15  16
ENDBRANCH  13  15
ENDBRANCH  12  13
ENDBRANCH   4  12
BRANCH  11  22
HETATM   22  N5  UNL     1      22.911   0.219  52.387  1.00  0.00    -0.375 N 
HETATM   23  H23 UNL     1      23.296  -0.319  51.554  1.00  0.00     0.160 HD
BRANCH  22  24
HETATM   24  C17 UNL     1      21.504   0.031  52.477  1.00  0.00     0.034 A 
HETATM   25  C18 UNL     1      20.754   0.485  51.413  1.00  0.00     0.029 A 
HETATM   26  C19 UNL     1      19.382   0.356  51.331  1.00  0.00     0.002 A 
HETATM   27  C20 UNL     1      18.724  -0.270  52.389  1.00  0.00     0.001 A 
HETATM   28  C21 UNL     1      19.495  -0.714  53.438  1.00  0.00     0.009 A 
HETATM   29  C22 UNL     1      20.856  -0.600  53.545  1.00  0.00    -0.036 A 
HETATM   30  C23 UNL     1      21.693  -1.081  54.668  1.00  0.00     0.050 C 
ENDBRANCH  22  24
ENDBRANCH  11  22
TORSDOF 8
ENDMDL
MODEL 8
REMARK VINA RESULT:      -7.3      1.940      5.000
REMARK  8 active torsions:
REMARK  status: ('A' for Active; 'I' for Inactive)
REMARK    1  A    between atoms: C4_4  and  C5_5 
REMARK    2  A    between atoms: C5_5  and  N1_6 
REMARK    3  A    between atoms: N1_6  and  C6_8 
REMARK    4  A    between atoms: C6_8  and  C7_9 
REMARK    5  A    between atoms: C8_10  and  C9_11 
REMARK    6  A    between atoms: C9_11  and  N2_12 
REMARK    7  A    between atoms: C16_21  and  N5_22 
REMARK    8  A    between atoms: N5_22  and  C17_23 
ROOT
HETATM    1  C1  UNL     1      22.571   4.350  52.143  1.00  0.00     0.036 C 
HETATM    2  C2  UNL     1      23.160   3.056  52.482  1.00  0.00    -0.021 C 
HETATM    3  C3  UNL     1      24.215   2.270  52.424  1.00  0.00    -0.025 C 
HETATM    4  C4  UNL     1      25.487   2.598  51.798  1.00  0.00    -0.018 C 
HETATM    5  C12 UNL     1      26.507   1.763  51.904  1.00  0.00     0.107 C 
HETATM    6  N3  UNL     1      26.393   0.539  52.613  1.00  0.00    -0.316 N 
HETATM    7  C13 UNL     1      27.362  -0.363  52.834  1.00  0.00     0.213 A 
HETATM    8  N4  UNL     1      26.777  -1.297  53.580  1.00  0.00    -0.254 NA
HETATM    9  C14 UNL     1      25.507  -0.981  53.804  1.00  0.00     0.146 A 
HETATM   10  C15 UNL     1      25.234   0.203  53.187  1.00  0.00     0.061 A 
HETATM   11  C16 UNL     1      23.962   0.950  53.115  1.00  0.00     0.167 C 
ENDROOT
BRANCH   4  12
HETATM   12  C5  UNL     1      25.645   3.837  51.025  1.00  0.00     0.166 C 
BRANCH  12  13
HETATM   13  N1  UNL     1      25.453   3.577  49.615  1.00  0.00    -0.147 NA
HETATM   14  F1  UNL     1      26.533   3.132  48.984  1.00  0.00    -0.133 F 
BRANCH  13  15
HETATM   15  C6  UNL     1      25.019   4.809  48.987  1.00  0.00     0.153 C 
BRANCH  15  16
HETATM   16  C7  UNL     1      26.054   5.870  49.214  1.00  0.00    -0.012 C 
HETATM   17  C8  UNL     1      26.320   6.750  48.253  1.00  0.00     0.000 C 
BRANCH  17  18
HETATM   18  C9  UNL     1      27.234   7.893  48.107  1.00  0.00     0.298 C 
BRANCH  18  19
HETATM   19  N2  UNL     1      27.928   8.254  49.325  1.00  0.00     0.083 N 
HETATM   20  C10 UNL     1      27.194   9.238  50.094  1.00  0.00     0.309 C 
HETATM   21  C11 UNL     1      29.176   8.906  48.895  1.00  0.00     0.309 C 
ENDBRANCH  18  19
ENDBRANCH  17  18
ENDBRANCH  15  16
ENDBRANCH  13  15
ENDBRANCH  12  13
ENDBRANCH   4  12
BRANCH  11  22
HETATM   22  N5  UNL     1      22.998   0.178  52.317  1.00  0.00    -0.375 N 
HETATM   23  H23 UNL     1      23.458  -0.468  51.609  1.00  0.00     0.160 HD
BRANCH  22  24
HETATM   24  C17 UNL     1      21.583   0.056  52.235  1.00  0.00     0.034 A 
HETATM   25  C18 UNL     1      20.942  -0.433  53.353  1.00  0.00     0.029 A 
HETATM   26  C19 UNL     1      19.573  -0.588  53.447  1.00  0.00     0.002 A 
HETATM   27  C20 UNL     1      18.801  -0.226  52.344  1.00  0.00     0.001 A 
HETATM   28  C21 UNL     1      19.464   0.260  51.241  1.00  0.00     0.009 A 
HETATM   29  C22 UNL     1      20.819   0.423  51.122  1.00  0.00    -0.036 A 
HETATM   30  C23 UNL     1      21.539   0.952  49.939  1.00  0.00     0.050 C 
ENDBRANCH  22  24
ENDBRANCH  11  22
TORSDOF 8
ENDMDL
MODEL 9
REMARK VINA RESULT:      -7.2      3.343      7.432
REMARK  8 active torsions:
REMARK  status: ('A' for Active; 'I' for Inactive)
REMARK    1  A    between atoms: C4_4  and  C5_5 
REMARK    2  A    between atoms: C5_5  and  N1_6 
REMARK    3  A    between atoms: N1_6  and  C6_8 
REMARK    4  A    between atoms: C6_8  and  C7_9 
REMARK    5  A    between atoms: C8_10  and  C9_11 
REMARK    6  A    between atoms: C9_11  and  N2_12 
REMARK    7  A    between atoms: C16_21  and  N5_22 
REMARK    8  A    between atoms: N5_22  and  C17_23 
ROOT
HETATM    1  C1  UNL     1      24.296   2.785  53.077  1.00  0.00     0.036 C 
HETATM    2  C2  UNL     1      24.068   3.972  52.255  1.00  0.00    -0.021 C 
HETATM    3  C3  UNL     1      23.193   4.753  51.657  1.00  0.00    -0.025 C 
HETATM    4  C4  UNL     1      21.748   4.575  51.662  1.00  0.00    -0.018 C 
HETATM    5  C12 UNL     1      20.970   5.493  51.115  1.00  0.00     0.107 C 
HETATM    6  N3  UNL     1      21.509   6.658  50.509  1.00  0.00    -0.316 N 
HETATM    7  C13 UNL     1      20.828   7.679  49.967  1.00  0.00     0.213 A 
HETATM    8  N4  UNL     1      21.771   8.536  49.585  1.00  0.00    -0.254 NA
HETATM    9  C14 UNL     1      22.975   8.060  49.878  1.00  0.00     0.146 A 
HETATM   10  C15 UNL     1      22.833   6.843  50.475  1.00  0.00     0.061 A 
HETATM   11  C16 UNL     1      23.869   5.906  50.951  1.00  0.00     0.167 C 
ENDROOT
BRANCH   4  12
HETATM   12  C5  UNL     1      21.144   3.371  52.248  1.00  0.00     0.166 C 
BRANCH  12  13
HETATM   13  N1  UNL     1      20.495   2.585  51.221  1.00  0.00    -0.147 NA
HETATM   14  F1  UNL     1      19.489   1.835  51.655  1.00  0.00    -0.133 F 
BRANCH  13  15
HETATM   15  C6  UNL     1      21.493   1.726  50.617  1.00  0.00     0.153 C 
BRANCH  15  16
HETATM   16  C7  UNL     1      21.369   0.346  51.190  1.00  0.00    -0.012 C 
HETATM   17  C8  UNL     1      22.112  -0.004  52.237  1.00  0.00     0.000 C 
BRANCH  17  18
HETATM   18  C9  UNL     1      22.266  -1.221  53.049  1.00  0.00     0.298 C 
BRANCH  18  19
HETATM   19  N2  UNL     1      21.652  -1.141  54.357  1.00  0.00     0.083 N 
HETATM   20  C10 UNL     1      21.116   0.178  54.623  1.00  0.00     0.309 C 
HETATM   21  C11 UNL     1      22.742  -1.353  55.323  1.00  0.00     0.309 C 
ENDBRANCH  18  19
ENDBRANCH  17  18
ENDBRANCH  15  16
ENDBRANCH  13  15
ENDBRANCH  12  13
ENDBRANCH   4  12
BRANCH  11  22
HETATM   22  N5  UNL     1      24.609   5.381  49.793  1.00  0.00    -0.375 N 
HETATM   23  H23 UNL     1      24.050   4.682  49.219  1.00  0.00     0.160 HD
BRANCH  22  24
HETATM   24  C17 UNL     1      25.898   5.559  49.219  1.00  0.00     0.034 A 
HETATM   25  C18 UNL     1      26.203   6.828  48.776  1.00  0.00     0.029 A 
HETATM   26  C19 UNL     1      27.418   7.175  48.219  1.00  0.00     0.002 A 
HETATM   27  C20 UNL     1      28.387   6.180  48.102  1.00  0.00     0.001 A 
HETATM   28  C21 UNL     1      28.058   4.922  48.551  1.00  0.00     0.009 A 
HETATM   29  C22 UNL     1      26.862   4.551  49.107  1.00  0.00    -0.036 A 
HETATM   30  C23 UNL     1      26.503   3.200  49.600  1.00  0.00     0.050 C 
ENDBRANCH  22  24
ENDBRANCH  11  22
TORSDOF 8
ENDMDL
