MODEL 1
REMARK VINA RESULT:      -8.7      0.000      0.000
REMARK  1 active torsions:
REMARK  status: ('A' for Active; 'I' for Inactive)
REMARK    1  A    between atoms: C2_3  and  C3_4 
ROOT
HETATM    1  C3  UNL     1      25.210   2.729  50.917  1.00  0.00    -0.009 C 
HETATM    2  C4  UNL     1      26.626   2.835  50.886  1.00  0.00     0.123 C 
HETATM    3  C5  UNL     1      26.686   1.580  51.532  1.00  0.00    -0.097 C 
HETATM    4  C6  UNL     1      26.718   0.542  52.079  1.00  0.00    -0.080 C 
HETATM    5  C7  UNL     1      26.730  -0.718  52.751  1.00  0.00     0.261 C 
HETATM    6  O1  UNL     1      25.333  -1.071  52.943  1.00  0.00    -0.375 OA
HETATM    7  C8  UNL     1      24.767  -0.011  53.677  1.00  0.00     0.208 C 
HETATM    8  C9  UNL     1      23.313  -0.029  53.678  1.00  0.00    -0.025 A 
HETATM    9  C10 UNL     1      22.513  -1.047  54.145  1.00  0.00     0.052 A 
HETATM   10  C11 UNL     1      21.139  -1.063  54.135  1.00  0.00     0.117 A 
HETATM   11  F2  UNL     1      20.444  -2.107  54.615  1.00  0.00    -0.206 F 
HETATM   12  C12 UNL     1      20.489   0.053  53.605  1.00  0.00     0.043 A 
HETATM   13  C13 UNL     1      21.233   1.112  53.118  1.00  0.00     0.011 A 
HETATM   14  C14 UNL     1      22.613   1.091  53.146  1.00  0.00    -0.048 A 
HETATM   15  C15 UNL     1      23.432   2.264  52.622  1.00  0.00     0.059 C 
HETATM   16  C16 UNL     1      24.041   1.796  51.354  1.00  0.00     0.092 C 
HETATM   17 CL1  UNL     1      22.801   1.905  50.053  1.00  0.00    -0.124 Cl
ENDROOT
BRANCH   1  18
HETATM   18  C2  UNL     1      24.679   3.973  50.285  1.00  0.00     0.036 C 
HETATM   19  C1  UNL     1      25.672   4.325  49.482  1.00  0.00     0.419 C 
HETATM   20  F1  UNL     1      25.999   5.299  48.583  1.00  0.00    -0.455 F 
ENDBRANCH   1  18
TORSDOF 1
ENDMDL
MODEL 2
REMARK VINA RESULT:      -8.3      2.933      5.230
REMARK  1 active torsions:
REMARK  status: ('A' for Active; 'I' for Inactive)
REMARK    1  A    between atoms: C2_3  and  C3_4 
ROOT
HETATM    1  C3  UNL     1      22.448   0.908  52.367  1.00  0.00    -0.009 C 
HETATM    2  C4  UNL     1      21.435  -0.059  52.606  1.00  0.00     0.123 C 
HETATM    3  C5  UNL     1      22.238  -0.574  53.647  1.00  0.00    -0.097 C 
HETATM    4  C6  UNL     1      22.923  -0.997  54.501  1.00  0.00    -0.080 C 
HETATM    5  C7  UNL     1      23.778  -1.497  55.531  1.00  0.00     0.261 C 
HETATM    6  O1  UNL     1      24.966  -0.662  55.491  1.00  0.00    -0.375 OA
HETATM    7  C8  UNL     1      25.476  -0.782  54.184  1.00  0.00     0.208 C 
HETATM    8  C9  UNL     1      26.467   0.234  53.861  1.00  0.00    -0.025 A 
HETATM    9  C10 UNL     1      27.654   0.450  54.522  1.00  0.00     0.052 A 
HETATM   10  C11 UNL     1      28.582   1.417  54.218  1.00  0.00     0.117 A 
HETATM   11  F2  UNL     1      29.717   1.550  54.925  1.00  0.00    -0.206 F 
HETATM   12  C12 UNL     1      28.300   2.260  53.143  1.00  0.00     0.043 A 
HETATM   13  C13 UNL     1      27.123   2.097  52.434  1.00  0.00     0.011 A 
HETATM   14  C14 UNL     1      26.215   1.114  52.770  1.00  0.00    -0.048 A 
HETATM   15  C15 UNL     1      24.925   0.926  51.981  1.00  0.00     0.059 C 
HETATM   16  C16 UNL     1      23.838   1.403  52.869  1.00  0.00     0.092 C 
HETATM   17 CL1  UNL     1      23.786   3.202  52.788  1.00  0.00    -0.124 Cl
ENDROOT
BRANCH   1  18
HETATM   18  C2  UNL     1      21.976   1.741  51.222  1.00  0.00     0.036 C 
HETATM   19  C1  UNL     1      21.652   0.825  50.323  1.00  0.00     0.419 C 
HETATM   20  F1  UNL     1      21.161   0.728  49.053  1.00  0.00    -0.455 F 
ENDBRANCH   1  18
TORSDOF 1
ENDMDL
MODEL 3
REMARK VINA RESULT:      -8.0      2.951      4.928
REMARK  1 active torsions:
REMARK  status: ('A' for Active; 'I' for Inactive)
REMARK    1  A    between atoms: C2_3  and  C3_4 
ROOT
HETATM    1  C3  UNL     1      21.562   2.533  52.346  1.00  0.00    -0.009 C 
HETATM    2  C4  UNL     1      20.217   2.127  52.555  1.00  0.00     0.123 C 
HETATM    3  C5  UNL     1      20.709   1.074  53.357  1.00  0.00    -0.097 C 
HETATM    4  C6  UNL     1      21.135   0.197  54.011  1.00  0.00    -0.080 C 
HETATM    5  C7  UNL     1      21.679  -0.865  54.796  1.00  0.00     0.261 C 
HETATM    6  O1  UNL     1      23.121  -0.699  54.731  1.00  0.00    -0.375 OA
HETATM    7  C8  UNL     1      23.451  -0.742  53.363  1.00  0.00     0.208 C 
HETATM    8  C9  UNL     1      24.796  -0.266  53.083  1.00  0.00    -0.025 A 
HETATM    9  C10 UNL     1      25.965  -0.788  53.588  1.00  0.00     0.052 A 
HETATM   10  C11 UNL     1      27.233  -0.327  53.329  1.00  0.00     0.117 A 
HETATM   11  F2  UNL     1      28.317  -0.906  53.871  1.00  0.00    -0.206 F 
HETATM   12  C12 UNL     1      27.354   0.770  52.475  1.00  0.00     0.043 A 
HETATM   13  C13 UNL     1      26.219   1.344  51.931  1.00  0.00     0.011 A 
HETATM   14  C14 UNL     1      24.962   0.852  52.217  1.00  0.00    -0.048 A 
HETATM   15  C15 UNL     1      23.713   1.476  51.607  1.00  0.00     0.059 C 
HETATM   16  C16 UNL     1      23.037   2.190  52.717  1.00  0.00     0.092 C 
HETATM   17 CL1  UNL     1      23.868   3.768  52.967  1.00  0.00    -0.124 Cl
ENDROOT
BRANCH   1  18
HETATM   18  C2  UNL     1      21.510   3.726  51.451  1.00  0.00     0.036 C 
HETATM   19  C1  UNL     1      20.209   3.968  51.382  1.00  0.00     0.419 C 
HETATM   20  F1  UNL     1      19.333   4.839  50.801  1.00  0.00    -0.455 F 
ENDBRANCH   1  18
TORSDOF 1
ENDMDL
MODEL 4
REMARK VINA RESULT:      -8.0      1.943      6.099
REMARK  1 active torsions:
REMARK  status: ('A' for Active; 'I' for Inactive)
REMARK    1  A    between atoms: C2_3  and  C3_4 
ROOT
HETATM    1  C3  UNL     1      23.120   1.638  52.420  1.00  0.00    -0.009 C 
HETATM    2  C4  UNL     1      23.403   0.413  53.081  1.00  0.00     0.123 C 
HETATM    3  C5  UNL     1      24.776   0.676  52.877  1.00  0.00    -0.097 C 
HETATM    4  C6  UNL     1      25.912   0.904  52.690  1.00  0.00    -0.080 C 
HETATM    5  C7  UNL     1      27.287   1.200  52.443  1.00  0.00     0.261 C 
HETATM    6  O1  UNL     1      27.290   2.459  51.717  1.00  0.00    -0.375 OA
HETATM    7  C8  UNL     1      26.513   2.238  50.563  1.00  0.00     0.208 C 
HETATM    8  C9  UNL     1      26.131   3.468  49.887  1.00  0.00    -0.025 A 
HETATM    9  C10 UNL     1      26.989   4.414  49.374  1.00  0.00     0.052 A 
HETATM   10  C11 UNL     1      26.622   5.580  48.745  1.00  0.00     0.117 A 
HETATM   11  F2  UNL     1      27.537   6.444  48.276  1.00  0.00    -0.206 F 
HETATM   12  C12 UNL     1      25.256   5.832  48.610  1.00  0.00     0.043 A 
HETATM   13  C13 UNL     1      24.339   4.922  49.103  1.00  0.00     0.011 A 
HETATM   14  C14 UNL     1      24.747   3.763  49.730  1.00  0.00    -0.048 A 
HETATM   15  C15 UNL     1      23.736   2.754  50.261  1.00  0.00     0.059 C 
HETATM   16  C16 UNL     1      23.791   2.868  51.738  1.00  0.00     0.092 C 
HETATM   17 CL1  UNL     1      22.823   4.304  52.234  1.00  0.00    -0.124 Cl
ENDROOT
BRANCH   1  18
HETATM   18  C2  UNL     1      21.633   1.770  52.394  1.00  0.00     0.036 C 
HETATM   19  C1  UNL     1      21.253   0.583  51.948  1.00  0.00     0.419 C 
HETATM   20  F1  UNL     1      20.117  -0.109  51.641  1.00  0.00    -0.455 F 
ENDBRANCH   1  18
TORSDOF 1
ENDMDL
MODEL 5
REMARK VINA RESULT:      -7.8      3.185      4.800
REMARK  1 active torsions:
REMARK  status: ('A' for Active; 'I' for Inactive)
REMARK    1  A    between atoms: C2_3  and  C3_4 
ROOT
HETATM    1  C3  UNL     1      25.974   0.201  54.318  1.00  0.00    -0.009 C 
HETATM    2  C4  UNL     1      25.913  -0.386  55.610  1.00  0.00     0.123 C 
HETATM    3  C5  UNL     1      24.624  -0.860  55.282  1.00  0.00    -0.097 C 
HETATM    4  C6  UNL     1      23.549  -1.236  54.998  1.00  0.00    -0.080 C 
HETATM    5  C7  UNL     1      22.241  -1.677  54.631  1.00  0.00     0.261 C 
HETATM    6  O1  UNL     1      22.020  -1.167  53.288  1.00  0.00    -0.375 OA
HETATM    7  C8  UNL     1      22.174   0.230  53.379  1.00  0.00     0.208 C 
HETATM    8  C9  UNL     1      22.316   0.875  52.082  1.00  0.00    -0.025 A 
HETATM    9  C10 UNL     1      21.404   0.839  51.053  1.00  0.00     0.052 A 
HETATM   10  C11 UNL     1      21.548   1.441  49.826  1.00  0.00     0.117 A 
HETATM   11  F2  UNL     1      20.598   1.349  48.881  1.00  0.00    -0.206 F 
HETATM   12  C12 UNL     1      22.724   2.158  49.598  1.00  0.00     0.043 A 
HETATM   13  C13 UNL     1      23.683   2.235  50.591  1.00  0.00     0.011 A 
HETATM   14  C14 UNL     1      23.501   1.615  51.811  1.00  0.00    -0.048 A 
HETATM   15  C15 UNL     1      24.552   1.712  52.910  1.00  0.00     0.059 C 
HETATM   16  C16 UNL     1      25.177   0.370  52.989  1.00  0.00     0.092 C 
HETATM   17 CL1  UNL     1      26.383   0.224  51.660  1.00  0.00    -0.124 Cl
ENDROOT
BRANCH   1  18
HETATM   18  C2  UNL     1      27.296   0.888  54.227  1.00  0.00     0.036 C 
HETATM   19  C1  UNL     1      28.139  -0.081  54.550  1.00  0.00     0.419 C 
HETATM   20  F1  UNL     1      29.477  -0.299  54.706  1.00  0.00    -0.455 F 
ENDBRANCH   1  18
TORSDOF 1
ENDMDL
MODEL 6
REMARK VINA RESULT:      -7.5      1.561      2.049
REMARK  1 active torsions:
REMARK  status: ('A' for Active; 'I' for Inactive)
REMARK    1  A    between atoms: C2_3  and  C3_4 
ROOT
HETATM    1  C3  UNL     1      24.298   3.952  49.375  1.00  0.00    -0.009 C 
HETATM    2  C4  UNL     1      25.545   4.631  49.340  1.00  0.00     0.123 C 
HETATM    3  C5  UNL     1      26.065   3.621  50.179  1.00  0.00    -0.097 C 
HETATM    4  C6  UNL     1      26.477   2.780  50.886  1.00  0.00    -0.080 C 
HETATM    5  C7  UNL     1      26.954   1.749  51.752  1.00  0.00     0.261 C 
HETATM    6  O1  UNL     1      25.814   0.879  51.988  1.00  0.00    -0.375 OA
HETATM    7  C8  UNL     1      24.812   1.701  52.537  1.00  0.00     0.208 C 
HETATM    8  C9  UNL     1      23.496   1.081  52.530  1.00  0.00    -0.025 A 
HETATM    9  C10 UNL     1      23.150  -0.099  53.147  1.00  0.00     0.052 A 
HETATM   10  C11 UNL     1      21.908  -0.686  53.129  1.00  0.00     0.117 A 
HETATM   11  F2  UNL     1      21.667  -1.844  53.766  1.00  0.00    -0.206 F 
HETATM   12  C12 UNL     1      20.900  -0.029  52.421  1.00  0.00     0.043 A 
HETATM   13  C13 UNL     1      21.179   1.162  51.777  1.00  0.00     0.011 A 
HETATM   14  C14 UNL     1      22.441   1.720  51.818  1.00  0.00    -0.048 A 
HETATM   15  C15 UNL     1      22.744   3.039  51.119  1.00  0.00     0.059 C 
HETATM   16  C16 UNL     1      23.584   2.690  49.948  1.00  0.00     0.092 C 
HETATM   17 CL1  UNL     1      22.507   2.087  48.636  1.00  0.00    -0.124 Cl
ENDROOT
BRANCH   1  18
HETATM   18  C2  UNL     1      23.353   4.758  48.548  1.00  0.00     0.036 C 
HETATM   19  C1  UNL     1      23.991   5.914  48.440  1.00  0.00     0.419 C 
HETATM   20  F1  UNL     1      23.840   7.148  47.875  1.00  0.00    -0.455 F 
ENDBRANCH   1  18
TORSDOF 1
ENDMDL
MODEL 7
REMARK VINA RESULT:      -7.4      3.075      5.094
REMARK  1 active torsions:
REMARK  status: ('A' for Active; 'I' for Inactive)
REMARK    1  A    between atoms: C2_3  and  C3_4 
ROOT
HETATM    1  C3  UNL     1      25.761   0.723  53.306  1.00  0.00    -0.009 C 
HETATM    2  C4  UNL     1      25.624  -0.538  53.945  1.00  0.00     0.123 C 
HETATM    3  C5  UNL     1      24.284  -0.566  53.500  1.00  0.00    -0.097 C 
HETATM    4  C6  UNL     1      23.170  -0.568  53.131  1.00  0.00    -0.080 C 
HETATM    5  C7  UNL     1      21.816  -0.543  52.678  1.00  0.00     0.261 C 
HETATM    6  O1  UNL     1      21.663   0.720  51.975  1.00  0.00    -0.375 OA
HETATM    7  C8  UNL     1      21.997   1.721  52.907  1.00  0.00     0.208 C 
HETATM    8  C9  UNL     1      22.221   3.021  52.295  1.00  0.00    -0.025 A 
HETATM    9  C10 UNL     1      21.312   3.736  51.549  1.00  0.00     0.052 A 
HETATM   10  C11 UNL     1      21.533   4.960  50.964  1.00  0.00     0.117 A 
HETATM   11  F2  UNL     1      20.579   5.582  50.252  1.00  0.00    -0.206 F 
HETATM   12  C12 UNL     1      22.792   5.536  51.141  1.00  0.00     0.043 A 
HETATM   13  C13 UNL     1      23.753   4.871  51.881  1.00  0.00     0.011 A 
HETATM   14  C14 UNL     1      23.492   3.642  52.452  1.00  0.00    -0.048 A 
HETATM   15  C15 UNL     1      24.547   2.917  53.278  1.00  0.00     0.059 C 
HETATM   16  C16 UNL     1      24.992   1.772  52.447  1.00  0.00     0.092 C 
HETATM   17 CL1  UNL     1      26.170   2.379  51.228  1.00  0.00    -0.124 Cl
ENDROOT
BRANCH   1  18
HETATM   18  C2  UNL     1      27.160   1.176  53.559  1.00  0.00     0.036 C 
HETATM   19  C1  UNL     1      27.572   0.315  54.477  1.00  0.00     0.419 C 
HETATM   20  F1  UNL     1      28.677   0.027  55.225  1.00  0.00    -0.455 F 
ENDBRANCH   1  18
TORSDOF 1
ENDMDL
MODEL 8
REMARK VINA RESULT:      -7.4      3.474      4.887
REMARK  1 active torsions:
REMARK  status: ('A' for Active; 'I' for Inactive)
REMARK    1  A    between atoms: C2_3  and  C3_4 
ROOT
HETATM    1  C3  UNL     1      23.981   0.828  53.201  1.00  0.00    -0.009 C 
HETATM    2  C4  UNL     1      25.161   1.616  53.132  1.00  0.00     0.123 C 
HETATM    3  C5  UNL     1      24.340   2.738  52.884  1.00  0.00    -0.097 C 
HETATM    4  C6  UNL     1      23.645   3.658  52.669  1.00  0.00    -0.080 C 
HETATM    5  C7  UNL     1      22.778   4.761  52.400  1.00  0.00     0.261 C 
HETATM    6  O1  UNL     1      21.434   4.208  52.388  1.00  0.00    -0.375 OA
HETATM    7  C8  UNL     1      21.443   3.203  51.401  1.00  0.00     0.208 C 
HETATM    8  C9  UNL     1      20.289   2.320  51.474  1.00  0.00    -0.025 A 
HETATM    9  C10 UNL     1      18.970   2.695  51.368  1.00  0.00     0.052 A 
HETATM   10  C11 UNL     1      17.883   1.858  51.448  1.00  0.00     0.117 A 
HETATM   11  F2  UNL     1      16.628   2.320  51.332  1.00  0.00    -0.206 F 
HETATM   12  C12 UNL     1      18.135   0.501  51.654  1.00  0.00     0.043 A 
HETATM   13  C13 UNL     1      19.439   0.055  51.769  1.00  0.00     0.011 A 
HETATM   14  C14 UNL     1      20.504   0.928  51.684  1.00  0.00    -0.048 A 
HETATM   15  C15 UNL     1      21.941   0.434  51.797  1.00  0.00     0.059 C 
HETATM   16  C16 UNL     1      22.426   0.906  53.116  1.00  0.00     0.092 C 
HETATM   17 CL1  UNL     1      21.800  -0.209  54.384  1.00  0.00    -0.124 Cl
ENDROOT
BRANCH   1  18
HETATM   18  C2  UNL     1      24.422  -0.574  53.461  1.00  0.00     0.036 C 
HETATM   19  C1  UNL     1      25.647  -0.580  52.958  1.00  0.00     0.419 C 
HETATM   20  F1  UNL     1      26.707  -1.422  52.785  1.00  0.00    -0.455 F 
ENDBRANCH   1  18
TORSDOF 1
ENDMDL
MODEL 9
REMARK VINA RESULT:      -7.2      2.095      2.927
REMARK  1 active torsions:
REMARK  status: ('A' for Active; 'I' for Inactive)
REMARK    1  A    between atoms: C2_3  and  C3_4 
ROOT
HETATM    1  C3  UNL     1      22.453   2.206  50.794  1.00  0.00    -0.009 C 
HETATM    2  C4  UNL     1      23.743   2.692  51.134  1.00  0.00     0.123 C 
HETATM    3  C5  UNL     1      23.846   1.634  52.063  1.00  0.00    -0.097 C 
HETATM    4  C6  UNL     1      23.910   0.755  52.839  1.00  0.00    -0.080 C 
HETATM    5  C7  UNL     1      23.961  -0.318  53.780  1.00  0.00     0.261 C 
HETATM    6  O1  UNL     1      22.686  -1.005  53.657  1.00  0.00    -0.375 OA
HETATM    7  C8  UNL     1      21.700  -0.034  53.915  1.00  0.00     0.208 C 
HETATM    8  C9  UNL     1      20.366  -0.453  53.516  1.00  0.00    -0.025 A 
HETATM    9  C10 UNL     1      19.688  -1.557  53.980  1.00  0.00     0.052 A 
HETATM   10  C11 UNL     1      18.431  -1.954  53.592  1.00  0.00     0.117 A 
HETATM   11  F2  UNL     1      17.849  -3.051  54.105  1.00  0.00    -0.206 F 
HETATM   12  C12 UNL     1      17.777  -1.170  52.640  1.00  0.00     0.043 A 
HETATM   13  C13 UNL     1      18.401  -0.046  52.131  1.00  0.00     0.011 A 
HETATM   14  C14 UNL     1      19.665   0.320  52.547  1.00  0.00    -0.048 A 
HETATM   15  C15 UNL     1      20.348   1.566  51.996  1.00  0.00     0.059 C 
HETATM   16  C16 UNL     1      21.427   1.074  51.107  1.00  0.00     0.092 C 
HETATM   17 CL1  UNL     1      20.697   0.611  49.528  1.00  0.00    -0.124 Cl
ENDROOT
BRANCH   1  18
HETATM   18  C2  UNL     1      21.916   3.126  49.749  1.00  0.00     0.036 C 
HETATM   19  C1  UNL     1      23.008   3.456  49.077  1.00  0.00     0.419 C 
HETATM   20  F1  UNL     1      23.396   4.222  48.016  1.00  0.00    -0.455 F 
ENDBRANCH   1  18
TORSDOF 1
ENDMDL
