MODEL 1
REMARK VINA RESULT:      -9.3      0.000      0.000
REMARK  4 active torsions:
REMARK  status: ('A' for Active; 'I' for Inactive)
REMARK    1  A    between atoms: C6_6  and  N1_7 
REMARK    2  A    between atoms: N1_7  and  C8_9 
REMARK    3  A    between atoms: C11_13  and  C12_14 
REMARK    4  A    between atoms: C15_17  and  C16_18 
ROOT
HETATM    1  C8  UNL     1      25.062   3.177  51.152  1.00  0.00     0.133 A 
HETATM    2  C9  UNL     1      24.119   3.566  52.120  1.00  0.00     0.070 A 
HETATM    3  C10 UNL     1      24.395   3.091  53.385  1.00  0.00     0.123 A 
HETATM    4  N2  UNL     1      25.451   2.336  53.676  1.00  0.00    -0.241 NA
HETATM    5  C11 UNL     1      26.343   1.974  52.741  1.00  0.00     0.161 A 
HETATM    6  N3  UNL     1      26.134   2.407  51.464  1.00  0.00    -0.211 NA
ENDROOT
BRANCH   1   7
HETATM    7  N1  UNL     1      24.909   3.625  49.787  1.00  0.00    -0.336 N 
HETATM    8  C7  UNL     1      23.783   3.090  49.052  1.00  0.00     0.158 C 
BRANCH   7   9
HETATM    9  C6  UNL     1      25.850   4.559  49.244  1.00  0.00     0.037 A 
HETATM   10  C5  UNL     1      25.384   5.815  48.892  1.00  0.00     0.031 A 
HETATM   11  C4  UNL     1      26.316   6.701  48.358  1.00  0.00     0.018 A 
HETATM   12  C3  UNL     1      27.653   6.423  48.156  1.00  0.00     0.018 A 
HETATM   13  C2  UNL     1      28.703   7.155  47.649  1.00  0.00     0.039 A 
HETATM   14  C19 UNL     1      28.081   5.147  48.524  1.00  0.00     0.091 A 
HETATM   15  C1  UNL     1      28.580   8.557  47.158  1.00  0.00     0.071 C 
HETATM   16  N5  UNL     1      29.775   6.315  47.711  1.00  0.00    -0.277 N 
HETATM   17  N4  UNL     1      29.390   5.163  48.220  1.00  0.00    -0.172 NA
HETATM   18  C20 UNL     1      31.099   6.697  47.271  1.00  0.00     0.179 C 
HETATM   19  C18 UNL     1      27.167   4.233  49.063  1.00  0.00     0.064 A 
ENDBRANCH   7   9
ENDBRANCH   1   7
BRANCH   5  20
HETATM   20  C12 UNL     1      27.517   1.148  53.049  1.00  0.00     0.009 A 
HETATM   21  C13 UNL     1      28.682   1.573  53.569  1.00  0.00    -0.007 A 
HETATM   22  C14 UNL     1      29.592   0.404  53.716  1.00  0.00     0.070 A 
HETATM   23  C15 UNL     1      28.731  -0.677  53.203  1.00  0.00    -0.016 A 
HETATM   24  C17 UNL     1      27.535  -0.296  52.810  1.00  0.00     0.025 A 
BRANCH  23  25
HETATM   25  C16 UNL     1      29.155  -2.059  53.140  1.00  0.00     0.265 C 
HETATM   26  O1  UNL     1      28.736  -3.151  53.539  1.00  0.00    -0.302 OA
ENDBRANCH  23  25
ENDBRANCH   5  20
TORSDOF 4
ENDMDL
MODEL 2
REMARK VINA RESULT:      -8.9      3.721      5.136
REMARK  4 active torsions:
REMARK  status: ('A' for Active; 'I' for Inactive)
REMARK    1  A    between atoms: C6_6  and  N1_7 
REMARK    2  A    between atoms: N1_7  and  C8_9 
REMARK    3  A    between atoms: C11_13  and  C12_14 
REMARK    4  A    between atoms: C15_17  and  C16_18 
ROOT
HETATM    1  C8  UNL     1      22.350  -0.021  53.300  1.00  0.00     0.133 A 
HETATM    2  C9  UNL     1      21.762  -0.697  54.385  1.00  0.00     0.070 A 
HETATM    3  C10 UNL     1      22.677  -1.280  55.237  1.00  0.00     0.123 A 
HETATM    4  N2  UNL     1      23.995  -1.215  55.060  1.00  0.00    -0.241 NA
HETATM    5  C11 UNL     1      24.540  -0.566  54.020  1.00  0.00     0.161 A 
HETATM    6  N3  UNL     1      23.694   0.036  53.134  1.00  0.00    -0.211 NA
ENDROOT
BRANCH   1   7
HETATM    7  N1  UNL     1      21.507   0.657  52.342  1.00  0.00    -0.336 N 
HETATM    8  C7  UNL     1      20.185   0.107  52.139  1.00  0.00     0.158 C 
BRANCH   7   9
HETATM    9  C6  UNL     1      22.006   1.816  51.663  1.00  0.00     0.037 A 
HETATM   10  C5  UNL     1      22.378   1.676  50.336  1.00  0.00     0.031 A 
HETATM   11  C4  UNL     1      22.869   2.813  49.700  1.00  0.00     0.018 A 
HETATM   12  C3  UNL     1      23.010   4.055  50.288  1.00  0.00     0.018 A 
HETATM   13  C2  UNL     1      23.469   5.269  49.830  1.00  0.00     0.039 A 
HETATM   14  C19 UNL     1      22.623   4.152  51.625  1.00  0.00     0.091 A 
HETATM   15  C1  UNL     1      23.963   5.503  48.444  1.00  0.00     0.071 C 
HETATM   16  N5  UNL     1      23.358   6.108  50.898  1.00  0.00    -0.277 N 
HETATM   17  N4  UNL     1      22.867   5.440  51.922  1.00  0.00    -0.172 NA
HETATM   18  C20 UNL     1      23.736   7.504  50.844  1.00  0.00     0.179 C 
HETATM   19  C18 UNL     1      22.126   3.025  52.292  1.00  0.00     0.064 A 
ENDBRANCH   7   9
ENDBRANCH   1   7
BRANCH   5  20
HETATM   20  C12 UNL     1      25.991  -0.480  53.818  1.00  0.00     0.009 A 
HETATM   21  C13 UNL     1      26.737  -1.258  53.015  1.00  0.00    -0.007 A 
HETATM   22  C14 UNL     1      28.157  -0.825  53.115  1.00  0.00     0.070 A 
HETATM   23  C15 UNL     1      28.035   0.286  54.077  1.00  0.00    -0.016 A 
HETATM   24  C17 UNL     1      26.813   0.517  54.506  1.00  0.00     0.025 A 
BRANCH  23  25
HETATM   25  C16 UNL     1      29.166   1.074  54.517  1.00  0.00     0.265 C 
HETATM   26  O1  UNL     1      29.372   2.243  54.860  1.00  0.00    -0.302 OA
ENDBRANCH  23  25
ENDBRANCH   5  20
TORSDOF 4
ENDMDL
MODEL 3
REMARK VINA RESULT:      -8.9      2.522      3.561
REMARK  4 active torsions:
REMARK  status: ('A' for Active; 'I' for Inactive)
REMARK    1  A    between atoms: C6_6  and  N1_7 
REMARK    2  A    between atoms: N1_7  and  C8_9 
REMARK    3  A    between atoms: C11_13  and  C12_14 
REMARK    4  A    between atoms: C15_17  and  C16_18 
ROOT
HETATM    1  C8  UNL     1      22.790   1.515  52.031  1.00  0.00     0.133 A 
HETATM    2  C9  UNL     1      21.811   0.685  52.607  1.00  0.00     0.070 A 
HETATM    3  C10 UNL     1      22.331  -0.348  53.358  1.00  0.00     0.123 A 
HETATM    4  N2  UNL     1      23.635  -0.552  53.530  1.00  0.00    -0.241 NA
HETATM    5  C11 UNL     1      24.557   0.249  52.974  1.00  0.00     0.161 A 
HETATM    6  N3  UNL     1      24.115   1.294  52.216  1.00  0.00    -0.211 NA
ENDROOT
BRANCH   1   7
HETATM    7  N1  UNL     1      22.384   2.652  51.239  1.00  0.00    -0.336 N 
HETATM    8  C7  UNL     1      20.964   2.812  51.014  1.00  0.00     0.158 C 
BRANCH   7   9
HETATM    9  C6  UNL     1      23.381   3.548  50.732  1.00  0.00     0.037 A 
HETATM   10  C5  UNL     1      24.243   3.070  49.758  1.00  0.00     0.031 A 
HETATM   11  C4  UNL     1      25.209   3.955  49.288  1.00  0.00     0.018 A 
HETATM   12  C3  UNL     1      25.369   5.259  49.715  1.00  0.00     0.018 A 
HETATM   13  C2  UNL     1      26.248   6.262  49.377  1.00  0.00     0.039 A 
HETATM   14  C19 UNL     1      24.480   5.700  50.696  1.00  0.00     0.091 A 
HETATM   15  C1  UNL     1      27.330   6.113  48.362  1.00  0.00     0.071 C 
HETATM   16  N5  UNL     1      25.889   7.319  50.158  1.00  0.00    -0.277 N 
HETATM   17  N4  UNL     1      24.865   6.969  50.910  1.00  0.00    -0.172 NA
HETATM   18  C20 UNL     1      26.567   8.596  50.113  1.00  0.00     0.179 C 
HETATM   19  C18 UNL     1      23.497   4.832  51.189  1.00  0.00     0.064 A 
ENDBRANCH   7   9
ENDBRANCH   1   7
BRANCH   5  20
HETATM   20  C12 UNL     1      25.998   0.041  53.162  1.00  0.00     0.009 A 
HETATM   21  C13 UNL     1      26.703  -1.049  52.813  1.00  0.00    -0.007 A 
HETATM   22  C14 UNL     1      28.128  -0.835  53.188  1.00  0.00     0.070 A 
HETATM   23  C15 UNL     1      28.055   0.517  53.772  1.00  0.00    -0.016 A 
HETATM   24  C17 UNL     1      26.855   1.055  53.779  1.00  0.00     0.025 A 
BRANCH  23  25
HETATM   25  C16 UNL     1      29.211   1.212  54.295  1.00  0.00     0.265 C 
HETATM   26  O1  UNL     1      29.430   2.253  54.924  1.00  0.00    -0.302 OA
ENDBRANCH  23  25
ENDBRANCH   5  20
TORSDOF 4
ENDMDL
MODEL 4
REMARK VINA RESULT:      -8.6      4.043      8.149
REMARK  4 active torsions:
REMARK  status: ('A' for Active; 'I' for Inactive)
REMARK    1  A    between atoms: C6_6  and  N1_7 
REMARK    2  A    between atoms: N1_7  and  C8_9 
REMARK    3  A    between atoms: C11_13  and  C12_14 
REMARK    4  A    between atoms: C15_17  and  C16_18 
ROOT
HETATM    1  C8  UNL     1      23.359   3.856  49.600  1.00  0.00     0.133 A 
HETATM    2  C9  UNL     1      22.558   4.859  50.178  1.00  0.00     0.070 A 
HETATM    3  C10 UNL     1      23.185   6.084  50.271  1.00  0.00     0.123 A 
HETATM    4  N2  UNL     1      24.430   6.310  49.856  1.00  0.00    -0.241 NA
HETATM    5  C11 UNL     1      25.180   5.343  49.306  1.00  0.00     0.161 A 
HETATM    6  N3  UNL     1      24.625   4.102  49.182  1.00  0.00    -0.211 NA
ENDROOT
BRANCH   1   7
HETATM    7  N1  UNL     1      22.817   2.529  49.419  1.00  0.00    -0.336 N 
HETATM    8  C7  UNL     1      22.393   2.179  48.080  1.00  0.00     0.158 C 
BRANCH   7   9
HETATM    9  C6  UNL     1      22.736   1.644  50.543  1.00  0.00     0.037 A 
HETATM   10  C5  UNL     1      21.556   0.941  50.726  1.00  0.00     0.031 A 
HETATM   11  C4  UNL     1      21.498   0.095  51.830  1.00  0.00     0.018 A 
HETATM   12  C3  UNL     1      22.516  -0.093  52.744  1.00  0.00     0.018 A 
HETATM   13  C2  UNL     1      22.639  -0.868  53.875  1.00  0.00     0.039 A 
HETATM   14  C19 UNL     1      23.686   0.634  52.522  1.00  0.00     0.091 A 
HETATM   15  C1  UNL     1      21.563  -1.760  54.393  1.00  0.00     0.071 C 
HETATM   16  N5  UNL     1      23.893  -0.609  54.340  1.00  0.00    -0.277 N 
HETATM   17  N4  UNL     1      24.477   0.261  53.542  1.00  0.00    -0.172 NA
HETATM   18  C20 UNL     1      24.434  -1.230  55.530  1.00  0.00     0.179 C 
HETATM   19  C18 UNL     1      23.775   1.495  51.420  1.00  0.00     0.064 A 
ENDBRANCH   7   9
ENDBRANCH   1   7
BRANCH   5  20
HETATM   20  C12 UNL     1      26.551   5.580  48.837  1.00  0.00     0.009 A 
HETATM   21  C13 UNL     1      27.537   4.670  48.750  1.00  0.00    -0.007 A 
HETATM   22  C14 UNL     1      28.758   5.341  48.226  1.00  0.00     0.070 A 
HETATM   23  C15 UNL     1      28.260   6.717  48.053  1.00  0.00    -0.016 A 
HETATM   24  C17 UNL     1      27.002   6.899  48.391  1.00  0.00     0.025 A 
BRANCH  23  25
HETATM   25  C16 UNL     1      29.081   7.793  47.542  1.00  0.00     0.265 C 
HETATM   26  O1  UNL     1      29.832   8.655  48.011  1.00  0.00    -0.302 OA
ENDBRANCH  23  25
ENDBRANCH   5  20
TORSDOF 4
ENDMDL
MODEL 5
REMARK VINA RESULT:      -8.5      2.951      3.735
REMARK  4 active torsions:
REMARK  status: ('A' for Active; 'I' for Inactive)
REMARK    1  A    between atoms: C6_6  and  N1_7 
REMARK    2  A    between atoms: N1_7  and  C8_9 
REMARK    3  A    between atoms: C11_13  and  C12_14 
REMARK    4  A    between atoms: C15_17  and  C16_18 
ROOT
HETATM    1  C8  UNL     1      23.109   3.918  49.942  1.00  0.00     0.133 A 
HETATM    2  C9  UNL     1      22.397   3.457  48.820  1.00  0.00     0.070 A 
HETATM    3  C10 UNL     1      22.038   2.127  48.899  1.00  0.00     0.123 A 
HETATM    4  N2  UNL     1      22.331   1.344  49.935  1.00  0.00    -0.241 NA
HETATM    5  C11 UNL     1      23.010   1.800  50.998  1.00  0.00     0.161 A 
HETATM    6  N3  UNL     1      23.400   3.108  50.989  1.00  0.00    -0.211 NA
ENDROOT
BRANCH   1   7
HETATM    7  N1  UNL     1      23.526   5.300  50.002  1.00  0.00    -0.336 N 
HETATM    8  C7  UNL     1      22.629   6.220  50.667  1.00  0.00     0.158 C 
BRANCH   7   9
HETATM    9  C6  UNL     1      24.779   5.681  49.421  1.00  0.00     0.037 A 
HETATM   10  C5  UNL     1      24.854   6.919  48.802  1.00  0.00     0.031 A 
HETATM   11  C4  UNL     1      26.079   7.263  48.237  1.00  0.00     0.018 A 
HETATM   12  C3  UNL     1      27.211   6.472  48.248  1.00  0.00     0.018 A 
HETATM   13  C2  UNL     1      28.483   6.637  47.750  1.00  0.00     0.039 A 
HETATM   14  C19 UNL     1      27.092   5.234  48.882  1.00  0.00     0.091 A 
HETATM   15  C1  UNL     1      28.936   7.850  47.011  1.00  0.00     0.071 C 
HETATM   16  N5  UNL     1      29.140   5.492  48.086  1.00  0.00    -0.277 N 
HETATM   17  N4  UNL     1      28.316   4.698  48.738  1.00  0.00    -0.172 NA
HETATM   18  C20 UNL     1      30.527   5.253  47.748  1.00  0.00     0.179 C 
HETATM   19  C18 UNL     1      25.873   4.859  49.459  1.00  0.00     0.064 A 
ENDBRANCH   7   9
ENDBRANCH   1   7
BRANCH   5  20
HETATM   20  C12 UNL     1      23.333   0.950  52.151  1.00  0.00     0.009 A 
HETATM   21  C13 UNL     1      24.562   0.644  52.602  1.00  0.00    -0.007 A 
HETATM   22  C14 UNL     1      24.426  -0.245  53.789  1.00  0.00     0.070 A 
HETATM   23  C15 UNL     1      22.958  -0.348  53.884  1.00  0.00    -0.016 A 
HETATM   24  C17 UNL     1      22.294   0.319  52.966  1.00  0.00     0.025 A 
BRANCH  23  25
HETATM   25  C16 UNL     1      22.288  -1.116  54.911  1.00  0.00     0.265 C 
HETATM   26  O1  UNL     1      21.292  -1.842  54.989  1.00  0.00    -0.302 OA
ENDBRANCH  23  25
ENDBRANCH   5  20
TORSDOF 4
ENDMDL
MODEL 6
REMARK VINA RESULT:      -8.5      3.423      7.243
REMARK  4 active torsions:
REMARK  status: ('A' for Active; 'I' for Inactive)
REMARK    1  A    between atoms: C6_6  and  N1_7 
REMARK    2  A    between atoms: N1_7  and  C8_9 
REMARK    3  A    between atoms: C11_13  and  C12_14 
REMARK    4  A    between atoms: C15_17  and  C16_18 
ROOT
HETATM    1  C8  UNL     1      22.618   1.157  51.573  1.00  0.00     0.133 A 
HETATM    2  C9  UNL     1      21.524   0.579  50.902  1.00  0.00     0.070 A 
HETATM    3  C10 UNL     1      21.205   1.209  49.717  1.00  0.00     0.123 A 
HETATM    4  N2  UNL     1      21.863   2.264  49.241  1.00  0.00    -0.241 NA
HETATM    5  C11 UNL     1      22.905   2.803  49.893  1.00  0.00     0.161 A 
HETATM    6  N3  UNL     1      23.278   2.231  51.075  1.00  0.00    -0.211 NA
ENDROOT
BRANCH   1   7
HETATM    7  N1  UNL     1      23.075   0.581  52.817  1.00  0.00    -0.336 N 
HETATM    8  C7  UNL     1      22.054   0.128  53.735  1.00  0.00     0.158 C 
BRANCH   7   9
HETATM    9  C6  UNL     1      24.482   0.483  53.070  1.00  0.00     0.037 A 
HETATM   10  C5  UNL     1      25.085  -0.753  52.898  1.00  0.00     0.031 A 
HETATM   11  C4  UNL     1      26.450  -0.825  53.159  1.00  0.00     0.018 A 
HETATM   12  C3  UNL     1      27.238   0.232  53.571  1.00  0.00     0.018 A 
HETATM   13  C2  UNL     1      28.575   0.349  53.874  1.00  0.00     0.039 A 
HETATM   14  C19 UNL     1      26.592   1.458  53.731  1.00  0.00     0.091 A 
HETATM   15  C1  UNL     1      29.546  -0.781  53.810  1.00  0.00     0.071 C 
HETATM   16  N5  UNL     1      28.741   1.657  54.220  1.00  0.00    -0.277 N 
HETATM   17  N4  UNL     1      27.581   2.276  54.129  1.00  0.00    -0.172 NA
HETATM   18  C20 UNL     1      30.018   2.211  54.612  1.00  0.00     0.179 C 
HETATM   19  C18 UNL     1      25.219   1.562  53.477  1.00  0.00     0.064 A 
ENDBRANCH   7   9
ENDBRANCH   1   7
BRANCH   5  20
HETATM   20  C12 UNL     1      23.644   3.961  49.376  1.00  0.00     0.009 A 
HETATM   21  C13 UNL     1      23.123   5.032  48.754  1.00  0.00    -0.007 A 
HETATM   22  C14 UNL     1      24.230   5.962  48.399  1.00  0.00     0.070 A 
HETATM   23  C15 UNL     1      25.388   5.221  48.930  1.00  0.00    -0.016 A 
HETATM   24  C17 UNL     1      25.099   4.070  49.497  1.00  0.00     0.025 A 
BRANCH  23  25
HETATM   25  C16 UNL     1      26.745   5.716  48.847  1.00  0.00     0.265 C 
HETATM   26  O1  UNL     1      27.817   5.335  48.365  1.00  0.00    -0.302 OA
ENDBRANCH  23  25
ENDBRANCH   5  20
TORSDOF 4
ENDMDL
MODEL 7
REMARK VINA RESULT:      -8.4      5.721      8.546
REMARK  4 active torsions:
REMARK  status: ('A' for Active; 'I' for Inactive)
REMARK    1  A    between atoms: C6_6  and  N1_7 
REMARK    2  A    between atoms: N1_7  and  C8_9 
REMARK    3  A    between atoms: C11_13  and  C12_14 
REMARK    4  A    between atoms: C15_17  and  C16_18 
ROOT
HETATM    1  C8  UNL     1      22.246   0.135  53.058  1.00  0.00     0.133 A 
HETATM    2  C9  UNL     1      22.654  -0.572  54.205  1.00  0.00     0.070 A 
HETATM    3  C10 UNL     1      21.646  -1.312  54.787  1.00  0.00     0.123 A 
HETATM    4  N2  UNL     1      20.402  -1.362  54.318  1.00  0.00    -0.241 NA
HETATM    5  C11 UNL     1      20.029  -0.682  53.223  1.00  0.00     0.161 A 
HETATM    6  N3  UNL     1      20.975   0.074  52.593  1.00  0.00    -0.211 NA
ENDROOT
BRANCH   1   7
HETATM    7  N1  UNL     1      23.209   0.933  52.334  1.00  0.00    -0.336 N 
HETATM    8  C7  UNL     1      22.707   1.687  51.205  1.00  0.00     0.158 C 
BRANCH   7   9
HETATM    9  C6  UNL     1      24.576   0.945  52.762  1.00  0.00     0.037 A 
HETATM   10  C5  UNL     1      25.088   2.134  53.255  1.00  0.00     0.031 A 
HETATM   11  C4  UNL     1      26.421   2.123  53.656  1.00  0.00     0.018 A 
HETATM   12  C3  UNL     1      27.260   1.028  53.599  1.00  0.00     0.018 A 
HETATM   13  C2  UNL     1      28.579   0.830  53.940  1.00  0.00     0.039 A 
HETATM   14  C19 UNL     1      26.704  -0.150  53.097  1.00  0.00     0.091 A 
HETATM   15  C1  UNL     1      29.461   1.892  54.502  1.00  0.00     0.071 C 
HETATM   16  N5  UNL     1      28.823  -0.477  53.643  1.00  0.00    -0.277 N 
HETATM   17  N4  UNL     1      27.726  -1.020  53.158  1.00  0.00    -0.172 NA
HETATM   18  C20 UNL     1      30.110  -1.104  53.855  1.00  0.00     0.179 C 
HETATM   19  C18 UNL     1      25.366  -0.170  52.685  1.00  0.00     0.064 A 
ENDBRANCH   7   9
ENDBRANCH   1   7
BRANCH   5  20
HETATM   20  C12 UNL     1      18.662  -0.734  52.690  1.00  0.00     0.009 A 
HETATM   21  C13 UNL     1      17.583  -1.256  53.300  1.00  0.00    -0.007 A 
HETATM   22  C14 UNL     1      16.406  -1.098  52.402  1.00  0.00     0.070 A 
HETATM   23  C15 UNL     1      17.031  -0.420  51.251  1.00  0.00    -0.016 A 
HETATM   24  C17 UNL     1      18.321  -0.194  51.373  1.00  0.00     0.025 A 
BRANCH  23  25
HETATM   25  C16 UNL     1      16.290  -0.022  50.074  1.00  0.00     0.265 C 
HETATM   26  O1  UNL     1      15.631  -0.581  49.191  1.00  0.00    -0.302 OA
ENDBRANCH  23  25
ENDBRANCH   5  20
TORSDOF 4
ENDMDL
MODEL 8
REMARK VINA RESULT:      -8.4      3.703      7.387
REMARK  4 active torsions:
REMARK  status: ('A' for Active; 'I' for Inactive)
REMARK    1  A    between atoms: C6_6  and  N1_7 
REMARK    2  A    between atoms: N1_7  and  C8_9 
REMARK    3  A    between atoms: C11_13  and  C12_14 
REMARK    4  A    between atoms: C15_17  and  C16_18 
ROOT
HETATM    1  C8  UNL     1      22.570   1.174  51.467  1.00  0.00     0.133 A 
HETATM    2  C9  UNL     1      21.551   0.494  50.775  1.00  0.00     0.070 A 
HETATM    3  C10 UNL     1      21.234   1.062  49.558  1.00  0.00     0.123 A 
HETATM    4  N2  UNL     1      21.829   2.150  49.073  1.00  0.00    -0.241 NA
HETATM    5  C11 UNL     1      22.800   2.786  49.746  1.00  0.00     0.161 A 
HETATM    6  N3  UNL     1      23.167   2.281  50.960  1.00  0.00    -0.211 NA
ENDROOT
BRANCH   1   7
HETATM    7  N1  UNL     1      23.019   0.673  52.745  1.00  0.00    -0.336 N 
HETATM    8  C7  UNL     1      22.004   0.127  53.620  1.00  0.00     0.158 C 
BRANCH   7   9
HETATM    9  C6  UNL     1      24.413   0.732  53.073  1.00  0.00     0.037 A 
HETATM   10  C5  UNL     1      24.929   1.952  53.480  1.00  0.00     0.031 A 
HETATM   11  C4  UNL     1      26.287   1.986  53.785  1.00  0.00     0.018 A 
HETATM   12  C3  UNL     1      27.147   0.908  53.711  1.00  0.00     0.018 A 
HETATM   13  C2  UNL     1      28.491   0.753  53.964  1.00  0.00     0.039 A 
HETATM   14  C19 UNL     1      26.586  -0.301  53.298  1.00  0.00     0.091 A 
HETATM   15  C1  UNL     1      29.385   1.857  54.418  1.00  0.00     0.071 C 
HETATM   16  N5  UNL     1      28.746  -0.559  53.702  1.00  0.00    -0.277 N 
HETATM   17  N4  UNL     1      27.631  -1.146  53.319  1.00  0.00    -0.172 NA
HETATM   18  C20 UNL     1      30.059  -1.149  53.846  1.00  0.00     0.179 C 
HETATM   19  C18 UNL     1      25.223  -0.368  52.984  1.00  0.00     0.064 A 
ENDBRANCH   7   9
ENDBRANCH   1   7
BRANCH   5  20
HETATM   20  C12 UNL     1      23.470   3.981  49.220  1.00  0.00     0.009 A 
HETATM   21  C13 UNL     1      22.917   4.941  48.459  1.00  0.00    -0.007 A 
HETATM   22  C14 UNL     1      23.955   5.963  48.151  1.00  0.00     0.070 A 
HETATM   23  C15 UNL     1      25.114   5.395  48.864  1.00  0.00    -0.016 A 
HETATM   24  C17 UNL     1      24.882   4.261  49.488  1.00  0.00     0.025 A 
BRANCH  23  25
HETATM   25  C16 UNL     1      26.412   6.033  48.889  1.00  0.00     0.265 C 
HETATM   26  O1  UNL     1      27.178   6.553  48.069  1.00  0.00    -0.302 OA
ENDBRANCH  23  25
ENDBRANCH   5  20
TORSDOF 4
ENDMDL
MODEL 9
REMARK VINA RESULT:      -8.3      2.512      3.658
REMARK  4 active torsions:
REMARK  status: ('A' for Active; 'I' for Inactive)
REMARK    1  A    between atoms: C6_6  and  N1_7 
REMARK    2  A    between atoms: N1_7  and  C8_9 
REMARK    3  A    between atoms: C11_13  and  C12_14 
REMARK    4  A    between atoms: C15_17  and  C16_18 
ROOT
HETATM    1  C8  UNL     1      23.827   4.355  49.639  1.00  0.00     0.133 A 
HETATM    2  C9  UNL     1      23.077   4.119  48.471  1.00  0.00     0.070 A 
HETATM    3  C10 UNL     1      22.444   2.894  48.457  1.00  0.00     0.123 A 
HETATM    4  N2  UNL     1      22.524   2.010  49.449  1.00  0.00    -0.241 NA
HETATM    5  C11 UNL     1      23.242   2.250  50.556  1.00  0.00     0.161 A 
HETATM    6  N3  UNL     1      23.898   3.444  50.640  1.00  0.00    -0.211 NA
ENDROOT
BRANCH   1   7
HETATM    7  N1  UNL     1      24.523   5.611  49.797  1.00  0.00    -0.336 N 
HETATM    8  C7  UNL     1      23.806   6.669  50.473  1.00  0.00     0.158 C 
BRANCH   7   9
HETATM    9  C6  UNL     1      25.859   5.741  49.295  1.00  0.00     0.037 A 
HETATM   10  C5  UNL     1      26.606   4.585  49.140  1.00  0.00     0.031 A 
HETATM   11  C4  UNL     1      27.904   4.738  48.659  1.00  0.00     0.018 A 
HETATM   12  C3  UNL     1      28.493   5.943  48.330  1.00  0.00     0.018 A 
HETATM   13  C2  UNL     1      29.738   6.285  47.852  1.00  0.00     0.039 A 
HETATM   14  C19 UNL     1      27.706   7.082  48.500  1.00  0.00     0.091 A 
HETATM   15  C1  UNL     1      30.820   5.301  47.568  1.00  0.00     0.071 C 
HETATM   16  N5  UNL     1      29.703   7.642  47.732  1.00  0.00    -0.277 N 
HETATM   17  N4  UNL     1      28.520   8.078  48.112  1.00  0.00    -0.172 NA
HETATM   18  C20 UNL     1      30.827   8.418  47.253  1.00  0.00     0.179 C 
HETATM   19  C18 UNL     1      26.396   6.961  48.982  1.00  0.00     0.064 A 
ENDBRANCH   7   9
ENDBRANCH   1   7
BRANCH   5  20
HETATM   20  C12 UNL     1      23.333   1.288  51.661  1.00  0.00     0.009 A 
HETATM   21  C13 UNL     1      22.331   0.544  52.161  1.00  0.00    -0.007 A 
HETATM   22  C14 UNL     1      22.866  -0.291  53.271  1.00  0.00     0.070 A 
HETATM   23  C15 UNL     1      24.280   0.125  53.268  1.00  0.00    -0.016 A 
HETATM   24  C17 UNL     1      24.591   1.028  52.363  1.00  0.00     0.025 A 
BRANCH  23  25
HETATM   25  C16 UNL     1      25.263  -0.417  54.180  1.00  0.00     0.265 C 
HETATM   26  O1  UNL     1      25.260  -1.131  55.189  1.00  0.00    -0.302 OA
ENDBRANCH  23  25
ENDBRANCH   5  20
TORSDOF 4
ENDMDL
