MODEL 1
REMARK VINA RESULT:      -9.2      0.000      0.000
REMARK  1 active torsions:
REMARK  status: ('A' for Active; 'I' for Inactive)
REMARK    1  A    between atoms: C6_7  and  C7_8 
ROOT
HETATM    1  C7  UNL     1      26.299   0.897  52.550  1.00  0.00     0.121 A 
HETATM    2  N1  UNL     1      26.395   1.949  51.809  1.00  0.00    -0.171 NA
HETATM    3  N2  UNL     1      25.142   2.568  51.688  1.00  0.00    -0.262 N 
HETATM    4  P1  UNL     1      23.804   1.626  52.649  1.00  0.00     0.179 P 
HETATM    5  N3  UNL     1      22.695   0.767  52.088  1.00  0.00    -0.273 NA
HETATM    6  C8  UNL     1      21.659  -0.005  52.134  1.00  0.00     0.153 C 
HETATM    7  C9  UNL     1      20.595   0.404  53.134  1.00  0.00     0.048 C 
HETATM    8  C10 UNL     1      21.039  -0.044  54.488  1.00  0.00    -0.029 C 
HETATM    9  C11 UNL     1      22.093  -0.745  54.859  1.00  0.00    -0.026 C 
HETATM   10  C12 UNL     1      23.218  -1.517  55.445  1.00  0.00     0.073 C 
HETATM   11  C13 UNL     1      24.502  -0.816  55.063  1.00  0.00     0.094 C 
HETATM   12  N4  UNL     1      24.251  -0.288  53.874  1.00  0.00    -0.258 NA
HETATM   13  C14 UNL     1      25.070   0.396  53.188  1.00  0.00     0.135 A 
HETATM   14  H5  UNL     1      24.793   3.419  51.192  1.00  0.00     0.189 HD
ENDROOT
BRANCH   1  15
HETATM   15  C6  UNL     1      27.425   0.030  52.871  1.00  0.00     0.019 A 
HETATM   16  C1  UNL     1      28.506   0.750  53.384  1.00  0.00     0.046 A 
HETATM   17 CL1  UNL     1      28.546   2.502  53.632  1.00  0.00    -0.083 Cl
HETATM   18  C2  UNL     1      29.668   0.096  53.745  1.00  0.00     0.025 A 
HETATM   19  C3  UNL     1      29.804  -1.267  53.614  1.00  0.00     0.002 A 
HETATM   20  C4  UNL     1      28.718  -1.945  53.106  1.00  0.00     0.001 A 
HETATM   21  C5  UNL     1      27.554  -1.337  52.738  1.00  0.00     0.015 A 
ENDBRANCH   1  15
TORSDOF 1
ENDMDL
MODEL 2
REMARK VINA RESULT:      -8.5      2.645      4.118
REMARK  1 active torsions:
REMARK  status: ('A' for Active; 'I' for Inactive)
REMARK    1  A    between atoms: C6_7  and  C7_8 
ROOT
HETATM    1  C7  UNL     1      25.733   0.191  53.349  1.00  0.00     0.121 A 
HETATM    2  N1  UNL     1      24.842  -0.554  53.912  1.00  0.00    -0.171 NA
HETATM    3  N2  UNL     1      23.560  -0.170  53.493  1.00  0.00    -0.262 N 
HETATM    4  P1  UNL     1      23.631   1.282  52.274  1.00  0.00     0.179 P 
HETATM    5  N3  UNL     1      23.256   2.724  52.530  1.00  0.00    -0.273 NA
HETATM    6  C8  UNL     1      23.090   3.972  52.238  1.00  0.00     0.153 C 
HETATM    7  C9  UNL     1      22.472   4.238  50.879  1.00  0.00     0.048 C 
HETATM    8  C10 UNL     1      23.545   4.099  49.850  1.00  0.00    -0.029 C 
HETATM    9  C11 UNL     1      24.838   3.874  49.981  1.00  0.00    -0.026 C 
HETATM   10  C12 UNL     1      26.302   3.627  49.948  1.00  0.00     0.073 C 
HETATM   11  C13 UNL     1      26.560   2.312  50.648  1.00  0.00     0.094 C 
HETATM   12  N4  UNL     1      25.621   2.244  51.582  1.00  0.00    -0.258 NA
HETATM   13  C14 UNL     1      25.472   1.287  52.402  1.00  0.00     0.135 A 
HETATM   14  H5  UNL     1      22.592  -0.505  53.702  1.00  0.00     0.189 HD
ENDROOT
BRANCH   1  15
HETATM   15  C6  UNL     1      27.165   0.048  53.577  1.00  0.00     0.019 A 
HETATM   16  C1  UNL     1      27.663  -1.137  53.030  1.00  0.00     0.046 A 
HETATM   17 CL1  UNL     1      26.706  -2.345  52.159  1.00  0.00    -0.083 Cl
HETATM   18  C2  UNL     1      29.004  -1.447  53.148  1.00  0.00     0.025 A 
HETATM   19  C3  UNL     1      29.887  -0.614  53.798  1.00  0.00     0.002 A 
HETATM   20  C4  UNL     1      29.361   0.545  54.323  1.00  0.00     0.001 A 
HETATM   21  C5  UNL     1      28.044   0.888  54.229  1.00  0.00     0.015 A 
ENDBRANCH   1  15
TORSDOF 1
ENDMDL
MODEL 3
REMARK VINA RESULT:      -7.7      3.036      3.758
REMARK  1 active torsions:
REMARK  status: ('A' for Active; 'I' for Inactive)
REMARK    1  A    between atoms: C6_7  and  C7_8 
ROOT
HETATM    1  C7  UNL     1      23.011   2.966  52.342  1.00  0.00     0.121 A 
HETATM    2  N1  UNL     1      22.561   4.129  52.008  1.00  0.00    -0.171 NA
HETATM    3  N2  UNL     1      21.159   4.112  51.980  1.00  0.00    -0.262 N 
HETATM    4  P1  UNL     1      20.473   2.403  52.437  1.00  0.00     0.179 P 
HETATM    5  N3  UNL     1      19.843   1.383  51.517  1.00  0.00    -0.273 NA
HETATM    6  C8  UNL     1      19.283   0.262  51.201  1.00  0.00     0.153 C 
HETATM    7  C9  UNL     1      18.224  -0.224  52.173  1.00  0.00     0.048 C 
HETATM    8  C10 UNL     1      18.921  -0.853  53.334  1.00  0.00    -0.029 C 
HETATM    9  C11 UNL     1      20.202  -1.079  53.550  1.00  0.00    -0.026 C 
HETATM   10  C12 UNL     1      21.594  -1.404  53.950  1.00  0.00     0.073 C 
HETATM   11  C13 UNL     1      22.384  -0.115  53.951  1.00  0.00     0.094 C 
HETATM   12  N4  UNL     1      21.834   0.611  52.988  1.00  0.00    -0.258 NA
HETATM   13  C14 UNL     1      22.197   1.780  52.654  1.00  0.00     0.135 A 
HETATM   14  H5  UNL     1      20.423   4.824  51.767  1.00  0.00     0.189 HD
ENDROOT
BRANCH   1  15
HETATM   15  C6  UNL     1      24.429   2.654  52.461  1.00  0.00     0.019 A 
HETATM   16  C1  UNL     1      25.066   2.647  51.217  1.00  0.00     0.046 A 
HETATM   17 CL1  UNL     1      24.284   2.973  49.663  1.00  0.00    -0.083 Cl
HETATM   18  C2  UNL     1      26.416   2.368  51.130  1.00  0.00     0.025 A 
HETATM   19  C3  UNL     1      27.173   2.090  52.246  1.00  0.00     0.002 A 
HETATM   20  C4  UNL     1      26.512   2.107  53.454  1.00  0.00     0.001 A 
HETATM   21  C5  UNL     1      25.182   2.377  53.583  1.00  0.00     0.015 A 
ENDBRANCH   1  15
TORSDOF 1
ENDMDL
MODEL 4
REMARK VINA RESULT:      -7.7      2.279      5.926
REMARK  1 active torsions:
REMARK  status: ('A' for Active; 'I' for Inactive)
REMARK    1  A    between atoms: C6_7  and  C7_8 
ROOT
HETATM    1  C7  UNL     1      24.550   1.636  52.182  1.00  0.00     0.121 A 
HETATM    2  N1  UNL     1      24.638   2.879  51.845  1.00  0.00    -0.171 NA
HETATM    3  N2  UNL     1      25.983   3.273  51.807  1.00  0.00    -0.262 N 
HETATM    4  P1  UNL     1      27.142   1.843  52.265  1.00  0.00     0.179 P 
HETATM    5  N3  UNL     1      27.921   1.657  53.547  1.00  0.00    -0.273 NA
HETATM    6  C8  UNL     1      28.723   1.062  54.367  1.00  0.00     0.153 C 
HETATM    7  C9  UNL     1      29.968   0.471  53.735  1.00  0.00     0.048 C 
HETATM    8  C10 UNL     1      29.589  -0.828  53.101  1.00  0.00    -0.029 C 
HETATM    9  C11 UNL     1      28.444  -1.481  53.096  1.00  0.00    -0.026 C 
HETATM   10  C12 UNL     1      27.238  -2.341  52.992  1.00  0.00     0.073 C 
HETATM   11  C13 UNL     1      26.139  -1.514  52.365  1.00  0.00     0.094 C 
HETATM   12  N4  UNL     1      26.372  -0.279  52.786  1.00  0.00    -0.258 NA
HETATM   13  C14 UNL     1      25.679   0.740  52.487  1.00  0.00     0.135 A 
HETATM   14  H5  UNL     1      26.476   4.168  51.586  1.00  0.00     0.189 HD
ENDROOT
BRANCH   1  15
HETATM   15  C6  UNL     1      23.288   0.922  52.312  1.00  0.00     0.019 A 
HETATM   16  C1  UNL     1      22.470   1.103  51.193  1.00  0.00     0.046 A 
HETATM   17 CL1  UNL     1      22.880   2.073  49.771  1.00  0.00    -0.083 Cl
HETATM   18  C2  UNL     1      21.228   0.502  51.136  1.00  0.00     0.025 A 
HETATM   19  C3  UNL     1      20.755  -0.285  52.162  1.00  0.00     0.002 A 
HETATM   20  C4  UNL     1      21.587  -0.442  53.247  1.00  0.00     0.001 A 
HETATM   21  C5  UNL     1      22.820   0.133  53.343  1.00  0.00     0.015 A 
ENDBRANCH   1  15
TORSDOF 1
ENDMDL
MODEL 5
REMARK VINA RESULT:      -7.7      2.449      6.487
REMARK  1 active torsions:
REMARK  status: ('A' for Active; 'I' for Inactive)
REMARK    1  A    between atoms: C6_7  and  C7_8 
ROOT
HETATM    1  C7  UNL     1      23.185  -0.381  53.706  1.00  0.00     0.121 A 
HETATM    2  N1  UNL     1      22.968  -1.155  54.716  1.00  0.00    -0.171 NA
HETATM    3  N2  UNL     1      24.151  -1.333  55.449  1.00  0.00    -0.262 N 
HETATM    4  P1  UNL     1      25.599  -0.379  54.678  1.00  0.00     0.179 P 
HETATM    5  N3  UNL     1      26.773  -0.942  53.910  1.00  0.00    -0.273 NA
HETATM    6  C8  UNL     1      27.879  -0.899  53.244  1.00  0.00     0.153 C 
HETATM    7  C9  UNL     1      28.923   0.055  53.792  1.00  0.00     0.048 C 
HETATM    8  C10 UNL     1      28.560   1.436  53.352  1.00  0.00    -0.029 C 
HETATM    9  C11 UNL     1      27.589   1.861  52.568  1.00  0.00    -0.026 C 
HETATM   10  C12 UNL     1      26.561   2.505  51.712  1.00  0.00     0.073 C 
HETATM   11  C13 UNL     1      25.205   2.137  52.270  1.00  0.00     0.094 C 
HETATM   12  N4  UNL     1      25.373   0.923  52.776  1.00  0.00    -0.258 NA
HETATM   13  C14 UNL     1      24.474   0.239  53.352  1.00  0.00     0.135 A 
HETATM   14  H5  UNL     1      24.403  -1.868  56.311  1.00  0.00     0.189 HD
ENDROOT
BRANCH   1  15
HETATM   15  C6  UNL     1      22.159   0.001  52.747  1.00  0.00     0.019 A 
HETATM   16  C1  UNL     1      20.979   0.400  53.380  1.00  0.00     0.046 A 
HETATM   17 CL1  UNL     1      20.720   0.450  55.130  1.00  0.00    -0.083 Cl
HETATM   18  C2  UNL     1      19.889   0.798  52.630  1.00  0.00     0.025 A 
HETATM   19  C3  UNL     1      19.922   0.816  51.254  1.00  0.00     0.002 A 
HETATM   20  C4  UNL     1      21.101   0.417  50.665  1.00  0.00     0.001 A 
HETATM   21  C5  UNL     1      22.199   0.018  51.368  1.00  0.00     0.015 A 
ENDBRANCH   1  15
TORSDOF 1
ENDMDL
MODEL 6
REMARK VINA RESULT:      -7.7      3.924      5.442
REMARK  1 active torsions:
REMARK  status: ('A' for Active; 'I' for Inactive)
REMARK    1  A    between atoms: C6_7  and  C7_8 
ROOT
HETATM    1  C7  UNL     1      24.065   3.077  52.412  1.00  0.00     0.121 A 
HETATM    2  N1  UNL     1      24.141   4.012  53.299  1.00  0.00    -0.171 NA
HETATM    3  N2  UNL     1      23.671   5.221  52.765  1.00  0.00    -0.262 N 
HETATM    4  P1  UNL     1      23.114   5.018  50.963  1.00  0.00     0.179 P 
HETATM    5  N3  UNL     1      23.816   5.506  49.717  1.00  0.00    -0.273 NA
HETATM    6  C8  UNL     1      23.985   5.685  48.448  1.00  0.00     0.153 C 
HETATM    7  C9  UNL     1      22.735   6.073  47.681  1.00  0.00     0.048 C 
HETATM    8  C10 UNL     1      21.939   4.832  47.442  1.00  0.00    -0.029 C 
HETATM    9  C11 UNL     1      22.206   3.571  47.720  1.00  0.00    -0.026 C 
HETATM   10  C12 UNL     1      22.347   2.113  47.961  1.00  0.00     0.073 C 
HETATM   11  C13 UNL     1      22.542   1.911  49.446  1.00  0.00     0.094 C 
HETATM   12  N4  UNL     1      23.199   2.991  49.845  1.00  0.00    -0.258 NA
HETATM   13  C14 UNL     1      23.563   3.229  51.036  1.00  0.00     0.135 A 
HETATM   14  H5  UNL     1      23.564   6.192  53.138  1.00  0.00     0.189 HD
ENDROOT
BRANCH   1  15
HETATM   15  C6  UNL     1      24.476   1.701  52.653  1.00  0.00     0.019 A 
HETATM   16  C1  UNL     1      25.774   1.459  52.194  1.00  0.00     0.046 A 
HETATM   17 CL1  UNL     1      26.823   2.649  51.411  1.00  0.00    -0.083 Cl
HETATM   18  C2  UNL     1      26.337   0.205  52.334  1.00  0.00     0.025 A 
HETATM   19  C3  UNL     1      25.653  -0.836  52.920  1.00  0.00     0.002 A 
HETATM   20  C4  UNL     1      24.378  -0.560  53.361  1.00  0.00     0.001 A 
HETATM   21  C5  UNL     1      23.786   0.662  53.243  1.00  0.00     0.015 A 
ENDBRANCH   1  15
TORSDOF 1
ENDMDL
MODEL 7
REMARK VINA RESULT:      -7.6      4.506      6.557
REMARK  1 active torsions:
REMARK  status: ('A' for Active; 'I' for Inactive)
REMARK    1  A    between atoms: C6_7  and  C7_8 
ROOT
HETATM    1  C7  UNL     1      23.661   3.525  52.236  1.00  0.00     0.121 A 
HETATM    2  N1  UNL     1      22.472   3.887  52.582  1.00  0.00    -0.171 NA
HETATM    3  N2  UNL     1      22.084   5.022  51.855  1.00  0.00    -0.262 N 
HETATM    4  P1  UNL     1      23.445   5.582  50.658  1.00  0.00     0.179 P 
HETATM    5  N3  UNL     1      24.348   6.787  50.782  1.00  0.00    -0.273 NA
HETATM    6  C8  UNL     1      25.289   7.600  50.431  1.00  0.00     0.153 C 
HETATM    7  C9  UNL     1      25.315   7.956  48.957  1.00  0.00     0.048 C 
HETATM    8  C10 UNL     1      25.963   6.828  48.223  1.00  0.00    -0.029 C 
HETATM    9  C11 UNL     1      26.521   5.719  48.669  1.00  0.00    -0.026 C 
HETATM   10  C12 UNL     1      27.182   4.432  48.999  1.00  0.00     0.073 C 
HETATM   11  C13 UNL     1      26.190   3.591  49.770  1.00  0.00     0.094 C 
HETATM   12  N4  UNL     1      25.467   4.471  50.449  1.00  0.00    -0.258 NA
HETATM   13  C14 UNL     1      24.509   4.186  51.229  1.00  0.00     0.135 A 
HETATM   14  H5  UNL     1      21.223   5.615  51.830  1.00  0.00     0.189 HD
ENDROOT
BRANCH   1  15
HETATM   15  C6  UNL     1      24.354   2.379  52.808  1.00  0.00     0.019 A 
HETATM   16  C1  UNL     1      23.751   1.172  52.444  1.00  0.00     0.046 A 
HETATM   17 CL1  UNL     1      22.318   1.011  51.418  1.00  0.00    -0.083 Cl
HETATM   18  C2  UNL     1      24.269  -0.026  52.895  1.00  0.00     0.025 A 
HETATM   19  C3  UNL     1      25.380  -0.078  53.705  1.00  0.00     0.002 A 
HETATM   20  C4  UNL     1      25.949   1.130  54.042  1.00  0.00     0.001 A 
HETATM   21  C5  UNL     1      25.470   2.334  53.619  1.00  0.00     0.015 A 
ENDBRANCH   1  15
TORSDOF 1
ENDMDL
MODEL 8
REMARK VINA RESULT:      -7.5      3.013      6.176
REMARK  1 active torsions:
REMARK  status: ('A' for Active; 'I' for Inactive)
REMARK    1  A    between atoms: C6_7  and  C7_8 
ROOT
HETATM    1  C7  UNL     1      23.769   1.362  53.054  1.00  0.00     0.121 A 
HETATM    2  N1  UNL     1      22.853   0.504  53.354  1.00  0.00    -0.171 NA
HETATM    3  N2  UNL     1      23.440  -0.685  53.812  1.00  0.00    -0.262 N 
HETATM    4  P1  UNL     1      25.334  -0.574  53.808  1.00  0.00     0.179 P 
HETATM    5  N3  UNL     1      26.298  -1.244  52.857  1.00  0.00    -0.273 NA
HETATM    6  C8  UNL     1      27.454  -1.547  52.364  1.00  0.00     0.153 C 
HETATM    7  C9  UNL     1      28.529  -1.856  53.388  1.00  0.00     0.048 C 
HETATM    8  C10 UNL     1      29.050  -0.558  53.913  1.00  0.00    -0.029 C 
HETATM    9  C11 UNL     1      28.768   0.684  53.570  1.00  0.00    -0.026 C 
HETATM   10  C12 UNL     1      28.569   2.132  53.309  1.00  0.00     0.073 C 
HETATM   11  C13 UNL     1      27.103   2.437  53.514  1.00  0.00     0.094 C 
HETATM   12  N4  UNL     1      26.479   1.327  53.145  1.00  0.00    -0.258 NA
HETATM   13  C14 UNL     1      25.223   1.152  53.165  1.00  0.00     0.135 A 
HETATM   14  H5  UNL     1      23.066  -1.602  54.147  1.00  0.00     0.189 HD
ENDROOT
BRANCH   1  15
HETATM   15  C6  UNL     1      23.488   2.698  52.548  1.00  0.00     0.019 A 
HETATM   16  C1  UNL     1      22.842   2.660  51.309  1.00  0.00     0.046 A 
HETATM   17 CL1  UNL     1      22.401   1.190  50.428  1.00  0.00    -0.083 Cl
HETATM   18  C2  UNL     1      22.496   3.835  50.670  1.00  0.00     0.025 A 
HETATM   19  C3  UNL     1      22.769   5.067  51.219  1.00  0.00     0.002 A 
HETATM   20  C4  UNL     1      23.405   5.067  52.440  1.00  0.00     0.001 A 
HETATM   21  C5  UNL     1      23.764   3.931  53.104  1.00  0.00     0.015 A 
ENDBRANCH   1  15
TORSDOF 1
ENDMDL
MODEL 9
REMARK VINA RESULT:      -7.5      3.366      4.750
REMARK  1 active torsions:
REMARK  status: ('A' for Active; 'I' for Inactive)
REMARK    1  A    between atoms: C6_7  and  C7_8 
ROOT
HETATM    1  C7  UNL     1      24.128   2.734  52.558  1.00  0.00     0.121 A 
HETATM    2  N1  UNL     1      24.326   3.733  53.351  1.00  0.00    -0.171 NA
HETATM    3  N2  UNL     1      23.559   4.833  52.940  1.00  0.00    -0.262 N 
HETATM    4  P1  UNL     1      22.538   4.431  51.392  1.00  0.00     0.179 P 
HETATM    5  N3  UNL     1      22.774   4.911  49.979  1.00  0.00    -0.273 NA
HETATM    6  C8  UNL     1      22.542   5.015  48.712  1.00  0.00     0.153 C 
HETATM    7  C9  UNL     1      21.083   5.189  48.337  1.00  0.00     0.048 C 
HETATM    8  C10 UNL     1      20.432   3.846  48.386  1.00  0.00    -0.029 C 
HETATM    9  C11 UNL     1      20.941   2.651  48.615  1.00  0.00    -0.026 C 
HETATM   10  C12 UNL     1      21.348   1.243  48.851  1.00  0.00     0.073 C 
HETATM   11  C13 UNL     1      21.990   1.175  50.218  1.00  0.00     0.094 C 
HETATM   12  N4  UNL     1      22.577   2.354  50.367  1.00  0.00    -0.258 NA
HETATM   13  C14 UNL     1      23.233   2.722  51.389  1.00  0.00     0.135 A 
HETATM   14  H5  UNL     1      23.430   5.808  53.296  1.00  0.00     0.189 HD
ENDROOT
BRANCH   1  15
HETATM   15  C6  UNL     1      24.779   1.441  52.712  1.00  0.00     0.019 A 
HETATM   16  C1  UNL     1      25.966   1.366  51.979  1.00  0.00     0.046 A 
HETATM   17 CL1  UNL     1      26.634   2.660  50.974  1.00  0.00    -0.083 Cl
HETATM   18  C2  UNL     1      26.723   0.211  52.001  1.00  0.00     0.025 A 
HETATM   19  C3  UNL     1      26.344  -0.893  52.731  1.00  0.00     0.002 A 
HETATM   20  C4  UNL     1      25.170  -0.782  53.442  1.00  0.00     0.001 A 
HETATM   21  C5  UNL     1      24.393   0.339  53.448  1.00  0.00     0.015 A 
ENDBRANCH   1  15
TORSDOF 1
ENDMDL
