MODEL 1
REMARK VINA RESULT:      -8.5      0.000      0.000
REMARK  4 active torsions:
REMARK  status: ('A' for Active; 'I' for Inactive)
REMARK    1  A    between atoms: C3_3  and  S1_4 
REMARK    2  A    between atoms: S1_4  and  C4_5 
REMARK    3  A    between atoms: C12_13  and  C13_14 
REMARK    4  A    between atoms: C14_15  and  C16_18 
REMARK       I    between atoms: C16_18  and  N2_19 
ROOT
HETATM    1  C13 UNL     1      27.016  -0.557  52.274  1.00  0.00     0.040 C 
HETATM    2  C14 UNL     1      27.959  -0.679  53.192  1.00  0.00     0.112 C 
HETATM    3  C15 UNL     1      28.507  -2.025  53.355  1.00  0.00     0.105 C 
HETATM    4  N1  UNL     1      28.956  -3.088  53.498  1.00  0.00    -0.191 NA
ENDROOT
BRANCH   2   5
HETATM    5  C16 UNL     1      28.522   0.357  54.045  1.00  0.00     0.260 C 
HETATM    6  N2  UNL     1      29.776   0.927  53.651  1.00  0.00    -0.365 N 
HETATM    7  H13 UNL     1      30.144   1.541  52.865  1.00  0.00     0.159 HD
HETATM    8  H14 UNL     1      30.629   1.389  53.277  1.00  0.00     0.159 HD
HETATM    9  O1  UNL     1      28.717   1.180  54.954  1.00  0.00    -0.267 OA
ENDBRANCH   2   5
BRANCH   1  10
HETATM   10  C12 UNL     1      26.307   0.671  51.916  1.00  0.00    -0.026 A 
HETATM   11  C2  UNL     1      24.987   1.223  52.094  1.00  0.00    -0.035 A 
HETATM   12  C1  UNL     1      23.772   0.720  52.742  1.00  0.00     0.050 C 
HETATM   13  C3  UNL     1      25.309   2.358  51.451  1.00  0.00     0.013 A 
HETATM   14  C11 UNL     1      26.648   1.779  51.279  1.00  0.00     0.031 A 
BRANCH  13  15
HETATM   15  S1  UNL     1      24.495   3.900  51.002  1.00  0.00    -0.090 SA
BRANCH  15  16
HETATM   16  C4  UNL     1      25.647   4.840  50.018  1.00  0.00     0.005 A 
HETATM   17  C5  UNL     1      25.524   6.225  49.932  1.00  0.00     0.019 A 
HETATM   18  C6  UNL     1      26.400   6.993  49.180  1.00  0.00     0.008 A 
HETATM   19  C7  UNL     1      27.402   6.316  48.516  1.00  0.00    -0.062 A 
HETATM   20  C8  UNL     1      28.404   7.020  47.674  1.00  0.00     0.048 C 
HETATM   21  C9  UNL     1      27.563   4.946  48.570  1.00  0.00     0.008 A 
HETATM   22  C10 UNL     1      26.675   4.188  49.331  1.00  0.00     0.019 A 
ENDBRANCH  15  16
ENDBRANCH  13  15
ENDBRANCH   1  10
TORSDOF 4
ENDMDL
MODEL 2
REMARK VINA RESULT:      -8.3      2.711      6.141
REMARK  4 active torsions:
REMARK  status: ('A' for Active; 'I' for Inactive)
REMARK    1  A    between atoms: C3_3  and  S1_4 
REMARK    2  A    between atoms: S1_4  and  C4_5 
REMARK    3  A    between atoms: C12_13  and  C13_14 
REMARK    4  A    between atoms: C14_15  and  C16_18 
REMARK       I    between atoms: C16_18  and  N2_19 
ROOT
HETATM    1  C13 UNL     1      27.076  -0.280  52.795  1.00  0.00     0.040 C 
HETATM    2  C14 UNL     1      28.143   0.227  53.387  1.00  0.00     0.112 C 
HETATM    3  C15 UNL     1      29.247  -0.708  53.601  1.00  0.00     0.105 C 
HETATM    4  N1  UNL     1      30.136  -1.436  53.778  1.00  0.00    -0.191 NA
ENDROOT
BRANCH   2   5
HETATM    5  C16 UNL     1      28.356   1.595  53.838  1.00  0.00     0.260 C 
HETATM    6  N2  UNL     1      29.594   1.887  54.497  1.00  0.00    -0.365 N 
HETATM    7  H13 UNL     1      30.624   1.937  54.240  1.00  0.00     0.159 HD
HETATM    8  H14 UNL     1      30.543   2.082  54.872  1.00  0.00     0.159 HD
HETATM    9  O1  UNL     1      28.225   2.804  54.087  1.00  0.00    -0.267 OA
ENDBRANCH   2   5
BRANCH   1  10
HETATM   10  C12 UNL     1      25.842   0.435  52.468  1.00  0.00    -0.026 A 
HETATM   11  C2  UNL     1      25.456   1.574  51.673  1.00  0.00    -0.035 A 
HETATM   12  C1  UNL     1      26.213   2.513  50.839  1.00  0.00     0.050 C 
HETATM   13  C3  UNL     1      24.158   1.430  51.987  1.00  0.00     0.013 A 
HETATM   14  C11 UNL     1      24.570   0.273  52.792  1.00  0.00     0.031 A 
BRANCH  13  15
HETATM   15  S1  UNL     1      22.605   2.256  51.601  1.00  0.00    -0.090 SA
BRANCH  15  16
HETATM   16  C4  UNL     1      21.287   1.171  52.114  1.00  0.00     0.005 A 
HETATM   17  C5  UNL     1      21.258   0.673  53.415  1.00  0.00     0.019 A 
HETATM   18  C6  UNL     1      20.251  -0.171  53.855  1.00  0.00     0.008 A 
HETATM   19  C7  UNL     1      19.274  -0.498  52.937  1.00  0.00    -0.062 A 
HETATM   20  C8  UNL     1      18.140  -1.396  53.280  1.00  0.00     0.048 C 
HETATM   21  C9  UNL     1      19.260  -0.031  51.638  1.00  0.00     0.008 A 
HETATM   22  C10 UNL     1      20.280   0.818  51.212  1.00  0.00     0.019 A 
ENDBRANCH  15  16
ENDBRANCH  13  15
ENDBRANCH   1  10
TORSDOF 4
ENDMDL
MODEL 3
REMARK VINA RESULT:      -8.1      4.170      4.772
REMARK  4 active torsions:
REMARK  status: ('A' for Active; 'I' for Inactive)
REMARK    1  A    between atoms: C3_3  and  S1_4 
REMARK    2  A    between atoms: S1_4  and  C4_5 
REMARK    3  A    between atoms: C12_13  and  C13_14 
REMARK    4  A    between atoms: C14_15  and  C16_18 
REMARK       I    between atoms: C16_18  and  N2_19 
ROOT
HETATM    1  C13 UNL     1      23.130   0.722  53.290  1.00  0.00     0.040 C 
HETATM    2  C14 UNL     1      22.050   0.053  53.655  1.00  0.00     0.112 C 
HETATM    3  C15 UNL     1      22.283  -1.063  54.570  1.00  0.00     0.105 C 
HETATM    4  N1  UNL     1      22.449  -1.954  55.300  1.00  0.00    -0.191 NA
ENDROOT
BRANCH   2   5
HETATM    5  C16 UNL     1      20.668   0.296  53.268  1.00  0.00     0.260 C 
HETATM    6  N2  UNL     1      19.647  -0.392  54.001  1.00  0.00    -0.365 N 
HETATM    7  H13 UNL     1      19.249  -0.382  54.986  1.00  0.00     0.159 HD
HETATM    8  H14 UNL     1      18.935  -0.825  54.622  1.00  0.00     0.159 HD
HETATM    9  O1  UNL     1      19.641   0.709  52.708  1.00  0.00    -0.267 OA
ENDBRANCH   2   5
BRANCH   1  10
HETATM   10  C12 UNL     1      23.174   1.873  52.388  1.00  0.00    -0.026 A 
HETATM   11  C2  UNL     1      22.782   2.173  51.033  1.00  0.00    -0.035 A 
HETATM   12  C1  UNL     1      22.153   1.377  49.975  1.00  0.00     0.050 C 
HETATM   13  C3  UNL     1      23.207   3.444  51.128  1.00  0.00     0.013 A 
HETATM   14  C11 UNL     1      23.599   3.120  52.505  1.00  0.00     0.031 A 
BRANCH  13  15
HETATM   15  S1  UNL     1      23.267   4.900  50.070  1.00  0.00    -0.090 SA
BRANCH  15  16
HETATM   16  C4  UNL     1      24.946   5.065  49.492  1.00  0.00     0.005 A 
HETATM   17  C5  UNL     1      25.370   6.258  48.909  1.00  0.00     0.019 A 
HETATM   18  C6  UNL     1      26.666   6.429  48.449  1.00  0.00     0.008 A 
HETATM   19  C7  UNL     1      27.520   5.356  48.596  1.00  0.00    -0.062 A 
HETATM   20  C8  UNL     1      28.935   5.407  48.143  1.00  0.00     0.048 C 
HETATM   21  C9  UNL     1      27.147   4.155  49.167  1.00  0.00     0.008 A 
HETATM   22  C10 UNL     1      25.840   3.999  49.624  1.00  0.00     0.019 A 
ENDBRANCH  15  16
ENDBRANCH  13  15
ENDBRANCH   1  10
TORSDOF 4
ENDMDL
MODEL 4
REMARK VINA RESULT:      -8.0      2.711      3.579
REMARK  4 active torsions:
REMARK  status: ('A' for Active; 'I' for Inactive)
REMARK    1  A    between atoms: C3_3  and  S1_4 
REMARK    2  A    between atoms: S1_4  and  C4_5 
REMARK    3  A    between atoms: C12_13  and  C13_14 
REMARK    4  A    between atoms: C14_15  and  C16_18 
REMARK       I    between atoms: C16_18  and  N2_19 
ROOT
HETATM    1  C13 UNL     1      26.525  -0.162  52.471  1.00  0.00     0.040 C 
HETATM    2  C14 UNL     1      27.682   0.002  53.087  1.00  0.00     0.112 C 
HETATM    3  C15 UNL     1      28.494  -1.206  53.230  1.00  0.00     0.105 C 
HETATM    4  N1  UNL     1      29.155  -2.155  53.351  1.00  0.00    -0.191 NA
ENDROOT
BRANCH   2   5
HETATM    5  C16 UNL     1      28.246   1.229  53.628  1.00  0.00     0.260 C 
HETATM    6  N2  UNL     1      29.655   1.249  53.890  1.00  0.00    -0.365 N 
HETATM    7  H13 UNL     1      30.556   1.223  53.326  1.00  0.00     0.159 HD
HETATM    8  H14 UNL     1      30.691   1.259  53.964  1.00  0.00     0.159 HD
HETATM    9  O1  UNL     1      28.401   2.380  54.068  1.00  0.00    -0.267 OA
ENDBRANCH   2   5
BRANCH   1  10
HETATM   10  C12 UNL     1      25.530   0.876  52.201  1.00  0.00    -0.026 A 
HETATM   11  C2  UNL     1      25.460   2.109  51.456  1.00  0.00    -0.035 A 
HETATM   12  C1  UNL     1      26.432   2.838  50.637  1.00  0.00     0.050 C 
HETATM   13  C3  UNL     1      24.177   2.313  51.799  1.00  0.00     0.013 A 
HETATM   14  C11 UNL     1      24.268   1.055  52.552  1.00  0.00     0.031 A 
BRANCH  13  15
HETATM   15  S1  UNL     1      22.905   3.548  51.484  1.00  0.00    -0.090 SA
BRANCH  15  16
HETATM   16  C4  UNL     1      22.608   3.565  49.726  1.00  0.00     0.005 A 
HETATM   17  C5  UNL     1      22.600   2.371  49.008  1.00  0.00     0.019 A 
HETATM   18  C6  UNL     1      22.371   2.340  47.640  1.00  0.00     0.008 A 
HETATM   19  C7  UNL     1      22.152   3.554  47.023  1.00  0.00    -0.062 A 
HETATM   20  C8  UNL     1      21.897   3.660  45.562  1.00  0.00     0.048 C 
HETATM   21  C9  UNL     1      22.151   4.762  47.692  1.00  0.00     0.008 A 
HETATM   22  C10 UNL     1      22.382   4.776  49.066  1.00  0.00     0.019 A 
ENDBRANCH  15  16
ENDBRANCH  13  15
ENDBRANCH   1  10
TORSDOF 4
ENDMDL
MODEL 5
REMARK VINA RESULT:      -7.9      3.793      7.179
REMARK  4 active torsions:
REMARK  status: ('A' for Active; 'I' for Inactive)
REMARK    1  A    between atoms: C3_3  and  S1_4 
REMARK    2  A    between atoms: S1_4  and  C4_5 
REMARK    3  A    between atoms: C12_13  and  C13_14 
REMARK    4  A    between atoms: C14_15  and  C16_18 
REMARK       I    between atoms: C16_18  and  N2_19 
ROOT
HETATM    1  C13 UNL     1      23.519   4.964  51.734  1.00  0.00     0.040 C 
HETATM    2  C14 UNL     1      24.288   5.587  50.859  1.00  0.00     0.112 C 
HETATM    3  C15 UNL     1      23.909   6.967  50.559  1.00  0.00     0.105 C 
HETATM    4  N1  UNL     1      23.624   8.067  50.309  1.00  0.00    -0.191 NA
ENDROOT
BRANCH   2   5
HETATM    5  C16 UNL     1      25.464   5.074  50.171  1.00  0.00     0.260 C 
HETATM    6  N2  UNL     1      26.459   6.023  49.769  1.00  0.00    -0.365 N 
HETATM    7  H13 UNL     1      27.162   6.667  50.240  1.00  0.00     0.159 HD
HETATM    8  H14 UNL     1      27.204   6.725  49.590  1.00  0.00     0.159 HD
HETATM    9  O1  UNL     1      26.304   4.338  49.630  1.00  0.00    -0.267 OA
ENDBRANCH   2   5
BRANCH   1  10
HETATM   10  C12 UNL     1      23.676   3.589  52.205  1.00  0.00    -0.026 A 
HETATM   11  C2  UNL     1      23.333   2.265  51.746  1.00  0.00    -0.035 A 
HETATM   12  C1  UNL     1      22.643   1.770  50.552  1.00  0.00     0.050 C 
HETATM   13  C3  UNL     1      23.893   1.682  52.819  1.00  0.00     0.013 A 
HETATM   14  C11 UNL     1      24.234   3.038  53.270  1.00  0.00     0.031 A 
BRANCH  13  15
HETATM   15  S1  UNL     1      24.137   0.009  53.437  1.00  0.00    -0.090 SA
BRANCH  15  16
HETATM   16  C4  UNL     1      25.895  -0.265  53.543  1.00  0.00     0.005 A 
HETATM   17  C5  UNL     1      26.652   0.414  54.496  1.00  0.00     0.019 A 
HETATM   18  C6  UNL     1      28.021   0.228  54.613  1.00  0.00     0.008 A 
HETATM   19  C7  UNL     1      28.601  -0.665  53.735  1.00  0.00    -0.062 A 
HETATM   20  C8  UNL     1      30.059  -0.953  53.753  1.00  0.00     0.048 C 
HETATM   21  C9  UNL     1      27.893  -1.360  52.775  1.00  0.00     0.008 A 
HETATM   22  C10 UNL     1      26.517  -1.163  52.670  1.00  0.00     0.019 A 
ENDBRANCH  15  16
ENDBRANCH  13  15
ENDBRANCH   1  10
TORSDOF 4
ENDMDL
MODEL 6
REMARK VINA RESULT:      -7.8      3.267      5.217
REMARK  4 active torsions:
REMARK  status: ('A' for Active; 'I' for Inactive)
REMARK    1  A    between atoms: C3_3  and  S1_4 
REMARK    2  A    between atoms: S1_4  and  C4_5 
REMARK    3  A    between atoms: C12_13  and  C13_14 
REMARK    4  A    between atoms: C14_15  and  C16_18 
REMARK       I    between atoms: C16_18  and  N2_19 
ROOT
HETATM    1  C13 UNL     1      26.645  -0.517  52.658  1.00  0.00     0.040 C 
HETATM    2  C14 UNL     1      27.825  -0.313  53.216  1.00  0.00     0.112 C 
HETATM    3  C15 UNL     1      28.680  -1.494  53.326  1.00  0.00     0.105 C 
HETATM    4  N1  UNL     1      29.375  -2.422  53.421  1.00  0.00    -0.191 NA
ENDROOT
BRANCH   2   5
HETATM    5  C16 UNL     1      28.377   0.936  53.721  1.00  0.00     0.260 C 
HETATM    6  N2  UNL     1      29.804   1.044  53.796  1.00  0.00    -0.365 N 
HETATM    7  H13 UNL     1      30.622   1.093  53.119  1.00  0.00     0.159 HD
HETATM    8  H14 UNL     1      30.839   1.122  53.735  1.00  0.00     0.159 HD
HETATM    9  O1  UNL     1      28.515   2.082  54.176  1.00  0.00    -0.267 OA
ENDBRANCH   2   5
BRANCH   1  10
HETATM   10  C12 UNL     1      25.607   0.489  52.432  1.00  0.00    -0.026 A 
HETATM   11  C2  UNL     1      24.225   0.686  52.794  1.00  0.00    -0.035 A 
HETATM   12  C1  UNL     1      23.274  -0.109  53.577  1.00  0.00     0.050 C 
HETATM   13  C3  UNL     1      24.161   1.863  52.150  1.00  0.00     0.013 A 
HETATM   14  C11 UNL     1      25.569   1.645  51.791  1.00  0.00     0.031 A 
BRANCH  13  15
HETATM   15  S1  UNL     1      22.931   3.145  51.857  1.00  0.00    -0.090 SA
BRANCH  15  16
HETATM   16  C4  UNL     1      21.419   2.328  51.379  1.00  0.00     0.005 A 
HETATM   17  C5  UNL     1      20.250   2.542  52.106  1.00  0.00     0.019 A 
HETATM   18  C6  UNL     1      19.053   1.929  51.768  1.00  0.00     0.008 A 
HETATM   19  C7  UNL     1      19.077   1.092  50.671  1.00  0.00    -0.062 A 
HETATM   20  C8  UNL     1      17.864   0.372  50.204  1.00  0.00     0.048 C 
HETATM   21  C9  UNL     1      20.210   0.849  49.921  1.00  0.00     0.008 A 
HETATM   22  C10 UNL     1      21.405   1.473  50.274  1.00  0.00     0.019 A 
ENDBRANCH  15  16
ENDBRANCH  13  15
ENDBRANCH   1  10
TORSDOF 4
ENDMDL
MODEL 7
REMARK VINA RESULT:      -7.8      3.602      7.169
REMARK  4 active torsions:
REMARK  status: ('A' for Active; 'I' for Inactive)
REMARK    1  A    between atoms: C3_3  and  S1_4 
REMARK    2  A    between atoms: S1_4  and  C4_5 
REMARK    3  A    between atoms: C12_13  and  C13_14 
REMARK    4  A    between atoms: C14_15  and  C16_18 
REMARK       I    between atoms: C16_18  and  N2_19 
ROOT
HETATM    1  C13 UNL     1      24.928   5.741  49.128  1.00  0.00     0.040 C 
HETATM    2  C14 UNL     1      26.047   6.150  48.556  1.00  0.00     0.112 C 
HETATM    3  C15 UNL     1      25.949   7.404  47.810  1.00  0.00     0.105 C 
HETATM    4  N1  UNL     1      25.891   8.401  47.214  1.00  0.00    -0.191 NA
ENDROOT
BRANCH   2   5
HETATM    5  C16 UNL     1      27.356   5.514  48.586  1.00  0.00     0.260 C 
HETATM    6  N2  UNL     1      28.485   6.343  48.889  1.00  0.00    -0.365 N 
HETATM    7  H13 UNL     1      28.858   6.881  49.726  1.00  0.00     0.159 HD
HETATM    8  H14 UNL     1      29.261   6.952  49.216  1.00  0.00     0.159 HD
HETATM    9  O1  UNL     1      28.287   4.695  48.532  1.00  0.00    -0.267 OA
ENDBRANCH   2   5
BRANCH   1  10
HETATM   10  C12 UNL     1      24.754   4.526  49.924  1.00  0.00    -0.026 A 
HETATM   11  C2  UNL     1      24.196   4.169  51.205  1.00  0.00    -0.035 A 
HETATM   12  C1  UNL     1      23.554   4.949  52.267  1.00  0.00     0.050 C 
HETATM   13  C3  UNL     1      24.486   2.868  51.037  1.00  0.00     0.013 A 
HETATM   14  C11 UNL     1      25.050   3.251  49.735  1.00  0.00     0.031 A 
BRANCH  13  15
HETATM   15  S1  UNL     1      24.279   1.337  51.962  1.00  0.00    -0.090 SA
BRANCH  15  16
HETATM   16  C4  UNL     1      25.902   0.802  52.470  1.00  0.00     0.005 A 
HETATM   17  C5  UNL     1      26.171  -0.556  52.630  1.00  0.00     0.019 A 
HETATM   18  C6  UNL     1      27.420  -1.015  53.021  1.00  0.00     0.008 A 
HETATM   19  C7  UNL     1      28.387  -0.057  53.246  1.00  0.00    -0.062 A 
HETATM   20  C8  UNL     1      29.766  -0.415  53.671  1.00  0.00     0.048 C 
HETATM   21  C9  UNL     1      28.168   1.298  53.100  1.00  0.00     0.008 A 
HETATM   22  C10 UNL     1      26.907   1.743  52.706  1.00  0.00     0.019 A 
ENDBRANCH  15  16
ENDBRANCH  13  15
ENDBRANCH   1  10
TORSDOF 4
ENDMDL
MODEL 8
REMARK VINA RESULT:      -7.7      3.417      4.132
REMARK  4 active torsions:
REMARK  status: ('A' for Active; 'I' for Inactive)
REMARK    1  A    between atoms: C3_3  and  S1_4 
REMARK    2  A    between atoms: S1_4  and  C4_5 
REMARK    3  A    between atoms: C12_13  and  C13_14 
REMARK    4  A    between atoms: C14_15  and  C16_18 
REMARK       I    between atoms: C16_18  and  N2_19 
ROOT
HETATM    1  C13 UNL     1      27.187   0.398  53.286  1.00  0.00     0.040 C 
HETATM    2  C14 UNL     1      27.851  -0.730  53.109  1.00  0.00     0.112 C 
HETATM    3  C15 UNL     1      29.252  -0.707  53.524  1.00  0.00     0.105 C 
HETATM    4  N1  UNL     1      30.369  -0.707  53.851  1.00  0.00    -0.191 NA
ENDROOT
BRANCH   2   5
HETATM    5  C16 UNL     1      27.357  -1.987  52.564  1.00  0.00     0.260 C 
HETATM    6  N2  UNL     1      28.066  -3.182  52.915  1.00  0.00    -0.365 N 
HETATM    7  H13 UNL     1      28.235  -3.763  53.789  1.00  0.00     0.159 HD
HETATM    8  H14 UNL     1      28.540  -4.033  53.278  1.00  0.00     0.159 HD
HETATM    9  O1  UNL     1      26.704  -2.850  51.957  1.00  0.00    -0.267 OA
ENDBRANCH   2   5
BRANCH   1  10
HETATM   10  C12 UNL     1      25.783   0.641  52.956  1.00  0.00    -0.026 A 
HETATM   11  C2  UNL     1      24.493   0.165  53.392  1.00  0.00    -0.035 A 
HETATM   12  C1  UNL     1      24.079  -0.815  54.400  1.00  0.00     0.050 C 
HETATM   13  C3  UNL     1      23.840   0.966  52.533  1.00  0.00     0.013 A 
HETATM   14  C11 UNL     1      25.162   1.438  52.102  1.00  0.00     0.031 A 
BRANCH  13  15
HETATM   15  S1  UNL     1      22.129   1.323  52.100  1.00  0.00    -0.090 SA
BRANCH  15  16
HETATM   16  C4  UNL     1      22.124   1.928  50.422  1.00  0.00     0.005 A 
HETATM   17  C5  UNL     1      22.520   3.236  50.151  1.00  0.00     0.019 A 
HETATM   18  C6  UNL     1      22.533   3.745  48.861  1.00  0.00     0.008 A 
HETATM   19  C7  UNL     1      22.131   2.890  47.856  1.00  0.00    -0.062 A 
HETATM   20  C8  UNL     1      22.096   3.312  46.430  1.00  0.00     0.048 C 
HETATM   21  C9  UNL     1      21.729   1.588  48.076  1.00  0.00     0.008 A 
HETATM   22  C10 UNL     1      21.722   1.091  49.378  1.00  0.00     0.019 A 
ENDBRANCH  15  16
ENDBRANCH  13  15
ENDBRANCH   1  10
TORSDOF 4
ENDMDL
MODEL 9
REMARK VINA RESULT:      -7.7      5.449      7.903
REMARK  4 active torsions:
REMARK  status: ('A' for Active; 'I' for Inactive)
REMARK    1  A    between atoms: C3_3  and  S1_4 
REMARK    2  A    between atoms: S1_4  and  C4_5 
REMARK    3  A    between atoms: C12_13  and  C13_14 
REMARK    4  A    between atoms: C14_15  and  C16_18 
REMARK       I    between atoms: C16_18  and  N2_19 
ROOT
HETATM    1  C13 UNL     1      22.965   4.298  51.586  1.00  0.00     0.040 C 
HETATM    2  C14 UNL     1      21.761   4.790  51.355  1.00  0.00     0.112 C 
HETATM    3  C15 UNL     1      21.731   6.134  50.781  1.00  0.00     0.105 C 
HETATM    4  N1  UNL     1      21.688   7.202  50.323  1.00  0.00    -0.191 NA
ENDROOT
BRANCH   2   5
HETATM    5  C16 UNL     1      20.471   4.157  51.590  1.00  0.00     0.260 C 
HETATM    6  N2  UNL     1      19.663   3.860  50.445  1.00  0.00    -0.365 N 
HETATM    7  H13 UNL     1      19.701   3.203  49.610  1.00  0.00     0.159 HD
HETATM    8  H14 UNL     1      19.157   3.565  49.586  1.00  0.00     0.159 HD
HETATM    9  O1  UNL     1      19.473   3.641  52.118  1.00  0.00    -0.267 OA
ENDBRANCH   2   5
BRANCH   1  10
HETATM   10  C12 UNL     1      23.273   2.985  52.153  1.00  0.00    -0.026 A 
HETATM   11  C2  UNL     1      22.912   1.611  51.904  1.00  0.00    -0.035 A 
HETATM   12  C1  UNL     1      22.032   0.972  50.920  1.00  0.00     0.050 C 
HETATM   13  C3  UNL     1      23.689   1.162  52.903  1.00  0.00     0.013 A 
HETATM   14  C11 UNL     1      24.046   2.567  53.142  1.00  0.00     0.031 A 
BRANCH  13  15
HETATM   15  S1  UNL     1      24.123  -0.428  53.628  1.00  0.00    -0.090 SA
BRANCH  15  16
HETATM   16  C4  UNL     1      25.902  -0.537  53.640  1.00  0.00     0.005 A 
HETATM   17  C5  UNL     1      26.556  -1.393  52.755  1.00  0.00     0.019 A 
HETATM   18  C6  UNL     1      27.937  -1.506  52.730  1.00  0.00     0.008 A 
HETATM   19  C7  UNL     1      28.637  -0.727  53.628  1.00  0.00    -0.062 A 
HETATM   20  C8  UNL     1      30.121  -0.755  53.706  1.00  0.00     0.048 C 
HETATM   21  C9  UNL     1      28.035   0.135  54.523  1.00  0.00     0.008 A 
HETATM   22  C10 UNL     1      26.645   0.237  54.535  1.00  0.00     0.019 A 
ENDBRANCH  15  16
ENDBRANCH  13  15
ENDBRANCH   1  10
TORSDOF 4
ENDMDL
