MODEL 1
REMARK VINA RESULT:      -8.6      0.000      0.000
REMARK  2 active torsions:
REMARK  status: ('A' for Active; 'I' for Inactive)
REMARK    1  A    between atoms: C2_2  and  C3_3 
REMARK    2  A    between atoms: C7_9  and  C8_10 
ROOT
HETATM    1  C3  UNL     1      28.375   0.315  53.604  1.00  0.00     0.008 C 
HETATM    2  C4  UNL     1      27.102   0.519  53.367  1.00  0.00    -0.038 C 
HETATM    3  C5  UNL     1      26.515   1.890  53.544  1.00  0.00     0.138 C 
HETATM    4  N1  UNL     1      25.313   2.177  53.327  1.00  0.00    -0.221 NA
HETATM    5  N2  UNL     1      24.715   3.401  53.463  1.00  0.00    -0.231 NA
HETATM    6  C6  UNL     1      23.545   3.540  52.842  1.00  0.00     0.304 C 
HETATM    7  C7  UNL     1      22.863   2.468  52.026  1.00  0.00     0.144 C 
HETATM    8  N4  UNL     1      23.607   1.277  51.913  1.00  0.00    -0.277 NA
HETATM    9  C18 UNL     1      23.437   0.344  52.771  1.00  0.00     0.196 C 
HETATM   10  N5  UNL     1      23.705  -0.937  53.323  1.00  0.00    -0.385 N 
HETATM   11  C19 UNL     1      24.994  -0.540  53.921  1.00  0.00     0.125 C 
HETATM   12  C20 UNL     1      25.999  -0.354  52.839  1.00  0.00     0.060 C 
HETATM   13  H21 UNL     1      23.100  -1.776  53.242  1.00  0.00     0.160 HD
ENDROOT
BRANCH   7  14
HETATM   14  C8  UNL     1      22.587   3.019  50.659  1.00  0.00     0.076 C 
HETATM   15  C9  UNL     1      21.898   4.343  50.887  1.00  0.00    -0.008 C 
HETATM   16  C10 UNL     1      21.964   5.650  50.695  1.00  0.00     0.039 C 
HETATM   17  S1  UNL     1      21.883   7.387  50.534  1.00  0.00    -0.160 SA
HETATM   18  C11 UNL     1      20.886   7.711  49.310  1.00  0.00     0.061 C 
HETATM   19  C12 UNL     1      23.452   8.166  50.295  1.00  0.00     0.038 C 
HETATM   20  C13 UNL     1      24.743   8.058  49.976  1.00  0.00    -0.016 C 
HETATM   21  C14 UNL     1      25.909   7.272  49.578  1.00  0.00     0.056 C 
HETATM   22  C15 UNL     1      25.613   5.787  49.513  1.00  0.00    -0.004 C 
HETATM   23  C16 UNL     1      25.844   4.491  49.853  1.00  0.00     0.112 C 
HETATM   24  N3  UNL     1      25.044   3.416  49.343  1.00  0.00    -0.277 NA
HETATM   25  C17 UNL     1      23.887   3.190  49.923  1.00  0.00     0.100 C 
ENDBRANCH   7  14
BRANCH   1  26
HETATM   26  C2  UNL     1      28.891  -1.022  53.419  1.00  0.00    -0.010 C 
HETATM   27  C1  UNL     1      30.134  -1.238  53.796  1.00  0.00     0.011 C 
ENDBRANCH   1  26
TORSDOF 2
ENDMDL
MODEL 2
REMARK VINA RESULT:      -8.1      2.838      7.810
REMARK  2 active torsions:
REMARK  status: ('A' for Active; 'I' for Inactive)
REMARK    1  A    between atoms: C2_2  and  C3_3 
REMARK    2  A    between atoms: C7_9  and  C8_10 
ROOT
HETATM    1  C3  UNL     1      24.870   8.123  47.446  1.00  0.00     0.008 C 
HETATM    2  C4  UNL     1      24.468   7.280  48.365  1.00  0.00    -0.038 C 
HETATM    3  C5  UNL     1      23.200   6.499  48.168  1.00  0.00     0.138 C 
HETATM    4  N1  UNL     1      22.750   5.663  48.988  1.00  0.00    -0.221 NA
HETATM    5  N2  UNL     1      21.608   4.917  48.869  1.00  0.00    -0.231 NA
HETATM    6  C6  UNL     1      21.528   3.860  49.675  1.00  0.00     0.304 C 
HETATM    7  C7  UNL     1      22.582   3.448  50.675  1.00  0.00     0.144 C 
HETATM    8  N4  UNL     1      23.733   4.262  50.658  1.00  0.00    -0.277 NA
HETATM    9  C18 UNL     1      23.795   5.282  51.427  1.00  0.00     0.196 C 
HETATM   10  N5  UNL     1      24.436   6.430  51.962  1.00  0.00    -0.385 N 
HETATM   11  C19 UNL     1      24.191   7.267  50.773  1.00  0.00     0.125 C 
HETATM   12  C20 UNL     1      25.065   6.805  49.660  1.00  0.00     0.060 C 
HETATM   13  H21 UNL     1      24.887   6.500  52.895  1.00  0.00     0.160 HD
ENDROOT
BRANCH   7  14
HETATM   14  C8  UNL     1      22.969   2.026  50.397  1.00  0.00     0.076 C 
HETATM   15  C9  UNL     1      24.110   1.726  51.338  1.00  0.00    -0.008 C 
HETATM   16  C10 UNL     1      24.523   0.964  52.338  1.00  0.00     0.039 C 
HETATM   17  S1  UNL     1      25.234   0.057  53.650  1.00  0.00    -0.160 SA
HETATM   18  C11 UNL     1      26.213  -1.045  53.000  1.00  0.00     0.061 C 
HETATM   19  C12 UNL     1      24.054  -0.701  54.728  1.00  0.00     0.038 C 
HETATM   20  C13 UNL     1      22.801  -1.100  54.948  1.00  0.00    -0.016 C 
HETATM   21  C14 UNL     1      21.406  -1.250  54.534  1.00  0.00     0.056 C 
HETATM   22  C15 UNL     1      21.128  -0.608  53.190  1.00  0.00    -0.004 C 
HETATM   23  C16 UNL     1      20.451   0.242  52.372  1.00  0.00     0.112 C 
HETATM   24  N3  UNL     1      20.768   0.371  50.980  1.00  0.00    -0.277 NA
HETATM   25  C17 UNL     1      21.787   1.133  50.655  1.00  0.00     0.100 C 
ENDBRANCH   7  14
BRANCH   1  26
HETATM   26  C2  UNL     1      26.096   8.849  47.684  1.00  0.00    -0.010 C 
HETATM   27  C1  UNL     1      27.156   8.468  47.003  1.00  0.00     0.011 C 
ENDBRANCH   1  26
TORSDOF 2
ENDMDL
MODEL 3
REMARK VINA RESULT:      -7.8      4.636      6.371
REMARK  2 active torsions:
REMARK  status: ('A' for Active; 'I' for Inactive)
REMARK    1  A    between atoms: C2_2  and  C3_3 
REMARK    2  A    between atoms: C7_9  and  C8_10 
ROOT
HETATM    1  C3  UNL     1      26.747  -0.126  52.457  1.00  0.00     0.008 C 
HETATM    2  C4  UNL     1      25.472  -0.019  52.741  1.00  0.00    -0.038 C 
HETATM    3  C5  UNL     1      24.736   1.253  52.430  1.00  0.00     0.138 C 
HETATM    4  N1  UNL     1      23.516   1.437  52.655  1.00  0.00    -0.221 NA
HETATM    5  N2  UNL     1      22.785   2.565  52.394  1.00  0.00    -0.231 NA
HETATM    6  C6  UNL     1      21.463   2.402  52.383  1.00  0.00     0.304 C 
HETATM    7  C7  UNL     1      20.748   1.096  52.633  1.00  0.00     0.144 C 
HETATM    8  N4  UNL     1      21.612   0.000  52.829  1.00  0.00    -0.277 NA
HETATM    9  C18 UNL     1      21.991  -0.299  54.014  1.00  0.00     0.196 C 
HETATM   10  N5  UNL     1      22.711  -1.079  54.957  1.00  0.00    -0.385 N 
HETATM   11  C19 UNL     1      24.020  -0.488  54.624  1.00  0.00     0.125 C 
HETATM   12  C20 UNL     1      24.453  -0.979  53.287  1.00  0.00     0.060 C 
HETATM   13  H21 UNL     1      22.308  -1.792  55.595  1.00  0.00     0.160 HD
ENDROOT
BRANCH   7  14
HETATM   14  C8  UNL     1      19.847   0.820  51.466  1.00  0.00     0.076 C 
HETATM   15  C9  UNL     1      18.808  -0.149  51.977  1.00  0.00    -0.008 C 
HETATM   16  C10 UNL     1      17.518  -0.345  52.193  1.00  0.00     0.039 C 
HETATM   17  S1  UNL     1      15.863  -0.778  52.546  1.00  0.00    -0.160 SA
HETATM   18  C11 UNL     1      15.345  -1.720  51.345  1.00  0.00     0.061 C 
HETATM   19  C12 UNL     1      14.785   0.606  52.774  1.00  0.00     0.038 C 
HETATM   20  C13 UNL     1      14.557   1.911  52.624  1.00  0.00    -0.016 C 
HETATM   21  C14 UNL     1      14.958   3.245  52.179  1.00  0.00     0.056 C 
HETATM   22  C15 UNL     1      16.371   3.275  51.635  1.00  0.00    -0.004 C 
HETATM   23  C16 UNL     1      17.646   3.747  51.604  1.00  0.00     0.112 C 
HETATM   24  N3  UNL     1      18.625   3.234  50.689  1.00  0.00    -0.277 NA
HETATM   25  C17 UNL     1      19.224   2.109  51.006  1.00  0.00     0.100 C 
ENDBRANCH   7  14
BRANCH   1  26
HETATM   26  C2  UNL     1      27.408  -1.371  52.776  1.00  0.00    -0.010 C 
HETATM   27  C1  UNL     1      28.623  -1.287  53.277  1.00  0.00     0.011 C 
ENDBRANCH   1  26
TORSDOF 2
ENDMDL
MODEL 4
REMARK VINA RESULT:      -7.5      2.893      5.389
REMARK  2 active torsions:
REMARK  status: ('A' for Active; 'I' for Inactive)
REMARK    1  A    between atoms: C2_2  and  C3_3 
REMARK    2  A    between atoms: C7_9  and  C8_10 
ROOT
HETATM    1  C3  UNL     1      18.448  -0.567  52.296  1.00  0.00     0.008 C 
HETATM    2  C4  UNL     1      19.693  -0.173  52.400  1.00  0.00    -0.038 C 
HETATM    3  C5  UNL     1      20.388   0.445  51.220  1.00  0.00     0.138 C 
HETATM    4  N1  UNL     1      21.572   0.862  51.236  1.00  0.00    -0.221 NA
HETATM    5  N2  UNL     1      22.262   1.436  50.202  1.00  0.00    -0.231 NA
HETATM    6  C6  UNL     1      23.355   2.113  50.549  1.00  0.00     0.304 C 
HETATM    7  C7  UNL     1      23.860   2.282  51.963  1.00  0.00     0.144 C 
HETATM    8  N4  UNL     1      23.029   1.696  52.939  1.00  0.00    -0.277 NA
HETATM    9  C18 UNL     1      23.239   0.487  53.301  1.00  0.00     0.196 C 
HETATM   10  N5  UNL     1      22.955  -0.676  54.064  1.00  0.00    -0.385 N 
HETATM   11  C19 UNL     1      21.778  -1.059  53.263  1.00  0.00     0.125 C 
HETATM   12  C20 UNL     1      20.663  -0.114  53.546  1.00  0.00     0.060 C 
HETATM   13  H21 UNL     1      23.488  -1.012  54.889  1.00  0.00     0.160 HD
ENDROOT
BRANCH   7  14
HETATM   14  C8  UNL     1      24.003   3.748  52.242  1.00  0.00     0.076 C 
HETATM   15  C9  UNL     1      24.962   4.267  51.198  1.00  0.00    -0.008 C 
HETATM   16  C10 UNL     1      25.118   5.102  50.184  1.00  0.00     0.039 C 
HETATM   17  S1  UNL     1      25.504   6.139  48.833  1.00  0.00    -0.160 SA
HETATM   18  C11 UNL     1      26.325   7.399  49.412  1.00  0.00     0.061 C 
HETATM   19  C12 UNL     1      24.096   6.674  47.906  1.00  0.00     0.038 C 
HETATM   20  C13 UNL     1      22.774   6.833  47.827  1.00  0.00    -0.016 C 
HETATM   21  C14 UNL     1      21.428   6.715  48.387  1.00  0.00     0.056 C 
HETATM   22  C15 UNL     1      21.419   6.019  49.733  1.00  0.00    -0.004 C 
HETATM   23  C16 UNL     1      21.002   5.049  50.590  1.00  0.00     0.112 C 
HETATM   24  N3  UNL     1      21.484   4.967  51.938  1.00  0.00    -0.277 NA
HETATM   25  C17 UNL     1      22.656   4.407  52.133  1.00  0.00     0.100 C 
ENDBRANCH   7  14
BRANCH   1  26
HETATM   26  C2  UNL     1      17.825  -1.154  53.460  1.00  0.00    -0.010 C 
HETATM   27  C1  UNL     1      17.793  -2.469  53.519  1.00  0.00     0.011 C 
ENDBRANCH   1  26
TORSDOF 2
ENDMDL
MODEL 5
REMARK VINA RESULT:      -7.5      3.192      3.956
REMARK  2 active torsions:
REMARK  status: ('A' for Active; 'I' for Inactive)
REMARK    1  A    between atoms: C2_2  and  C3_3 
REMARK    2  A    between atoms: C7_9  and  C8_10 
ROOT
HETATM    1  C3  UNL     1      25.227   0.395  53.377  1.00  0.00     0.008 C 
HETATM    2  C4  UNL     1      23.928   0.456  53.215  1.00  0.00    -0.038 C 
HETATM    3  C5  UNL     1      23.274   1.763  52.868  1.00  0.00     0.138 C 
HETATM    4  N1  UNL     1      22.042   1.909  52.682  1.00  0.00    -0.221 NA
HETATM    5  N2  UNL     1      21.383   3.066  52.361  1.00  0.00    -0.231 NA
HETATM    6  C6  UNL     1      20.156   2.908  51.869  1.00  0.00     0.304 C 
HETATM    7  C7  UNL     1      19.471   1.580  51.650  1.00  0.00     0.144 C 
HETATM    8  N4  UNL     1      20.276   0.466  51.962  1.00  0.00    -0.277 NA
HETATM    9  C18 UNL     1      20.243  -0.024  53.144  1.00  0.00     0.196 C 
HETATM   10  N5  UNL     1      20.639  -0.950  54.145  1.00  0.00    -0.385 N 
HETATM   11  C19 UNL     1      21.948  -0.314  54.382  1.00  0.00     0.125 C 
HETATM   12  C20 UNL     1      22.839  -0.579  53.219  1.00  0.00     0.060 C 
HETATM   13  H21 UNL     1      20.083  -1.757  54.486  1.00  0.00     0.160 HD
ENDROOT
BRANCH   7  14
HETATM   14  C8  UNL     1      19.040   1.500  50.216  1.00  0.00     0.076 C 
HETATM   15  C9  UNL     1      18.394   2.831  49.913  1.00  0.00    -0.008 C 
HETATM   16  C10 UNL     1      18.448   3.920  49.164  1.00  0.00     0.039 C 
HETATM   17  S1  UNL     1      18.362   5.418  48.271  1.00  0.00    -0.160 SA
HETATM   18  C11 UNL     1      17.231   5.240  47.138  1.00  0.00     0.061 C 
HETATM   19  C12 UNL     1      19.899   5.923  47.556  1.00  0.00     0.038 C 
HETATM   20  C13 UNL     1      21.142   5.613  47.185  1.00  0.00    -0.016 C 
HETATM   21  C14 UNL     1      22.247   4.664  47.053  1.00  0.00     0.056 C 
HETATM   22  C15 UNL     1      21.932   3.317  47.672  1.00  0.00    -0.004 C 
HETATM   23  C16 UNL     1      22.192   2.284  48.518  1.00  0.00     0.112 C 
HETATM   24  N3  UNL     1      21.327   1.144  48.613  1.00  0.00    -0.277 NA
HETATM   25  C17 UNL     1      20.246   1.260  49.350  1.00  0.00     0.100 C 
ENDBRANCH   7  14
BRANCH   1  26
HETATM   26  C2  UNL     1      25.808  -0.886  53.709  1.00  0.00    -0.010 C 
HETATM   27  C1  UNL     1      26.635  -1.411  52.830  1.00  0.00     0.011 C 
ENDBRANCH   1  26
TORSDOF 2
ENDMDL
MODEL 6
REMARK VINA RESULT:      -7.5      2.234      4.137
REMARK  2 active torsions:
REMARK  status: ('A' for Active; 'I' for Inactive)
REMARK    1  A    between atoms: C2_2  and  C3_3 
REMARK    2  A    between atoms: C7_9  and  C8_10 
ROOT
HETATM    1  C3  UNL     1      27.099  -0.103  54.638  1.00  0.00     0.008 C 
HETATM    2  C4  UNL     1      26.415   0.589  53.760  1.00  0.00    -0.038 C 
HETATM    3  C5  UNL     1      24.980   0.242  53.480  1.00  0.00     0.138 C 
HETATM    4  N1  UNL     1      24.249   0.859  52.668  1.00  0.00    -0.221 NA
HETATM    5  N2  UNL     1      22.938   0.599  52.369  1.00  0.00    -0.231 NA
HETATM    6  C6  UNL     1      22.282   1.587  51.764  1.00  0.00     0.304 C 
HETATM    7  C7  UNL     1      22.873   2.928  51.401  1.00  0.00     0.144 C 
HETATM    8  N4  UNL     1      24.210   3.093  51.815  1.00  0.00    -0.277 NA
HETATM    9  C18 UNL     1      25.160   2.769  51.022  1.00  0.00     0.196 C 
HETATM   10  N5  UNL     1      26.529   2.622  50.675  1.00  0.00    -0.385 N 
HETATM   11  C19 UNL     1      26.734   1.421  51.506  1.00  0.00     0.125 C 
HETATM   12  C20 UNL     1      26.726   1.811  52.942  1.00  0.00     0.060 C 
HETATM   13  H21 UNL     1      27.068   3.240  50.039  1.00  0.00     0.160 HD
ENDROOT
BRANCH   7  14
HETATM   14  C8  UNL     1      22.023   4.001  52.013  1.00  0.00     0.076 C 
HETATM   15  C9  UNL     1      22.042   5.144  51.028  1.00  0.00    -0.008 C 
HETATM   16  C10 UNL     1      21.308   5.911  50.239  1.00  0.00     0.039 C 
HETATM   17  S1  UNL     1      20.503   7.013  49.148  1.00  0.00    -0.160 SA
HETATM   18  C11 UNL     1      20.329   8.415  49.922  1.00  0.00     0.061 C 
HETATM   19  C12 UNL     1      18.948   6.426  48.544  1.00  0.00     0.038 C 
HETATM   20  C13 UNL     1      17.928   5.573  48.657  1.00  0.00    -0.016 C 
HETATM   21  C14 UNL     1      17.247   4.461  49.317  1.00  0.00     0.056 C 
HETATM   22  C15 UNL     1      18.067   3.866  50.444  1.00  0.00    -0.004 C 
HETATM   23  C16 UNL     1      18.679   2.830  51.079  1.00  0.00     0.112 C 
HETATM   24  N3  UNL     1      19.404   3.011  52.303  1.00  0.00    -0.277 NA
HETATM   25  C17 UNL     1      20.632   3.471  52.221  1.00  0.00     0.100 C 
ENDBRANCH   7  14
BRANCH   1  26
HETATM   26  C2  UNL     1      28.475   0.272  54.871  1.00  0.00    -0.010 C 
HETATM   27  C1  UNL     1      29.388  -0.335  54.142  1.00  0.00     0.011 C 
ENDBRANCH   1  26
TORSDOF 2
ENDMDL
MODEL 7
REMARK VINA RESULT:      -7.4      7.915      9.746
REMARK  2 active torsions:
REMARK  status: ('A' for Active; 'I' for Inactive)
REMARK    1  A    between atoms: C2_2  and  C3_3 
REMARK    2  A    between atoms: C7_9  and  C8_10 
ROOT
HETATM    1  C3  UNL     1      32.213   2.220  46.438  1.00  0.00     0.008 C 
HETATM    2  C4  UNL     1      32.598   3.381  46.908  1.00  0.00    -0.038 C 
HETATM    3  C5  UNL     1      32.388   4.628  46.097  1.00  0.00     0.138 C 
HETATM    4  N1  UNL     1      32.712   5.780  46.475  1.00  0.00    -0.221 NA
HETATM    5  N2  UNL     1      32.547   6.955  45.791  1.00  0.00    -0.231 NA
HETATM    6  C6  UNL     1      32.632   8.062  46.525  1.00  0.00     0.304 C 
HETATM    7  C7  UNL     1      32.890   8.100  48.013  1.00  0.00     0.144 C 
HETATM    8  N4  UNL     1      32.982   6.826  48.608  1.00  0.00    -0.277 NA
HETATM    9  C18 UNL     1      34.123   6.256  48.704  1.00  0.00     0.196 C 
HETATM   10  N5  UNL     1      34.981   5.189  49.079  1.00  0.00    -0.385 N 
HETATM   11  C19 UNL     1      34.569   4.310  47.969  1.00  0.00     0.125 C 
HETATM   12  C20 UNL     1      33.187   3.818  48.219  1.00  0.00     0.060 C 
HETATM   13  H21 UNL     1      35.622   5.178  49.895  1.00  0.00     0.160 HD
ENDROOT
BRANCH   7  14
HETATM   14  C8  UNL     1      31.787   8.880  48.664  1.00  0.00     0.076 C 
HETATM   15  C9  UNL     1      31.639  10.137  47.842  1.00  0.00    -0.008 C 
HETATM   16  C10 UNL     1      30.823  10.851  47.085  1.00  0.00     0.039 C 
HETATM   17  S1  UNL     1      29.890  11.920  46.066  1.00  0.00    -0.160 SA
HETATM   18  C11 UNL     1      29.363  13.129  46.992  1.00  0.00     0.061 C 
HETATM   19  C12 UNL     1      28.546  11.132  45.230  1.00  0.00     0.038 C 
HETATM   20  C13 UNL     1      27.724  10.086  45.122  1.00  0.00    -0.016 C 
HETATM   21  C14 UNL     1      27.245   8.775  45.557  1.00  0.00     0.056 C 
HETATM   22  C15 UNL     1      28.083   8.195  46.678  1.00  0.00    -0.004 C 
HETATM   23  C16 UNL     1      28.850   7.219  47.235  1.00  0.00     0.112 C 
HETATM   24  N3  UNL     1      29.423   7.357  48.542  1.00  0.00    -0.277 NA
HETATM   25  C17 UNL     1      30.528   8.059  48.653  1.00  0.00     0.100 C 
ENDBRANCH   7  14
BRANCH   1  26
HETATM   26  C2  UNL     1      32.437   1.051  47.257  1.00  0.00    -0.010 C 
HETATM   27  C1  UNL     1      32.003  -0.098  46.785  1.00  0.00     0.011 C 
ENDBRANCH   1  26
TORSDOF 2
ENDMDL
MODEL 8
REMARK VINA RESULT:      -7.4      2.710      8.259
REMARK  2 active torsions:
REMARK  status: ('A' for Active; 'I' for Inactive)
REMARK    1  A    between atoms: C2_2  and  C3_3 
REMARK    2  A    between atoms: C7_9  and  C8_10 
ROOT
HETATM    1  C3  UNL     1      20.467   8.282  49.704  1.00  0.00     0.008 C 
HETATM    2  C4  UNL     1      21.581   7.637  49.948  1.00  0.00    -0.038 C 
HETATM    3  C5  UNL     1      21.655   6.671  51.096  1.00  0.00     0.138 C 
HETATM    4  N1  UNL     1      22.675   6.003  51.393  1.00  0.00    -0.221 NA
HETATM    5  N2  UNL     1      22.810   5.106  52.419  1.00  0.00    -0.231 NA
HETATM    6  C6  UNL     1      23.841   4.270  52.318  1.00  0.00     0.304 C 
HETATM    7  C7  UNL     1      24.836   4.252  51.182  1.00  0.00     0.144 C 
HETATM    8  N4  UNL     1      24.554   5.182  50.161  1.00  0.00    -0.277 NA
HETATM    9  C18 UNL     1      25.060   6.356  50.220  1.00  0.00     0.196 C 
HETATM   10  N5  UNL     1      25.271   7.673  49.733  1.00  0.00    -0.385 N 
HETATM   11  C19 UNL     1      23.940   8.162  50.137  1.00  0.00     0.125 C 
HETATM   12  C20 UNL     1      22.907   7.568  49.245  1.00  0.00     0.060 C 
HETATM   13  H21 UNL     1      26.129   8.022  49.266  1.00  0.00     0.160 HD
ENDROOT
BRANCH   7  14
HETATM   14  C8  UNL     1      24.869   2.869  50.604  1.00  0.00     0.076 C 
HETATM   15  C9  UNL     1      25.700   2.049  51.561  1.00  0.00    -0.008 C 
HETATM   16  C10 UNL     1      25.708   1.011  52.379  1.00  0.00     0.039 C 
HETATM   17  S1  UNL     1      25.902  -0.318  53.496  1.00  0.00    -0.160 SA
HETATM   18  C11 UNL     1      26.647  -1.508  52.705  1.00  0.00     0.061 C 
HETATM   19  C12 UNL     1      24.389  -0.887  54.214  1.00  0.00     0.038 C 
HETATM   20  C13 UNL     1      23.056  -0.923  54.189  1.00  0.00    -0.016 C 
HETATM   21  C14 UNL     1      21.770  -0.554  53.599  1.00  0.00     0.056 C 
HETATM   22  C15 UNL     1      21.919   0.403  52.434  1.00  0.00    -0.004 C 
HETATM   23  C16 UNL     1      21.653   1.567  51.783  1.00  0.00     0.112 C 
HETATM   24  N3  UNL     1      22.236   1.877  50.510  1.00  0.00    -0.277 NA
HETATM   25  C17 UNL     1      23.464   2.343  50.500  1.00  0.00     0.100 C 
ENDBRANCH   7  14
BRANCH   1  26
HETATM   26  C2  UNL     1      20.447   9.200  48.588  1.00  0.00    -0.010 C 
HETATM   27  C1  UNL     1      20.717  10.461  48.850  1.00  0.00     0.011 C 
ENDBRANCH   1  26
TORSDOF 2
ENDMDL
MODEL 9
REMARK VINA RESULT:      -7.3      2.467      4.472
REMARK  2 active torsions:
REMARK  status: ('A' for Active; 'I' for Inactive)
REMARK    1  A    between atoms: C2_2  and  C3_3 
REMARK    2  A    between atoms: C7_9  and  C8_10 
ROOT
HETATM    1  C3  UNL     1      21.563   0.104  53.329  1.00  0.00     0.008 C 
HETATM    2  C4  UNL     1      22.539   0.740  52.729  1.00  0.00    -0.038 C 
HETATM    3  C5  UNL     1      22.330   1.314  51.356  1.00  0.00     0.138 C 
HETATM    4  N1  UNL     1      23.203   1.949  50.716  1.00  0.00    -0.221 NA
HETATM    5  N2  UNL     1      23.079   2.500  49.468  1.00  0.00    -0.231 NA
HETATM    6  C6  UNL     1      23.994   3.415  49.153  1.00  0.00     0.304 C 
HETATM    7  C7  UNL     1      25.118   3.866  50.054  1.00  0.00     0.144 C 
HETATM    8  N4  UNL     1      25.100   3.268  51.330  1.00  0.00    -0.277 NA
HETATM    9  C18 UNL     1      25.747   2.182  51.527  1.00  0.00     0.196 C 
HETATM   10  N5  UNL     1      26.196   1.099  52.329  1.00  0.00    -0.385 N 
HETATM   11  C19 UNL     1      24.901   0.394  52.309  1.00  0.00     0.125 C 
HETATM   12  C20 UNL     1      23.925   1.137  53.152  1.00  0.00     0.060 C 
HETATM   13  H21 UNL     1      27.147   0.986  52.727  1.00  0.00     0.160 HD
ENDROOT
BRANCH   7  14
HETATM   14  C8  UNL     1      25.041   5.356  50.198  1.00  0.00     0.076 C 
HETATM   15  C9  UNL     1      24.908   5.892  48.793  1.00  0.00    -0.008 C 
HETATM   16  C10 UNL     1      24.145   6.579  47.959  1.00  0.00     0.039 C 
HETATM   17  S1  UNL     1      23.275   7.457  46.725  1.00  0.00    -0.160 SA
HETATM   18  C11 UNL     1      23.928   8.927  46.628  1.00  0.00     0.061 C 
HETATM   19  C12 UNL     1      21.531   7.557  47.002  1.00  0.00     0.038 C 
HETATM   20  C13 UNL     1      20.500   7.436  47.839  1.00  0.00    -0.016 C 
HETATM   21  C14 UNL     1      19.939   7.139  49.157  1.00  0.00     0.056 C 
HETATM   22  C15 UNL     1      20.989   6.666  50.140  1.00  0.00    -0.004 C 
HETATM   23  C16 UNL     1      21.497   5.772  51.032  1.00  0.00     0.112 C 
HETATM   24  N3  UNL     1      22.747   5.992  51.700  1.00  0.00    -0.277 NA
HETATM   25  C17 UNL     1      23.848   5.711  51.041  1.00  0.00     0.100 C 
ENDBRANCH   7  14
BRANCH   1  26
HETATM   26  C2  UNL     1      21.815  -0.430  54.648  1.00  0.00    -0.010 C 
HETATM   27  C1  UNL     1      22.107  -1.711  54.727  1.00  0.00     0.011 C 
ENDBRANCH   1  26
TORSDOF 2
ENDMDL
