MODEL 1
REMARK VINA RESULT:      -7.1      0.000      0.000
REMARK  4 active torsions:
REMARK  status: ('A' for Active; 'I' for Inactive)
REMARK    1  A    between atoms: C2_2  and  C3_3 
REMARK    2  A    between atoms: C3_3  and  P1_4 
REMARK    3  A    between atoms: C17_20  and  C18_21 
REMARK    4  A    between atoms: C18_21  and  O2_23 
ROOT
HETATM    1  P1  UNL     1      22.677   3.524  48.819  1.00  0.00    -0.011 P 
HETATM    2  C4  UNL     1      24.203   4.299  49.036  1.00  0.00    -0.008 C 
HETATM    3  C5  UNL     1      23.807   5.790  49.104  1.00  0.00     0.002 A 
HETATM    4  C6  UNL     1      24.214   6.985  48.548  1.00  0.00     0.014 A 
HETATM    5  C7  UNL     1      23.592   8.118  49.052  1.00  0.00     0.001 A 
HETATM    6  C8  UNL     1      22.630   8.099  50.041  1.00  0.00     0.002 A 
HETATM    7  C9  UNL     1      22.133   6.987  50.684  1.00  0.00     0.032 A 
HETATM    8  C10 UNL     1      22.770   5.925  50.156  1.00  0.00     0.065 A 
HETATM    9  N1  UNL     1      22.716   4.515  50.569  1.00  0.00    -0.270 N 
HETATM   10  N2  UNL     1      23.019   4.117  51.866  1.00  0.00    -0.294 N 
HETATM   11  C11 UNL     1      24.342   3.397  51.866  1.00  0.00     0.056 A 
HETATM   12  C12 UNL     1      24.375   2.879  53.149  1.00  0.00     0.031 A 
HETATM   13  C13 UNL     1      25.520   2.185  53.463  1.00  0.00     0.002 A 
HETATM   14  C14 UNL     1      26.538   2.035  52.550  1.00  0.00     0.001 A 
HETATM   15  C15 UNL     1      26.490   2.556  51.280  1.00  0.00     0.011 A 
HETATM   16  C16 UNL     1      25.391   3.257  50.886  1.00  0.00    -0.011 A 
HETATM   17  C17 UNL     1      25.475   3.807  49.409  1.00  0.00     0.154 C 
HETATM   18  H8  UNL     1      21.892   4.211  48.072  1.00  0.00     0.081 HD
HETATM   19  H13 UNL     1      22.344   4.425  52.503  1.00  0.00     0.187 HD
ENDROOT
BRANCH   1  20
HETATM   20  C3  UNL     1      22.616   1.912  49.144  1.00  0.00     0.054 C 
BRANCH  20  21
HETATM   21  C2  UNL     1      21.310   1.528  49.834  1.00  0.00     0.001 C 
HETATM   22  C1  UNL     1      21.543   0.793  51.127  1.00  0.00     0.005 C 
ENDBRANCH  20  21
ENDBRANCH   1  20
BRANCH  17  23
HETATM   23  C18 UNL     1      26.601   4.711  49.296  1.00  0.00     0.153 C 
HETATM   24  O1  UNL     1      27.621   4.306  48.661  1.00  0.00    -0.649 OA
BRANCH  23  25
HETATM   25  O2  UNL     1      27.583   5.691  49.282  1.00  0.00    -0.776 OA
HETATM   26  H19 UNL     1      27.431   6.645  48.946  1.00  0.00     0.167 HD
ENDBRANCH  23  25
ENDBRANCH  17  23
TORSDOF 4
ENDMDL
MODEL 2
REMARK VINA RESULT:      -6.9      1.752      2.294
REMARK  4 active torsions:
REMARK  status: ('A' for Active; 'I' for Inactive)
REMARK    1  A    between atoms: C2_2  and  C3_3 
REMARK    2  A    between atoms: C3_3  and  P1_4 
REMARK    3  A    between atoms: C17_20  and  C18_21 
REMARK    4  A    between atoms: C18_21  and  O2_23 
ROOT
HETATM    1  P1  UNL     1      22.851   4.959  48.065  1.00  0.00    -0.011 P 
HETATM    2  C4  UNL     1      24.220   4.558  49.037  1.00  0.00    -0.008 C 
HETATM    3  C5  UNL     1      24.787   5.950  49.392  1.00  0.00     0.002 A 
HETATM    4  C6  UNL     1      26.012   6.585  49.399  1.00  0.00     0.014 A 
HETATM    5  C7  UNL     1      26.019   7.857  49.953  1.00  0.00     0.001 A 
HETATM    6  C8  UNL     1      24.903   8.482  50.475  1.00  0.00     0.002 A 
HETATM    7  C9  UNL     1      23.627   7.968  50.537  1.00  0.00     0.032 A 
HETATM    8  C10 UNL     1      23.683   6.740  49.987  1.00  0.00     0.065 A 
HETATM    9  N1  UNL     1      22.637   5.709  49.918  1.00  0.00    -0.270 N 
HETATM   10  N2  UNL     1      22.004   5.227  51.058  1.00  0.00    -0.294 N 
HETATM   11  C11 UNL     1      22.471   3.820  51.325  1.00  0.00     0.056 A 
HETATM   12  C12 UNL     1      21.594   3.422  52.320  1.00  0.00     0.031 A 
HETATM   13  C13 UNL     1      21.811   2.154  52.807  1.00  0.00     0.002 A 
HETATM   14  C14 UNL     1      22.829   1.366  52.324  1.00  0.00     0.001 A 
HETATM   15  C15 UNL     1      23.692   1.777  51.336  1.00  0.00     0.011 A 
HETATM   16  C16 UNL     1      23.547   3.019  50.796  1.00  0.00    -0.011 A 
HETATM   17  C17 UNL     1      24.611   3.363  49.682  1.00  0.00     0.154 C 
HETATM   18  H8  UNL     1      23.073   5.981  47.322  1.00  0.00     0.081 HD
HETATM   19  H13 UNL     1      21.435   5.909  51.468  1.00  0.00     0.187 HD
ENDROOT
BRANCH   1  20
HETATM   20  C3  UNL     1      21.724   3.778  47.856  1.00  0.00     0.054 C 
BRANCH  20  21
HETATM   21  C2  UNL     1      22.365   2.461  47.428  1.00  0.00     0.001 C 
HETATM   22  C1  UNL     1      21.819   1.286  48.195  1.00  0.00     0.005 C 
ENDBRANCH  20  21
ENDBRANCH   1  20
BRANCH  17  23
HETATM   23  C18 UNL     1      25.939   3.316  50.255  1.00  0.00     0.153 C 
HETATM   24  O1  UNL     1      26.913   3.109  49.471  1.00  0.00    -0.649 OA
BRANCH  23  25
HETATM   25  O2  UNL     1      27.135   3.301  50.960  1.00  0.00    -0.776 OA
HETATM   26  H19 UNL     1      27.696   2.459  51.112  1.00  0.00     0.167 HD
ENDBRANCH  23  25
ENDBRANCH  17  23
TORSDOF 4
ENDMDL
MODEL 3
REMARK VINA RESULT:      -6.8      7.614     10.250
REMARK  4 active torsions:
REMARK  status: ('A' for Active; 'I' for Inactive)
REMARK    1  A    between atoms: C2_2  and  C3_3 
REMARK    2  A    between atoms: C3_3  and  P1_4 
REMARK    3  A    between atoms: C17_20  and  C18_21 
REMARK    4  A    between atoms: C18_21  and  O2_23 
ROOT
HETATM    1  P1  UNL     1      32.841   7.540  47.710  1.00  0.00    -0.011 P 
HETATM    2  C4  UNL     1      32.252   5.987  47.243  1.00  0.00    -0.008 C 
HETATM    3  C5  UNL     1      30.758   6.075  47.625  1.00  0.00     0.002 A 
HETATM    4  C6  UNL     1      29.824   5.309  48.292  1.00  0.00     0.014 A 
HETATM    5  C7  UNL     1      28.523   5.790  48.252  1.00  0.00     0.001 A 
HETATM    6  C8  UNL     1      28.144   6.947  47.602  1.00  0.00     0.002 A 
HETATM    7  C9  UNL     1      28.963   7.802  46.898  1.00  0.00     0.032 A 
HETATM    8  C10 UNL     1      30.204   7.286  46.972  1.00  0.00     0.065 A 
HETATM    9  N1  UNL     1      31.430   7.725  46.289  1.00  0.00    -0.270 N 
HETATM   10  N2  UNL     1      31.502   7.834  44.905  1.00  0.00    -0.294 N 
HETATM   11  C11 UNL     1      32.368   6.726  44.366  1.00  0.00     0.056 A 
HETATM   12  C12 UNL     1      32.521   7.113  43.045  1.00  0.00     0.031 A 
HETATM   13  C13 UNL     1      33.254   6.245  42.271  1.00  0.00     0.002 A 
HETATM   14  C14 UNL     1      33.782   5.089  42.796  1.00  0.00     0.001 A 
HETATM   15  C15 UNL     1      33.620   4.719  44.109  1.00  0.00     0.011 A 
HETATM   16  C16 UNL     1      32.909   5.523  44.948  1.00  0.00    -0.011 A 
HETATM   17  C17 UNL     1      32.793   4.972  46.422  1.00  0.00     0.154 C 
HETATM   18  H8  UNL     1      32.281   7.963  48.785  1.00  0.00     0.081 HD
HETATM   19  H13 UNL     1      30.944   8.566  44.573  1.00  0.00     0.187 HD
ENDROOT
BRANCH   1  20
HETATM   20  C3  UNL     1      34.282   8.006  47.066  1.00  0.00     0.054 C 
BRANCH  20  21
HETATM   21  C2  UNL     1      35.393   7.997  48.113  1.00  0.00     0.001 C 
HETATM   22  C1  UNL     1      35.587   6.636  48.727  1.00  0.00     0.005 C 
ENDBRANCH  20  21
ENDBRANCH   1  20
BRANCH  17  23
HETATM   23  C18 UNL     1      32.116   3.692  46.405  1.00  0.00     0.153 C 
HETATM   24  O1  UNL     1      32.562   2.779  47.162  1.00  0.00    -0.649 OA
BRANCH  23  25
HETATM   25  O2  UNL     1      31.358   2.538  46.269  1.00  0.00    -0.776 OA
HETATM   26  H19 UNL     1      30.478   2.492  45.750  1.00  0.00     0.167 HD
ENDBRANCH  23  25
ENDBRANCH  17  23
TORSDOF 4
ENDMDL
MODEL 4
REMARK VINA RESULT:      -6.8      2.107      5.254
REMARK  4 active torsions:
REMARK  status: ('A' for Active; 'I' for Inactive)
REMARK    1  A    between atoms: C2_2  and  C3_3 
REMARK    2  A    between atoms: C3_3  and  P1_4 
REMARK    3  A    between atoms: C17_20  and  C18_21 
REMARK    4  A    between atoms: C18_21  and  O2_23 
ROOT
HETATM    1  P1  UNL     1      23.704   3.464  53.035  1.00  0.00    -0.011 P 
HETATM    2  C4  UNL     1      24.821   3.189  51.749  1.00  0.00    -0.008 C 
HETATM    3  C5  UNL     1      25.726   2.082  52.332  1.00  0.00     0.002 A 
HETATM    4  C6  UNL     1      27.075   1.818  52.449  1.00  0.00     0.014 A 
HETATM    5  C7  UNL     1      27.394   0.569  52.963  1.00  0.00     0.001 A 
HETATM    6  C8  UNL     1      26.461  -0.375  53.341  1.00  0.00     0.002 A 
HETATM    7  C9  UNL     1      25.091  -0.250  53.277  1.00  0.00     0.032 A 
HETATM    8  C10 UNL     1      24.845   0.975  52.774  1.00  0.00     0.065 A 
HETATM    9  N1  UNL     1      23.560   1.569  52.376  1.00  0.00    -0.270 N 
HETATM   10  N2  UNL     1      22.726   0.962  51.444  1.00  0.00    -0.294 N 
HETATM   11  C11 UNL     1      22.755   1.755  50.164  1.00  0.00     0.056 A 
HETATM   12  C12 UNL     1      21.723   1.167  49.452  1.00  0.00     0.031 A 
HETATM   13  C13 UNL     1      21.534   1.671  48.186  1.00  0.00     0.002 A 
HETATM   14  C14 UNL     1      22.325   2.683  47.694  1.00  0.00     0.001 A 
HETATM   15  C15 UNL     1      23.346   3.255  48.414  1.00  0.00     0.011 A 
HETATM   16  C16 UNL     1      23.601   2.816  49.678  1.00  0.00    -0.011 A 
HETATM   17  C17 UNL     1      24.806   3.552  50.383  1.00  0.00     0.154 C 
HETATM   18  H8  UNL     1      24.265   3.368  54.186  1.00  0.00     0.081 HD
HETATM   19  H13 UNL     1      22.340   0.134  51.794  1.00  0.00     0.187 HD
ENDROOT
BRANCH   1  20
HETATM   20  C3  UNL     1      22.312   4.250  52.648  1.00  0.00     0.054 C 
BRANCH  20  21
HETATM   21  C2  UNL     1      22.591   5.546  51.892  1.00  0.00     0.001 C 
HETATM   22  C1  UNL     1      21.607   5.779  50.776  1.00  0.00     0.005 C 
ENDBRANCH  20  21
ENDBRANCH   1  20
BRANCH  17  23
HETATM   23  C18 UNL     1      26.016   3.334  49.619  1.00  0.00     0.153 C 
HETATM   24  O1  UNL     1      26.634   4.353  49.188  1.00  0.00    -0.649 OA
BRANCH  23  25
HETATM   25  O2  UNL     1      27.148   2.951  48.912  1.00  0.00    -0.776 OA
HETATM   26  H19 UNL     1      27.120   2.463  48.013  1.00  0.00     0.167 HD
ENDBRANCH  23  25
ENDBRANCH  17  23
TORSDOF 4
ENDMDL
MODEL 5
REMARK VINA RESULT:      -6.7      3.009      5.082
REMARK  4 active torsions:
REMARK  status: ('A' for Active; 'I' for Inactive)
REMARK    1  A    between atoms: C2_2  and  C3_3 
REMARK    2  A    between atoms: C3_3  and  P1_4 
REMARK    3  A    between atoms: C17_20  and  C18_21 
REMARK    4  A    between atoms: C18_21  and  O2_23 
ROOT
HETATM    1  P1  UNL     1      22.703   4.682  51.282  1.00  0.00    -0.011 P 
HETATM    2  C4  UNL     1      22.622   3.031  51.779  1.00  0.00    -0.008 C 
HETATM    3  C5  UNL     1      22.005   2.346  50.540  1.00  0.00     0.002 A 
HETATM    4  C6  UNL     1      20.996   1.447  50.262  1.00  0.00     0.014 A 
HETATM    5  C7  UNL     1      20.918   1.030  48.942  1.00  0.00     0.001 A 
HETATM    6  C8  UNL     1      21.769   1.457  47.942  1.00  0.00     0.002 A 
HETATM    7  C9  UNL     1      22.815   2.342  48.075  1.00  0.00     0.032 A 
HETATM    8  C10 UNL     1      22.840   2.710  49.370  1.00  0.00     0.065 A 
HETATM    9  N1  UNL     1      23.832   3.533  50.078  1.00  0.00    -0.270 N 
HETATM   10  N2  UNL     1      25.184   3.207  50.090  1.00  0.00    -0.294 N 
HETATM   11  C11 UNL     1      25.562   2.716  51.463  1.00  0.00     0.056 A 
HETATM   12  C12 UNL     1      26.942   2.665  51.368  1.00  0.00     0.031 A 
HETATM   13  C13 UNL     1      27.581   2.198  52.492  1.00  0.00     0.002 A 
HETATM   14  C14 UNL     1      26.877   1.818  53.610  1.00  0.00     0.001 A 
HETATM   15  C15 UNL     1      25.506   1.874  53.689  1.00  0.00     0.011 A 
HETATM   16  C16 UNL     1      24.793   2.327  52.620  1.00  0.00    -0.011 A 
HETATM   17  C17 UNL     1      23.231   2.328  52.843  1.00  0.00     0.154 C 
HETATM   18  H8  UNL     1      21.694   5.016  50.563  1.00  0.00     0.081 HD
HETATM   19  H13 UNL     1      25.587   3.317  49.206  1.00  0.00     0.187 HD
ENDROOT
BRANCH   1  20
HETATM   20  C3  UNL     1      23.705   5.663  52.143  1.00  0.00     0.054 C 
BRANCH  20  21
HETATM   21  C2  UNL     1      24.332   6.737  51.259  1.00  0.00     0.001 C 
HETATM   22  C1  UNL     1      23.302   7.662  50.668  1.00  0.00     0.005 C 
ENDBRANCH  20  21
ENDBRANCH   1  20
BRANCH  17  23
HETATM   23  C18 UNL     1      22.781   0.975  53.095  1.00  0.00     0.153 C 
HETATM   24  O1  UNL     1      21.692   0.824  53.726  1.00  0.00    -0.649 OA
BRANCH  23  25
HETATM   25  O2  UNL     1      22.495  -0.374  53.251  1.00  0.00    -0.776 OA
HETATM   26  H19 UNL     1      21.848  -0.742  53.953  1.00  0.00     0.167 HD
ENDBRANCH  23  25
ENDBRANCH  17  23
TORSDOF 4
ENDMDL
MODEL 6
REMARK VINA RESULT:      -6.6      2.381      5.006
REMARK  4 active torsions:
REMARK  status: ('A' for Active; 'I' for Inactive)
REMARK    1  A    between atoms: C2_2  and  C3_3 
REMARK    2  A    between atoms: C3_3  and  P1_4 
REMARK    3  A    between atoms: C17_20  and  C18_21 
REMARK    4  A    between atoms: C18_21  and  O2_23 
ROOT
HETATM    1  P1  UNL     1      24.163   1.646  51.799  1.00  0.00    -0.011 P 
HETATM    2  C4  UNL     1      23.278   2.042  50.372  1.00  0.00    -0.008 C 
HETATM    3  C5  UNL     1      21.849   1.583  50.735  1.00  0.00     0.002 A 
HETATM    4  C6  UNL     1      20.832   0.848  50.160  1.00  0.00     0.014 A 
HETATM    5  C7  UNL     1      19.639   0.829  50.868  1.00  0.00     0.001 A 
HETATM    6  C8  UNL     1      19.437   1.486  52.066  1.00  0.00     0.002 A 
HETATM    7  C9  UNL     1      20.355   2.254  52.747  1.00  0.00     0.032 A 
HETATM    8  C10 UNL     1      21.486   2.234  52.016  1.00  0.00     0.065 A 
HETATM    9  N1  UNL     1      22.729   2.993  52.217  1.00  0.00    -0.270 N 
HETATM   10  N2  UNL     1      22.740   4.381  52.292  1.00  0.00    -0.294 N 
HETATM   11  C11 UNL     1      23.361   4.939  51.038  1.00  0.00     0.056 A 
HETATM   12  C12 UNL     1      23.505   6.275  51.372  1.00  0.00     0.031 A 
HETATM   13  C13 UNL     1      24.024   7.066  50.375  1.00  0.00     0.002 A 
HETATM   14  C14 UNL     1      24.364   6.543  49.149  1.00  0.00     0.001 A 
HETATM   15  C15 UNL     1      24.214   5.214  48.834  1.00  0.00     0.011 A 
HETATM   16  C16 UNL     1      23.708   4.358  49.765  1.00  0.00    -0.011 A 
HETATM   17  C17 UNL     1      23.580   2.867  49.264  1.00  0.00     0.154 C 
HETATM   18  H8  UNL     1      23.751   0.553  52.331  1.00  0.00     0.081 HD
HETATM   19  H13 UNL     1      22.305   4.700  53.108  1.00  0.00     0.187 HD
ENDROOT
BRANCH   1  20
HETATM   20  C3  UNL     1      25.625   2.377  51.987  1.00  0.00     0.054 C 
BRANCH  20  21
HETATM   21  C2  UNL     1      26.772   1.441  51.619  1.00  0.00     0.001 C 
HETATM   22  C1  UNL     1      26.497   0.016  52.021  1.00  0.00     0.005 C 
ENDBRANCH  20  21
ENDBRANCH   1  20
BRANCH  17  23
HETATM   23  C18 UNL     1      22.684   2.816  48.128  1.00  0.00     0.153 C 
HETATM   24  O1  UNL     1      22.764   1.813  47.358  1.00  0.00    -0.649 OA
BRANCH  23  25
HETATM   25  O2  UNL     1      21.761   2.922  47.097  1.00  0.00    -0.776 OA
HETATM   26  H19 UNL     1      20.788   2.615  47.170  1.00  0.00     0.167 HD
ENDBRANCH  23  25
ENDBRANCH  17  23
TORSDOF 4
ENDMDL
MODEL 7
REMARK VINA RESULT:      -6.6      2.450      5.088
REMARK  4 active torsions:
REMARK  status: ('A' for Active; 'I' for Inactive)
REMARK    1  A    between atoms: C2_2  and  C3_3 
REMARK    2  A    between atoms: C3_3  and  P1_4 
REMARK    3  A    between atoms: C17_20  and  C18_21 
REMARK    4  A    between atoms: C18_21  and  O2_23 
ROOT
HETATM    1  P1  UNL     1      20.975   2.901  52.354  1.00  0.00    -0.011 P 
HETATM    2  C4  UNL     1      22.394   3.758  51.875  1.00  0.00    -0.008 C 
HETATM    3  C5  UNL     1      23.510   2.972  52.598  1.00  0.00     0.002 A 
HETATM    4  C6  UNL     1      24.615   3.245  53.378  1.00  0.00     0.014 A 
HETATM    5  C7  UNL     1      25.408   2.151  53.689  1.00  0.00     0.001 A 
HETATM    6  C8  UNL     1      25.149   0.861  53.269  1.00  0.00     0.002 A 
HETATM    7  C9  UNL     1      24.093   0.447  52.489  1.00  0.00     0.032 A 
HETATM    8  C10 UNL     1      23.363   1.546  52.220  1.00  0.00     0.065 A 
HETATM    9  N1  UNL     1      22.207   1.692  51.323  1.00  0.00    -0.270 N 
HETATM   10  N2  UNL     1      22.271   1.343  49.979  1.00  0.00    -0.294 N 
HETATM   11  C11 UNL     1      22.262   2.595  49.142  1.00  0.00     0.056 A 
HETATM   12  C12 UNL     1      22.094   2.075  47.870  1.00  0.00     0.031 A 
HETATM   13  C13 UNL     1      22.090   3.010  46.861  1.00  0.00     0.002 A 
HETATM   14  C14 UNL     1      22.244   4.350  47.126  1.00  0.00     0.001 A 
HETATM   15  C15 UNL     1      22.410   4.850  48.395  1.00  0.00     0.011 A 
HETATM   16  C16 UNL     1      22.425   3.993  49.455  1.00  0.00    -0.011 A 
HETATM   17  C17 UNL     1      22.634   4.701  50.850  1.00  0.00     0.154 C 
HETATM   18  H8  UNL     1      21.050   2.488  53.567  1.00  0.00     0.081 HD
HETATM   19  H13 UNL     1      22.356   0.375  49.863  1.00  0.00     0.187 HD
ENDROOT
BRANCH   1  20
HETATM   20  C3  UNL     1      19.623   3.148  51.449  1.00  0.00     0.054 C 
BRANCH  20  21
HETATM   21  C2  UNL     1      18.718   1.920  51.446  1.00  0.00     0.001 C 
HETATM   22  C1  UNL     1      18.690   1.234  50.106  1.00  0.00     0.005 C 
ENDBRANCH  20  21
ENDBRANCH   1  20
BRANCH  17  23
HETATM   23  C18 UNL     1      23.911   5.383  50.855  1.00  0.00     0.153 C 
HETATM   24  O1  UNL     1      24.000   6.462  51.515  1.00  0.00    -0.649 OA
BRANCH  23  25
HETATM   25  O2  UNL     1      25.193   5.907  50.758  1.00  0.00    -0.776 OA
HETATM   26  H19 UNL     1      25.497   6.531  50.007  1.00  0.00     0.167 HD
ENDBRANCH  23  25
ENDBRANCH  17  23
TORSDOF 4
ENDMDL
MODEL 8
REMARK VINA RESULT:      -6.6      7.751     10.110
REMARK  4 active torsions:
REMARK  status: ('A' for Active; 'I' for Inactive)
REMARK    1  A    between atoms: C2_2  and  C3_3 
REMARK    2  A    between atoms: C3_3  and  P1_4 
REMARK    3  A    between atoms: C17_20  and  C18_21 
REMARK    4  A    between atoms: C18_21  and  O2_23 
ROOT
HETATM    1  P1  UNL     1      32.935   9.136  47.022  1.00  0.00    -0.011 P 
HETATM    2  C4  UNL     1      32.305   7.887  48.032  1.00  0.00    -0.008 C 
HETATM    3  C5  UNL     1      30.782   8.033  47.821  1.00  0.00     0.002 A 
HETATM    4  C6  UNL     1      29.641   8.091  48.596  1.00  0.00     0.014 A 
HETATM    5  C7  UNL     1      28.445   8.095  47.894  1.00  0.00     0.001 A 
HETATM    6  C8  UNL     1      28.354   8.045  46.517  1.00  0.00     0.002 A 
HETATM    7  C9  UNL     1      29.401   7.981  45.626  1.00  0.00     0.032 A 
HETATM    8  C10 UNL     1      30.528   7.980  46.362  1.00  0.00     0.065 A 
HETATM    9  N1  UNL     1      31.919   7.793  45.922  1.00  0.00    -0.270 N 
HETATM   10  N2  UNL     1      32.321   6.667  45.211  1.00  0.00    -0.294 N 
HETATM   11  C11 UNL     1      33.163   5.794  46.103  1.00  0.00     0.056 A 
HETATM   12  C12 UNL     1      33.659   4.871  45.197  1.00  0.00     0.031 A 
HETATM   13  C13 UNL     1      34.453   3.892  45.747  1.00  0.00     0.002 A 
HETATM   14  C14 UNL     1      34.716   3.858  47.096  1.00  0.00     0.001 A 
HETATM   15  C15 UNL     1      34.216   4.782  47.982  1.00  0.00     0.011 A 
HETATM   16  C16 UNL     1      33.421   5.787  47.522  1.00  0.00    -0.011 A 
HETATM   17  C17 UNL     1      32.909   6.768  48.648  1.00  0.00     0.154 C 
HETATM   18  H8  UNL     1      32.190  10.182  47.030  1.00  0.00     0.081 HD
HETATM   19  H13 UNL     1      31.937   6.656  44.311  1.00  0.00     0.187 HD
ENDROOT
BRANCH   1  20
HETATM   20  C3  UNL     1      34.527   9.028  46.621  1.00  0.00     0.054 C 
BRANCH  20  21
HETATM   21  C2  UNL     1      34.829   9.766  45.319  1.00  0.00     0.001 C 
HETATM   22  C1  UNL     1      35.006   8.823  44.159  1.00  0.00     0.005 C 
ENDBRANCH  20  21
ENDBRANCH   1  20
BRANCH  17  23
HETATM   23  C18 UNL     1      32.119   6.025  49.608  1.00  0.00     0.153 C 
HETATM   24  O1  UNL     1      31.358   5.113  49.167  1.00  0.00    -0.649 OA
BRANCH  23  25
HETATM   25  O2  UNL     1      31.438   5.416  50.652  1.00  0.00    -0.776 OA
HETATM   26  H19 UNL     1      31.897   4.907  51.411  1.00  0.00     0.167 HD
ENDBRANCH  23  25
ENDBRANCH  17  23
TORSDOF 4
ENDMDL
MODEL 9
REMARK VINA RESULT:      -6.5      2.327      5.297
REMARK  4 active torsions:
REMARK  status: ('A' for Active; 'I' for Inactive)
REMARK    1  A    between atoms: C2_2  and  C3_3 
REMARK    2  A    between atoms: C3_3  and  P1_4 
REMARK    3  A    between atoms: C17_20  and  C18_21 
REMARK    4  A    between atoms: C18_21  and  O2_23 
ROOT
HETATM    1  P1  UNL     1      24.287   2.057  51.576  1.00  0.00    -0.011 P 
HETATM    2  C4  UNL     1      23.204   2.240  50.245  1.00  0.00    -0.008 C 
HETATM    3  C5  UNL     1      21.922   1.557  50.769  1.00  0.00     0.002 A 
HETATM    4  C6  UNL     1      20.996   0.637  50.323  1.00  0.00     0.014 A 
HETATM    5  C7  UNL     1      19.904   0.441  51.156  1.00  0.00     0.001 A 
HETATM    6  C8  UNL     1      19.715   1.100  52.354  1.00  0.00     0.002 A 
HETATM    7  C9  UNL     1      20.549   2.040  52.917  1.00  0.00     0.032 A 
HETATM    8  C10 UNL     1      21.585   2.186  52.069  1.00  0.00     0.065 A 
HETATM    9  N1  UNL     1      22.690   3.154  52.118  1.00  0.00    -0.270 N 
HETATM   10  N2  UNL     1      22.466   4.525  52.162  1.00  0.00    -0.294 N 
HETATM   11  C11 UNL     1      22.847   5.131  50.837  1.00  0.00     0.056 A 
HETATM   12  C12 UNL     1      22.789   6.484  51.126  1.00  0.00     0.031 A 
HETATM   13  C13 UNL     1      23.057   7.314  50.062  1.00  0.00     0.002 A 
HETATM   14  C14 UNL     1      23.356   6.808  48.818  1.00  0.00     0.001 A 
HETATM   15  C15 UNL     1      23.409   5.462  48.548  1.00  0.00     0.011 A 
HETATM   16  C16 UNL     1      23.158   4.569  49.546  1.00  0.00    -0.011 A 
HETATM   17  C17 UNL     1      23.242   3.059  49.094  1.00  0.00     0.154 C 
HETATM   18  H8  UNL     1      24.129   0.932  52.173  1.00  0.00     0.081 HD
HETATM   19  H13 UNL     1      22.068   4.796  53.014  1.00  0.00     0.187 HD
ENDROOT
BRANCH   1  20
HETATM   20  C3  UNL     1      25.610   3.036  51.590  1.00  0.00     0.054 C 
BRANCH  20  21
HETATM   21  C2  UNL     1      26.565   2.704  50.447  1.00  0.00     0.001 C 
HETATM   22  C1  UNL     1      26.762   3.869  49.513  1.00  0.00     0.005 C 
ENDBRANCH  20  21
ENDBRANCH   1  20
BRANCH  17  23
HETATM   23  C18 UNL     1      22.257   2.811  48.063  1.00  0.00     0.153 C 
HETATM   24  O1  UNL     1      22.562   2.000  47.138  1.00  0.00    -0.649 OA
BRANCH  23  25
HETATM   25  O2  UNL     1      21.208   2.686  47.162  1.00  0.00    -0.776 OA
HETATM   26  H19 UNL     1      20.688   1.819  47.010  1.00  0.00     0.167 HD
ENDBRANCH  23  25
ENDBRANCH  17  23
TORSDOF 4
ENDMDL
