MODEL 1
REMARK VINA RESULT:      -8.5      0.000      0.000
REMARK  3 active torsions:
REMARK  status: ('A' for Active; 'I' for Inactive)
REMARK    1  A    between atoms: O1_2  and  C2_3 
REMARK    2  A    between atoms: C5_6  and  N1_7 
REMARK    3  A    between atoms: C17_23  and  O2_24 
ROOT
HETATM    1  C2  UNL     1      21.312   0.804  51.386  1.00  0.00     0.102 A 
HETATM    2  C3  UNL     1      22.527   0.561  52.003  1.00  0.00     0.057 A 
HETATM    3  C4  UNL     1      22.523  -0.144  53.168  1.00  0.00     0.042 A 
HETATM    4  C5  UNL     1      23.767  -0.351  53.732  1.00  0.00     0.142 A 
HETATM    5  N4  UNL     1      23.833  -1.046  54.895  1.00  0.00    -0.224 NA
HETATM    6  C14 UNL     1      22.722  -1.529  55.497  1.00  0.00     0.236 A 
HETATM    7  N5  UNL     1      21.506  -1.330  54.954  1.00  0.00    -0.241 NA
HETATM    8  C15 UNL     1      21.416  -0.651  53.813  1.00  0.00     0.075 A 
HETATM    9  C16 UNL     1      20.205  -0.393  53.171  1.00  0.00     0.072 A 
HETATM   10  C17 UNL     1      20.142   0.326  51.972  1.00  0.00     0.101 A 
ENDROOT
BRANCH   4  11
HETATM   11  N1  UNL     1      25.048   0.089  53.232  1.00  0.00    -0.325 N 
HETATM   12  C6  UNL     1      26.067  -0.569  52.406  1.00  0.00     0.259 C 
HETATM   13  N2  UNL     1      27.378  -0.495  53.024  1.00  0.00    -0.325 N 
HETATM   14  C7  UNL     1      28.399  -1.440  52.773  1.00  0.00     0.094 A 
HETATM   15  C11 UNL     1      27.595   0.594  53.912  1.00  0.00     0.128 A 
HETATM   16  C8  UNL     1      29.586  -1.312  53.377  1.00  0.00     0.017 A 
HETATM   17  C9  UNL     1      29.849  -0.202  54.302  1.00  0.00     0.005 A 
HETATM   18  C10 UNL     1      28.900   0.695  54.550  1.00  0.00     0.050 A 
HETATM   19  N3  UNL     1      26.742   1.515  54.216  1.00  0.00    -0.247 NA
HETATM   20  C12 UNL     1      25.434   1.447  53.602  1.00  0.00     0.209 C 
HETATM   21  C13 UNL     1      25.509   2.222  52.278  1.00  0.00     0.058 C 
ENDBRANCH   4  11
BRANCH   1  22
HETATM   22  O1  UNL     1      21.158   1.506  50.197  1.00  0.00    -0.353 OA
HETATM   23  C1  UNL     1      21.491   1.034  48.928  1.00  0.00     0.210 C 
ENDBRANCH   1  22
BRANCH  10  24
HETATM   24  O2  UNL     1      18.913   0.553  51.377  1.00  0.00    -0.358 OA
HETATM   25  H17 UNL     1      18.850   0.431  50.380  1.00  0.00     0.217 HD
ENDBRANCH  10  24
TORSDOF 3
ENDMDL
MODEL 2
REMARK VINA RESULT:      -8.3      3.799      5.985
REMARK  3 active torsions:
REMARK  status: ('A' for Active; 'I' for Inactive)
REMARK    1  A    between atoms: O1_2  and  C2_3 
REMARK    2  A    between atoms: C5_6  and  N1_7 
REMARK    3  A    between atoms: C17_23  and  O2_24 
ROOT
HETATM    1  C2  UNL     1      26.141   1.595  53.828  1.00  0.00     0.102 A 
HETATM    2  C3  UNL     1      25.037   1.944  53.069  1.00  0.00     0.057 A 
HETATM    3  C4  UNL     1      24.016   1.048  52.973  1.00  0.00     0.042 A 
HETATM    4  C5  UNL     1      22.947   1.457  52.201  1.00  0.00     0.142 A 
HETATM    5  N4  UNL     1      21.896   0.610  52.065  1.00  0.00    -0.224 NA
HETATM    6  C14 UNL     1      21.881  -0.604  52.662  1.00  0.00     0.236 A 
HETATM    7  N5  UNL     1      22.920  -1.010  53.416  1.00  0.00    -0.241 NA
HETATM    8  C15 UNL     1      23.962  -0.196  53.564  1.00  0.00     0.075 A 
HETATM    9  C16 UNL     1      25.085  -0.523  54.323  1.00  0.00     0.072 A 
HETATM   10  C17 UNL     1      26.168   0.354  54.461  1.00  0.00     0.101 A 
ENDROOT
BRANCH   4  11
HETATM   11  N1  UNL     1      22.794   2.708  51.496  1.00  0.00    -0.325 N 
HETATM   12  C6  UNL     1      23.210   3.147  50.159  1.00  0.00     0.259 C 
HETATM   13  N2  UNL     1      23.951   4.394  50.219  1.00  0.00    -0.325 N 
HETATM   14  C7  UNL     1      24.898   4.771  49.239  1.00  0.00     0.094 A 
HETATM   15  C11 UNL     1      23.676   5.237  51.331  1.00  0.00     0.128 A 
HETATM   16  C8  UNL     1      25.547   5.935  49.355  1.00  0.00     0.017 A 
HETATM   17  C9  UNL     1      25.292   6.834  50.489  1.00  0.00     0.005 A 
HETATM   18  C10 UNL     1      24.405   6.495  51.419  1.00  0.00     0.050 A 
HETATM   19  N3  UNL     1      22.836   5.000  52.281  1.00  0.00    -0.247 NA
HETATM   20  C12 UNL     1      22.093   3.760  52.226  1.00  0.00     0.209 C 
HETATM   21  C13 UNL     1      20.813   4.027  51.422  1.00  0.00     0.058 C 
ENDBRANCH   4  11
BRANCH   1  22
HETATM   22  O1  UNL     1      27.254   2.402  54.017  1.00  0.00    -0.353 OA
HETATM   23  C1  UNL     1      28.429   2.351  53.268  1.00  0.00     0.210 C 
ENDBRANCH   1  22
BRANCH  10  24
HETATM   24  O2  UNL     1      27.257  -0.022  55.227  1.00  0.00    -0.358 OA
HETATM   25  H17 UNL     1      27.097  -0.683  55.969  1.00  0.00     0.217 HD
ENDBRANCH  10  24
TORSDOF 3
ENDMDL
MODEL 3
REMARK VINA RESULT:      -8.0      3.258      5.877
REMARK  3 active torsions:
REMARK  status: ('A' for Active; 'I' for Inactive)
REMARK    1  A    between atoms: O1_2  and  C2_3 
REMARK    2  A    between atoms: C5_6  and  N1_7 
REMARK    3  A    between atoms: C17_23  and  O2_24 
ROOT
HETATM    1  C2  UNL     1      25.245   0.712  53.371  1.00  0.00     0.102 A 
HETATM    2  C3  UNL     1      23.933   0.783  52.935  1.00  0.00     0.057 A 
HETATM    3  C4  UNL     1      23.016  -0.030  53.527  1.00  0.00     0.042 A 
HETATM    4  C5  UNL     1      21.727   0.090  53.045  1.00  0.00     0.142 A 
HETATM    5  N4  UNL     1      20.764  -0.694  53.593  1.00  0.00    -0.224 NA
HETATM    6  C14 UNL     1      21.043  -1.572  54.584  1.00  0.00     0.236 A 
HETATM    7  N5  UNL     1      22.297  -1.695  55.058  1.00  0.00    -0.241 NA
HETATM    8  C15 UNL     1      23.258  -0.937  54.536  1.00  0.00     0.075 A 
HETATM    9  C16 UNL     1      24.587  -0.990  54.958  1.00  0.00     0.072 A 
HETATM   10  C17 UNL     1      25.577  -0.180  54.389  1.00  0.00     0.101 A 
ENDROOT
BRANCH   4  11
HETATM   11  N1  UNL     1      21.252   0.967  52.001  1.00  0.00    -0.325 N 
HETATM   12  C6  UNL     1      20.893   0.731  50.598  1.00  0.00     0.259 C 
HETATM   13  N2  UNL     1      21.583   1.652  49.713  1.00  0.00    -0.325 N 
HETATM   14  C7  UNL     1      21.861   1.351  48.359  1.00  0.00     0.094 A 
HETATM   15  C11 UNL     1      21.976   2.895  50.280  1.00  0.00     0.128 A 
HETATM   16  C8  UNL     1      22.502   2.245  47.599  1.00  0.00     0.017 A 
HETATM   17  C9  UNL     1      22.926   3.541  48.146  1.00  0.00     0.005 A 
HETATM   18  C10 UNL     1      22.673   3.839  49.417  1.00  0.00     0.050 A 
HETATM   19  N3  UNL     1      21.777   3.279  51.496  1.00  0.00    -0.247 NA
HETATM   20  C12 UNL     1      21.087   2.367  52.383  1.00  0.00     0.209 C 
HETATM   21  C13 UNL     1      19.584   2.648  52.251  1.00  0.00     0.058 C 
ENDBRANCH   4  11
BRANCH   1  22
HETATM   22  O1  UNL     1      26.286   1.477  52.864  1.00  0.00    -0.353 OA
HETATM   23  C1  UNL     1      26.627   1.590  51.517  1.00  0.00     0.210 C 
ENDBRANCH   1  22
BRANCH  10  24
HETATM   24  O2  UNL     1      26.880  -0.272  54.847  1.00  0.00    -0.358 OA
HETATM   25  H17 UNL     1      27.320  -1.177  54.813  1.00  0.00     0.217 HD
ENDBRANCH  10  24
TORSDOF 3
ENDMDL
MODEL 4
REMARK VINA RESULT:      -7.9      3.131      6.284
REMARK  3 active torsions:
REMARK  status: ('A' for Active; 'I' for Inactive)
REMARK    1  A    between atoms: O1_2  and  C2_3 
REMARK    2  A    between atoms: C5_6  and  N1_7 
REMARK    3  A    between atoms: C17_23  and  O2_24 
ROOT
HETATM    1  C2  UNL     1      26.484   1.989  51.916  1.00  0.00     0.102 A 
HETATM    2  C3  UNL     1      25.120   1.749  51.886  1.00  0.00     0.057 A 
HETATM    3  C4  UNL     1      24.610   0.847  52.770  1.00  0.00     0.042 A 
HETATM    4  C5  UNL     1      23.245   0.654  52.687  1.00  0.00     0.142 A 
HETATM    5  N4  UNL     1      22.673  -0.233  53.540  1.00  0.00    -0.224 NA
HETATM    6  C14 UNL     1      23.405  -0.915  54.450  1.00  0.00     0.236 A 
HETATM    7  N5  UNL     1      24.736  -0.732  54.536  1.00  0.00    -0.241 NA
HETATM    8  C15 UNL     1      25.320   0.132  53.710  1.00  0.00     0.075 A 
HETATM    9  C16 UNL     1      26.690   0.392  53.719  1.00  0.00     0.072 A 
HETATM   10  C17 UNL     1      27.276   1.308  52.837  1.00  0.00     0.101 A 
ENDROOT
BRANCH   4  11
HETATM   11  N1  UNL     1      22.315   1.291  51.784  1.00  0.00    -0.325 N 
HETATM   12  C6  UNL     1      21.783   0.898  50.475  1.00  0.00     0.259 C 
HETATM   13  N2  UNL     1      21.948   1.959  49.497  1.00  0.00    -0.325 N 
HETATM   14  C7  UNL     1      22.036   1.714  48.107  1.00  0.00     0.094 A 
HETATM   15  C11 UNL     1      22.020   3.283  50.010  1.00  0.00     0.128 A 
HETATM   16  C8  UNL     1      22.189   2.738  47.261  1.00  0.00     0.017 A 
HETATM   17  C9  UNL     1      22.268   4.121  47.750  1.00  0.00     0.005 A 
HETATM   18  C10 UNL     1      22.187   4.369  49.054  1.00  0.00     0.050 A 
HETATM   19  N3  UNL     1      21.951   3.627  51.253  1.00  0.00    -0.247 NA
HETATM   20  C12 UNL     1      21.784   2.575  52.231  1.00  0.00     0.209 C 
HETATM   21  C13 UNL     1      20.276   2.349  52.409  1.00  0.00     0.058 C 
ENDBRANCH   4  11
BRANCH   1  22
HETATM   22  O1  UNL     1      27.145   2.878  51.079  1.00  0.00    -0.353 OA
HETATM   23  C1  UNL     1      26.572   3.563  50.008  1.00  0.00     0.210 C 
ENDBRANCH   1  22
BRANCH  10  24
HETATM   24  O2  UNL     1      28.641   1.528  52.890  1.00  0.00    -0.358 OA
HETATM   25  H17 UNL     1      29.239   0.844  52.455  1.00  0.00     0.217 HD
ENDBRANCH  10  24
TORSDOF 3
ENDMDL
MODEL 5
REMARK VINA RESULT:      -7.8      3.287      6.487
REMARK  3 active torsions:
REMARK  status: ('A' for Active; 'I' for Inactive)
REMARK    1  A    between atoms: O1_2  and  C2_3 
REMARK    2  A    between atoms: C5_6  and  N1_7 
REMARK    3  A    between atoms: C17_23  and  O2_24 
ROOT
HETATM    1  C2  UNL     1      23.607  -0.535  54.347  1.00  0.00     0.102 A 
HETATM    2  C3  UNL     1      23.581   0.393  53.319  1.00  0.00     0.057 A 
HETATM    3  C4  UNL     1      24.763   0.936  52.916  1.00  0.00     0.042 A 
HETATM    4  C5  UNL     1      24.667   1.853  51.889  1.00  0.00     0.142 A 
HETATM    5  N4  UNL     1      25.809   2.432  51.440  1.00  0.00    -0.224 NA
HETATM    6  C14 UNL     1      27.015   2.129  51.974  1.00  0.00     0.236 A 
HETATM    7  N5  UNL     1      27.116   1.236  52.976  1.00  0.00    -0.241 NA
HETATM    8  C15 UNL     1      26.010   0.655  53.433  1.00  0.00     0.075 A 
HETATM    9  C16 UNL     1      26.009  -0.282  54.466  1.00  0.00     0.072 A 
HETATM   10  C17 UNL     1      24.828  -0.876  54.926  1.00  0.00     0.101 A 
ENDROOT
BRANCH   4  11
HETATM   11  N1  UNL     1      23.472   2.294  51.206  1.00  0.00    -0.325 N 
HETATM   12  C6  UNL     1      22.659   1.689  50.146  1.00  0.00     0.259 C 
HETATM   13  N2  UNL     1      22.453   2.612  49.045  1.00  0.00    -0.325 N 
HETATM   14  C7  UNL     1      22.198   2.184  47.722  1.00  0.00     0.094 A 
HETATM   15  C11 UNL     1      22.520   3.997  49.364  1.00  0.00     0.128 A 
HETATM   16  C8  UNL     1      22.019   3.089  46.754  1.00  0.00     0.017 A 
HETATM   17  C9  UNL     1      22.081   4.528  47.041  1.00  0.00     0.005 A 
HETATM   18  C10 UNL     1      22.319   4.949  48.280  1.00  0.00     0.050 A 
HETATM   19  N3  UNL     1      22.744   4.504  50.530  1.00  0.00    -0.247 NA
HETATM   20  C12 UNL     1      22.948   3.588  51.631  1.00  0.00     0.209 C 
HETATM   21  C13 UNL     1      21.570   3.287  52.238  1.00  0.00     0.058 C 
ENDBRANCH   4  11
BRANCH   1  22
HETATM   22  O1  UNL     1      22.486  -1.171  54.863  1.00  0.00    -0.353 OA
HETATM   23  C1  UNL     1      21.362  -1.552  54.131  1.00  0.00     0.210 C 
ENDBRANCH   1  22
BRANCH  10  24
HETATM   24  O2  UNL     1      24.885  -1.800  55.954  1.00  0.00    -0.358 OA
HETATM   25  H17 UNL     1      24.051  -1.941  56.499  1.00  0.00     0.217 HD
ENDBRANCH  10  24
TORSDOF 3
ENDMDL
MODEL 6
REMARK VINA RESULT:      -7.8      4.195      7.007
REMARK  3 active torsions:
REMARK  status: ('A' for Active; 'I' for Inactive)
REMARK    1  A    between atoms: O1_2  and  C2_3 
REMARK    2  A    between atoms: C5_6  and  N1_7 
REMARK    3  A    between atoms: C17_23  and  O2_24 
ROOT
HETATM    1  C2  UNL     1      26.256   1.544  53.865  1.00  0.00     0.102 A 
HETATM    2  C3  UNL     1      25.365   2.102  52.964  1.00  0.00     0.057 A 
HETATM    3  C4  UNL     1      24.235   1.404  52.665  1.00  0.00     0.042 A 
HETATM    4  C5  UNL     1      23.390   2.017  51.760  1.00  0.00     0.142 A 
HETATM    5  N4  UNL     1      22.245   1.373  51.418  1.00  0.00    -0.224 NA
HETATM    6  C14 UNL     1      21.927   0.166  51.940  1.00  0.00     0.236 A 
HETATM    7  N5  UNL     1      22.745  -0.437  52.823  1.00  0.00    -0.241 NA
HETATM    8  C15 UNL     1      23.874   0.175  53.173  1.00  0.00     0.075 A 
HETATM    9  C16 UNL     1      24.787  -0.365  54.078  1.00  0.00     0.072 A 
HETATM   10  C17 UNL     1      25.967   0.302  54.427  1.00  0.00     0.101 A 
ENDROOT
BRANCH   4  11
HETATM   11  N1  UNL     1      23.569   3.292  51.107  1.00  0.00    -0.325 N 
HETATM   12  C6  UNL     1      23.369   4.673  51.561  1.00  0.00     0.259 C 
HETATM   13  N2  UNL     1      22.533   5.417  50.636  1.00  0.00    -0.325 N 
HETATM   14  C7  UNL     1      21.752   6.528  51.031  1.00  0.00     0.094 A 
HETATM   15  C11 UNL     1      22.535   4.971  49.286  1.00  0.00     0.128 A 
HETATM   16  C8  UNL     1      21.004   7.169  50.127  1.00  0.00     0.017 A 
HETATM   17  C9  UNL     1      20.978   6.739  48.723  1.00  0.00     0.005 A 
HETATM   18  C10 UNL     1      21.706   5.697  48.334  1.00  0.00     0.050 A 
HETATM   19  N3  UNL     1      23.206   3.975  48.810  1.00  0.00    -0.247 NA
HETATM   20  C12 UNL     1      24.041   3.230  49.727  1.00  0.00     0.209 C 
HETATM   21  C13 UNL     1      25.421   3.904  49.740  1.00  0.00     0.058 C 
ENDBRANCH   4  11
BRANCH   1  22
HETATM   22  O1  UNL     1      27.446   2.135  54.266  1.00  0.00    -0.353 OA
HETATM   23  C1  UNL     1      28.579   2.296  53.471  1.00  0.00     0.210 C 
ENDBRANCH   1  22
BRANCH  10  24
HETATM   24  O2  UNL     1      26.838  -0.281  55.332  1.00  0.00    -0.358 OA
HETATM   25  H17 UNL     1      26.448  -0.916  56.008  1.00  0.00     0.217 HD
ENDBRANCH  10  24
TORSDOF 3
ENDMDL
MODEL 7
REMARK VINA RESULT:      -7.7      2.752      5.497
REMARK  3 active torsions:
REMARK  status: ('A' for Active; 'I' for Inactive)
REMARK    1  A    between atoms: O1_2  and  C2_3 
REMARK    2  A    between atoms: C5_6  and  N1_7 
REMARK    3  A    between atoms: C17_23  and  O2_24 
ROOT
HETATM    1  C2  UNL     1      21.492   0.109  53.615  1.00  0.00     0.102 A 
HETATM    2  C3  UNL     1      22.519   0.903  53.131  1.00  0.00     0.057 A 
HETATM    3  C4  UNL     1      23.797   0.568  53.460  1.00  0.00     0.042 A 
HETATM    4  C5  UNL     1      24.772   1.400  52.947  1.00  0.00     0.142 A 
HETATM    5  N4  UNL     1      26.068   1.121  53.238  1.00  0.00    -0.224 NA
HETATM    6  C14 UNL     1      26.410   0.062  54.007  1.00  0.00     0.236 A 
HETATM    7  N5  UNL     1      25.465  -0.754  54.510  1.00  0.00    -0.241 NA
HETATM    8  C15 UNL     1      24.187  -0.501  54.239  1.00  0.00     0.075 A 
HETATM    9  C16 UNL     1      23.135  -1.284  54.713  1.00  0.00     0.072 A 
HETATM   10  C17 UNL     1      21.800  -0.993  54.411  1.00  0.00     0.101 A 
ENDROOT
BRANCH   4  11
HETATM   11  N1  UNL     1      24.590   2.567  52.115  1.00  0.00    -0.325 N 
HETATM   12  C6  UNL     1      24.068   3.909  52.395  1.00  0.00     0.259 C 
HETATM   13  N2  UNL     1      23.027   4.279  51.453  1.00  0.00    -0.325 N 
HETATM   14  C7  UNL     1      22.011   5.213  51.761  1.00  0.00     0.094 A 
HETATM   15  C11 UNL     1      23.076   3.647  50.180  1.00  0.00     0.128 A 
HETATM   16  C8  UNL     1      21.081   5.507  50.846  1.00  0.00     0.017 A 
HETATM   17  C9  UNL     1      21.095   4.876  49.520  1.00  0.00     0.005 A 
HETATM   18  C10 UNL     1      22.044   3.996  49.214  1.00  0.00     0.050 A 
HETATM   19  N3  UNL     1      23.952   2.784  49.787  1.00  0.00    -0.247 NA
HETATM   20  C12 UNL     1      24.993   2.413  50.721  1.00  0.00     0.209 C 
HETATM   21  C13 UNL     1      26.156   3.396  50.526  1.00  0.00     0.058 C 
ENDBRANCH   4  11
BRANCH   1  22
HETATM   22  O1  UNL     1      20.144   0.325  53.364  1.00  0.00    -0.353 OA
HETATM   23  C1  UNL     1      19.535   0.282  52.111  1.00  0.00     0.210 C 
ENDBRANCH   1  22
BRANCH  10  24
HETATM   24  O2  UNL     1      20.795  -1.805  54.907  1.00  0.00    -0.358 OA
HETATM   25  H17 UNL     1      20.178  -1.410  55.597  1.00  0.00     0.217 HD
ENDBRANCH  10  24
TORSDOF 3
ENDMDL
MODEL 8
REMARK VINA RESULT:      -7.6      3.163      7.087
REMARK  3 active torsions:
REMARK  status: ('A' for Active; 'I' for Inactive)
REMARK    1  A    between atoms: O1_2  and  C2_3 
REMARK    2  A    between atoms: C5_6  and  N1_7 
REMARK    3  A    between atoms: C17_23  and  O2_24 
ROOT
HETATM    1  C2  UNL     1      23.624  -0.114  53.457  1.00  0.00     0.102 A 
HETATM    2  C3  UNL     1      23.363   0.768  52.422  1.00  0.00     0.057 A 
HETATM    3  C4  UNL     1      24.407   1.464  51.895  1.00  0.00     0.042 A 
HETATM    4  C5  UNL     1      24.079   2.326  50.867  1.00  0.00     0.142 A 
HETATM    5  N4  UNL     1      25.075   3.050  50.297  1.00  0.00    -0.224 NA
HETATM    6  C14 UNL     1      26.358   2.941  50.713  1.00  0.00     0.236 A 
HETATM    7  N5  UNL     1      26.686   2.103  51.714  1.00  0.00    -0.241 NA
HETATM    8  C15 UNL     1      25.726   1.383  52.288  1.00  0.00     0.075 A 
HETATM    9  C16 UNL     1      25.962   0.488  53.332  1.00  0.00     0.072 A 
HETATM   10  C17 UNL     1      24.931  -0.257  53.917  1.00  0.00     0.101 A 
ENDROOT
BRANCH   4  11
HETATM   11  N1  UNL     1      22.773   2.568  50.300  1.00  0.00    -0.325 N 
HETATM   12  C6  UNL     1      21.687   3.483  50.672  1.00  0.00     0.259 C 
HETATM   13  N2  UNL     1      20.425   2.779  50.803  1.00  0.00    -0.325 N 
HETATM   14  C7  UNL     1      19.372   3.239  51.628  1.00  0.00     0.094 A 
HETATM   15  C11 UNL     1      20.290   1.580  50.050  1.00  0.00     0.128 A 
HETATM   16  C8  UNL     1      18.234   2.541  51.704  1.00  0.00     0.017 A 
HETATM   17  C9  UNL     1      18.055   1.298  50.943  1.00  0.00     0.005 A 
HETATM   18  C10 UNL     1      19.035   0.850  50.163  1.00  0.00     0.050 A 
HETATM   19  N3  UNL     1      21.177   1.065  49.267  1.00  0.00    -0.247 NA
HETATM   20  C12 UNL     1      22.437   1.763  49.130  1.00  0.00     0.209 C 
HETATM   21  C13 UNL     1      22.282   2.767  47.979  1.00  0.00     0.058 C 
ENDBRANCH   4  11
BRANCH   1  22
HETATM   22  O1  UNL     1      22.663  -0.889  54.093  1.00  0.00    -0.353 OA
HETATM   23  C1  UNL     1      21.504  -0.407  54.698  1.00  0.00     0.210 C 
ENDBRANCH   1  22
BRANCH  10  24
HETATM   24  O2  UNL     1      25.222  -1.131  54.949  1.00  0.00    -0.358 OA
HETATM   25  H17 UNL     1      24.862  -2.068  54.879  1.00  0.00     0.217 HD
ENDBRANCH  10  24
TORSDOF 3
ENDMDL
MODEL 9
REMARK VINA RESULT:      -7.5      2.930      6.740
REMARK  3 active torsions:
REMARK  status: ('A' for Active; 'I' for Inactive)
REMARK    1  A    between atoms: O1_2  and  C2_3 
REMARK    2  A    between atoms: C5_6  and  N1_7 
REMARK    3  A    between atoms: C17_23  and  O2_24 
ROOT
HETATM    1  C2  UNL     1      24.896   3.168  50.473  1.00  0.00     0.102 A 
HETATM    2  C3  UNL     1      23.957   2.336  51.060  1.00  0.00     0.057 A 
HETATM    3  C4  UNL     1      24.399   1.371  51.912  1.00  0.00     0.042 A 
HETATM    4  C5  UNL     1      23.412   0.577  52.461  1.00  0.00     0.142 A 
HETATM    5  N4  UNL     1      23.786  -0.405  53.320  1.00  0.00    -0.224 NA
HETATM    6  C14 UNL     1      25.085  -0.612  53.638  1.00  0.00     0.236 A 
HETATM    7  N5  UNL     1      26.052   0.159  53.107  1.00  0.00    -0.241 NA
HETATM    8  C15 UNL     1      25.710   1.128  52.262  1.00  0.00     0.075 A 
HETATM    9  C16 UNL     1      26.636   1.979  51.659  1.00  0.00     0.072 A 
HETATM   10  C17 UNL     1      26.245   2.990  50.773  1.00  0.00     0.101 A 
ENDROOT
BRANCH   4  11
HETATM   11  N1  UNL     1      21.988   0.654  52.235  1.00  0.00    -0.325 N 
HETATM   12  C6  UNL     1      21.152   0.331  51.073  1.00  0.00     0.259 C 
HETATM   13  N2  UNL     1      20.282   1.439  50.724  1.00  0.00    -0.325 N 
HETATM   14  C7  UNL     1      19.785   1.641  49.415  1.00  0.00     0.094 A 
HETATM   15  C11 UNL     1      19.943   2.331  51.778  1.00  0.00     0.128 A 
HETATM   16  C8  UNL     1      18.987   2.684  49.161  1.00  0.00     0.017 A 
HETATM   17  C9  UNL     1      18.614   3.629  50.222  1.00  0.00     0.005 A 
HETATM   18  C10 UNL     1      19.072   3.454  51.458  1.00  0.00     0.050 A 
HETATM   19  N3  UNL     1      20.333   2.248  53.006  1.00  0.00    -0.247 NA
HETATM   20  C12 UNL     1      21.199   1.144  53.361  1.00  0.00     0.209 C 
HETATM   21  C13 UNL     1      20.300  -0.032  53.768  1.00  0.00     0.058 C 
ENDBRANCH   4  11
BRANCH   1  22
HETATM   22  O1  UNL     1      24.596   4.193  49.587  1.00  0.00    -0.353 OA
HETATM   23  C1  UNL     1      23.919   5.369  49.906  1.00  0.00     0.210 C 
ENDBRANCH   1  22
BRANCH  10  24
HETATM   24  O2  UNL     1      27.207   3.807  50.204  1.00  0.00    -0.358 OA
HETATM   25  H17 UNL     1      26.886   4.594  49.665  1.00  0.00     0.217 HD
ENDBRANCH  10  24
TORSDOF 3
ENDMDL
