MODEL 1
REMARK VINA RESULT:      -9.1      0.000      0.000
REMARK  0 active torsions:
REMARK  status: ('A' for Active; 'I' for Inactive)
ROOT
HETATM    1  C1  UNL     1      25.020   6.966  49.852  1.00  0.00     0.011 C 
HETATM    2  C2  UNL     1      25.349   5.578  49.841  1.00  0.00     0.035 A 
HETATM    3  C3  UNL     1      25.823   4.380  49.776  1.00  0.00    -0.020 A 
HETATM    4  C4  UNL     1      24.465   4.144  50.182  1.00  0.00     0.056 A 
HETATM    5  C5  UNL     1      23.199   4.169  50.536  1.00  0.00     0.088 C 
HETATM    6  O1  UNL     1      22.573   5.391  50.568  1.00  0.00    -0.327 OA
HETATM    7  C6  UNL     1      21.329   5.201  51.265  1.00  0.00     0.351 C 
HETATM    8  O2  UNL     1      21.146   3.827  51.050  1.00  0.00    -0.323 OA
HETATM    9  C7  UNL     1      22.328   3.149  50.864  1.00  0.00     0.111 C 
HETATM   10  C8  UNL     1      22.157   1.898  51.088  1.00  0.00     0.046 A 
HETATM   11  C9  UNL     1      21.644   0.560  51.380  1.00  0.00     0.190 A 
HETATM   12  N1  UNL     1      22.253  -0.113  52.312  1.00  0.00    -0.165 NA
HETATM   13  N2  UNL     1      23.263   0.429  52.921  1.00  0.00    -0.296 N 
HETATM   14  C10 UNL     1      22.861   1.255  52.089  1.00  0.00     0.206 A 
HETATM   15  N3  UNL     1      23.587   2.100  52.548  1.00  0.00    -0.237 NA
HETATM   16  C11 UNL     1      24.533   2.495  53.417  1.00  0.00     0.343 C 
HETATM   17  N4  UNL     1      25.232   1.960  52.595  1.00  0.00    -0.402 NA
HETATM   18  C12 UNL     1      26.105   1.406  51.770  1.00  0.00     0.152 C 
HETATM   19  C13 UNL     1      26.579   0.193  51.867  1.00  0.00     0.077 A 
HETATM   20  C14 UNL     1      26.889  -1.162  52.272  1.00  0.00     0.008 A 
HETATM   21  C15 UNL     1      26.051  -0.598  53.171  1.00  0.00     0.005 A 
HETATM   22  C16 UNL     1      25.193  -0.351  54.327  1.00  0.00     0.027 C 
HETATM   23  C17 UNL     1      23.744  -0.454  53.861  1.00  0.00     0.142 C 
HETATM   24  N5  UNL     1      26.430   2.298  50.745  1.00  0.00    -0.368 N 
HETATM   25  C18 UNL     1      26.768   3.223  49.692  1.00  0.00     0.128 C 
HETATM   26  H17 UNL     1      25.924   1.597  50.089  1.00  0.00     0.161 HD
ENDROOT
TORSDOF 0
ENDMDL
MODEL 2
REMARK VINA RESULT:      -9.0      2.018      4.901
REMARK  0 active torsions:
REMARK  status: ('A' for Active; 'I' for Inactive)
ROOT
HETATM    1  C1  UNL     1      18.936  -0.962  53.081  1.00  0.00     0.011 C 
HETATM    2  C2  UNL     1      20.245  -0.470  53.362  1.00  0.00     0.035 A 
HETATM    3  C3  UNL     1      21.465  -0.201  53.683  1.00  0.00    -0.020 A 
HETATM    4  C4  UNL     1      21.013   1.054  53.149  1.00  0.00     0.056 A 
HETATM    5  C5  UNL     1      20.385   2.088  52.636  1.00  0.00     0.088 C 
HETATM    6  O1  UNL     1      19.057   1.934  52.323  1.00  0.00    -0.327 OA
HETATM    7  C6  UNL     1      18.689   3.064  51.512  1.00  0.00     0.351 C 
HETATM    8  O2  UNL     1      19.668   3.979  51.923  1.00  0.00    -0.323 OA
HETATM    9  C7  UNL     1      20.820   3.372  52.369  1.00  0.00     0.111 C 
HETATM   10  C8  UNL     1      21.797   4.201  52.333  1.00  0.00     0.046 A 
HETATM   11  C9  UNL     1      22.675   5.364  52.200  1.00  0.00     0.190 A 
HETATM   12  N1  UNL     1      23.746   5.211  51.478  1.00  0.00    -0.165 NA
HETATM   13  N2  UNL     1      23.972   4.060  50.924  1.00  0.00    -0.296 N 
HETATM   14  C10 UNL     1      22.909   3.953  51.550  1.00  0.00     0.206 A 
HETATM   15  N3  UNL     1      22.704   2.873  51.057  1.00  0.00    -0.237 NA
HETATM   16  C11 UNL     1      23.069   1.851  50.265  1.00  0.00     0.343 C 
HETATM   17  N4  UNL     1      23.711   1.578  51.246  1.00  0.00    -0.402 NA
HETATM   18  C12 UNL     1      24.462   1.171  52.257  1.00  0.00     0.152 C 
HETATM   19  C13 UNL     1      25.728   1.445  52.422  1.00  0.00     0.077 A 
HETATM   20  C14 UNL     1      27.086   1.928  52.288  1.00  0.00     0.008 A 
HETATM   21  C15 UNL     1      26.362   2.299  51.208  1.00  0.00     0.005 A 
HETATM   22  C16 UNL     1      25.939   2.858  49.926  1.00  0.00     0.027 C 
HETATM   23  C17 UNL     1      25.148   4.130  50.212  1.00  0.00     0.142 C 
HETATM   24  N5  UNL     1      23.695   0.426  53.155  1.00  0.00    -0.368 N 
HETATM   25  C18 UNL     1      22.901  -0.348  54.077  1.00  0.00     0.128 C 
HETATM   26  H17 UNL     1      23.859   1.247  53.846  1.00  0.00     0.161 HD
ENDROOT
TORSDOF 0
ENDMDL
MODEL 3
REMARK VINA RESULT:      -8.7      2.382      6.055
REMARK  0 active torsions:
REMARK  status: ('A' for Active; 'I' for Inactive)
ROOT
HETATM    1  C1  UNL     1      23.034  -1.327  55.331  1.00  0.00     0.011 C 
HETATM    2  C2  UNL     1      22.733  -0.727  54.073  1.00  0.00     0.035 A 
HETATM    3  C3  UNL     1      22.283  -0.256  52.960  1.00  0.00    -0.020 A 
HETATM    4  C4  UNL     1      23.648   0.194  52.946  1.00  0.00     0.056 A 
HETATM    5  C5  UNL     1      24.915   0.483  53.143  1.00  0.00     0.088 C 
HETATM    6  O1  UNL     1      25.516  -0.031  54.265  1.00  0.00    -0.327 OA
HETATM    7  C6  UNL     1      26.768   0.661  54.418  1.00  0.00     0.351 C 
HETATM    8  O2  UNL     1      26.978   1.066  53.091  1.00  0.00    -0.323 OA
HETATM    9  C7  UNL     1      25.808   1.211  52.382  1.00  0.00     0.111 C 
HETATM   10  C8  UNL     1      26.005   1.956  51.357  1.00  0.00     0.046 A 
HETATM   11  C9  UNL     1      26.547   2.796  50.289  1.00  0.00     0.190 A 
HETATM   12  N1  UNL     1      25.957   3.937  50.082  1.00  0.00    -0.165 NA
HETATM   13  N2  UNL     1      24.941   4.262  50.819  1.00  0.00    -0.296 N 
HETATM   14  C10 UNL     1      25.320   3.148  51.205  1.00  0.00     0.206 A 
HETATM   15  N3  UNL     1      24.581   3.202  52.154  1.00  0.00    -0.237 NA
HETATM   16  C11 UNL     1      23.632   3.824  52.875  1.00  0.00     0.343 C 
HETATM   17  N4  UNL     1      22.939   3.328  52.024  1.00  0.00    -0.402 NA
HETATM   18  C12 UNL     1      22.072   2.840  51.151  1.00  0.00     0.152 C 
HETATM   19  C13 UNL     1      21.624   3.464  50.096  1.00  0.00     0.077 A 
HETATM   20  C14 UNL     1      21.343   4.424  49.049  1.00  0.00     0.008 A 
HETATM   21  C15 UNL     1      22.175   4.975  49.962  1.00  0.00     0.005 A 
HETATM   22  C16 UNL     1      23.035   5.895  50.702  1.00  0.00     0.027 C 
HETATM   23  C17 UNL     1      24.483   5.500  50.428  1.00  0.00     0.142 C 
HETATM   24  N5  UNL     1      21.723   1.534  51.501  1.00  0.00    -0.368 N 
HETATM   25  C18 UNL     1      21.361   0.188  51.868  1.00  0.00     0.128 C 
HETATM   26  H17 UNL     1      22.240   1.242  50.592  1.00  0.00     0.161 HD
ENDROOT
TORSDOF 0
ENDMDL
MODEL 4
REMARK VINA RESULT:      -8.6      1.856      2.325
REMARK  0 active torsions:
REMARK  status: ('A' for Active; 'I' for Inactive)
ROOT
HETATM    1  C1  UNL     1      25.539   8.319  48.247  1.00  0.00     0.011 C 
HETATM    2  C2  UNL     1      25.903   6.959  48.473  1.00  0.00     0.035 A 
HETATM    3  C3  UNL     1      26.414   5.794  48.684  1.00  0.00    -0.020 A 
HETATM    4  C4  UNL     1      25.011   5.494  48.596  1.00  0.00     0.056 A 
HETATM    5  C5  UNL     1      23.703   5.458  48.470  1.00  0.00     0.088 C 
HETATM    6  O1  UNL     1      23.062   6.635  48.172  1.00  0.00    -0.327 OA
HETATM    7  C6  UNL     1      21.658   6.408  48.391  1.00  0.00     0.351 C 
HETATM    8  O2  UNL     1      21.618   5.014  48.243  1.00  0.00    -0.323 OA
HETATM    9  C7  UNL     1      22.813   4.406  48.551  1.00  0.00     0.111 C 
HETATM   10  C8  UNL     1      22.621   3.163  48.804  1.00  0.00     0.046 A 
HETATM   11  C9  UNL     1      22.088   1.816  49.006  1.00  0.00     0.190 A 
HETATM   12  N1  UNL     1      22.345   1.248  50.148  1.00  0.00    -0.165 NA
HETATM   13  N2  UNL     1      23.044   1.895  51.029  1.00  0.00    -0.296 N 
HETATM   14  C10 UNL     1      22.939   2.636  50.042  1.00  0.00     0.206 A 
HETATM   15  N3  UNL     1      23.416   3.555  50.656  1.00  0.00    -0.237 NA
HETATM   16  C11 UNL     1      23.968   4.070  51.769  1.00  0.00     0.343 C 
HETATM   17  N4  UNL     1      24.937   3.530  51.301  1.00  0.00    -0.402 NA
HETATM   18  C12 UNL     1      26.070   2.982  50.893  1.00  0.00     0.152 C 
HETATM   19  C13 UNL     1      26.523   1.813  51.256  1.00  0.00     0.077 A 
HETATM   20  C14 UNL     1      26.718   0.510  51.858  1.00  0.00     0.008 A 
HETATM   21  C15 UNL     1      25.590   1.075  52.347  1.00  0.00     0.005 A 
HETATM   22  C16 UNL     1      24.362   1.339  53.094  1.00  0.00     0.027 C 
HETATM   23  C17 UNL     1      23.186   1.109  52.151  1.00  0.00     0.142 C 
HETATM   24  N5  UNL     1      26.709   3.824  49.980  1.00  0.00    -0.368 N 
HETATM   25  C18 UNL     1      27.369   4.699  49.043  1.00  0.00     0.128 C 
HETATM   26  H17 UNL     1      26.502   3.050  49.248  1.00  0.00     0.161 HD
ENDROOT
TORSDOF 0
ENDMDL
MODEL 5
REMARK VINA RESULT:      -8.5      2.312      5.218
REMARK  0 active torsions:
REMARK  status: ('A' for Active; 'I' for Inactive)
ROOT
HETATM    1  C1  UNL     1      26.552  -1.042  52.333  1.00  0.00     0.011 C 
HETATM    2  C2  UNL     1      26.366   0.328  51.981  1.00  0.00     0.035 A 
HETATM    3  C3  UNL     1      26.383   1.563  51.611  1.00  0.00    -0.020 A 
HETATM    4  C4  UNL     1      25.026   1.403  52.058  1.00  0.00     0.056 A 
HETATM    5  C5  UNL     1      23.856   1.030  52.524  1.00  0.00     0.088 C 
HETATM    6  O1  UNL     1      23.744  -0.248  53.013  1.00  0.00    -0.327 OA
HETATM    7  C6  UNL     1      22.338  -0.512  53.166  1.00  0.00     0.351 C 
HETATM    8  O2  UNL     1      21.862   0.802  53.281  1.00  0.00    -0.323 OA
HETATM    9  C7  UNL     1      22.668   1.723  52.652  1.00  0.00     0.111 C 
HETATM   10  C8  UNL     1      22.010   2.800  52.424  1.00  0.00     0.046 A 
HETATM   11  C9  UNL     1      21.018   3.871  52.332  1.00  0.00     0.190 A 
HETATM   12  N1  UNL     1      20.784   4.356  51.148  1.00  0.00    -0.165 NA
HETATM   13  N2  UNL     1      21.430   3.872  50.132  1.00  0.00    -0.296 N 
HETATM   14  C10 UNL     1      21.823   3.255  51.132  1.00  0.00     0.206 A 
HETATM   15  N3  UNL     1      22.423   2.474  50.439  1.00  0.00    -0.237 NA
HETATM   16  C11 UNL     1      22.834   2.041  49.235  1.00  0.00     0.343 C 
HETATM   17  N4  UNL     1      23.643   2.914  49.416  1.00  0.00    -0.402 NA
HETATM   18  C12 UNL     1      24.584   3.840  49.494  1.00  0.00     0.152 C 
HETATM   19  C13 UNL     1      24.511   5.043  48.993  1.00  0.00     0.077 A 
HETATM   20  C14 UNL     1      24.100   6.260  48.324  1.00  0.00     0.008 A 
HETATM   21  C15 UNL     1      23.149   5.310  48.166  1.00  0.00     0.005 A 
HETATM   22  C16 UNL     1      21.945   4.581  47.778  1.00  0.00     0.027 C 
HETATM   23  C17 UNL     1      21.023   4.527  48.991  1.00  0.00     0.142 C 
HETATM   24  N5  UNL     1      25.671   3.359  50.229  1.00  0.00    -0.368 N 
HETATM   25  C18 UNL     1      26.792   2.857  50.982  1.00  0.00     0.128 C 
HETATM   26  H17 UNL     1      25.393   4.105  50.968  1.00  0.00     0.161 HD
ENDROOT
TORSDOF 0
ENDMDL
MODEL 6
REMARK VINA RESULT:      -8.3      2.624      6.182
REMARK  0 active torsions:
REMARK  status: ('A' for Active; 'I' for Inactive)
ROOT
HETATM    1  C1  UNL     1      22.297   0.145  53.817  1.00  0.00     0.011 C 
HETATM    2  C2  UNL     1      22.320   0.607  52.468  1.00  0.00     0.035 A 
HETATM    3  C3  UNL     1      22.162   0.953  51.236  1.00  0.00    -0.020 A 
HETATM    4  C4  UNL     1      23.490   1.427  51.512  1.00  0.00     0.056 A 
HETATM    5  C5  UNL     1      24.670   1.761  51.984  1.00  0.00     0.088 C 
HETATM    6  O1  UNL     1      24.973   1.377  53.267  1.00  0.00    -0.327 OA
HETATM    7  C6  UNL     1      26.152   2.107  53.651  1.00  0.00     0.351 C 
HETATM    8  O2  UNL     1      26.685   2.378  52.383  1.00  0.00    -0.323 OA
HETATM    9  C7  UNL     1      25.728   2.426  51.395  1.00  0.00     0.111 C 
HETATM   10  C8  UNL     1      26.176   3.067  50.379  1.00  0.00     0.046 A 
HETATM   11  C9  UNL     1      26.970   3.804  49.396  1.00  0.00     0.190 A 
HETATM   12  N1  UNL     1      26.455   4.905  48.933  1.00  0.00    -0.165 NA
HETATM   13  N2  UNL     1      25.290   5.283  49.359  1.00  0.00    -0.296 N 
HETATM   14  C10 UNL     1      25.557   4.222  49.940  1.00  0.00     0.206 A 
HETATM   15  N3  UNL     1      24.605   4.357  50.666  1.00  0.00    -0.237 NA
HETATM   16  C11 UNL     1      23.511   5.030  51.062  1.00  0.00     0.343 C 
HETATM   17  N4  UNL     1      23.048   4.436  50.123  1.00  0.00    -0.402 NA
HETATM   18  C12 UNL     1      22.421   3.844  49.119  1.00  0.00     0.152 C 
HETATM   19  C13 UNL     1      22.251   4.347  47.927  1.00  0.00     0.077 A 
HETATM   20  C14 UNL     1      22.243   5.189  46.749  1.00  0.00     0.008 A 
HETATM   21  C15 UNL     1      22.826   5.848  47.777  1.00  0.00     0.005 A 
HETATM   22  C16 UNL     1      23.481   6.856  48.606  1.00  0.00     0.027 C 
HETATM   23  C17 UNL     1      24.950   6.465  48.740  1.00  0.00     0.142 C 
HETATM   24  N5  UNL     1      21.990   2.572  49.506  1.00  0.00    -0.368 N 
HETATM   25  C18 UNL     1      21.541   1.264  49.910  1.00  0.00     0.128 C 
HETATM   26  H17 UNL     1      22.714   2.201  48.788  1.00  0.00     0.161 HD
ENDROOT
TORSDOF 0
ENDMDL
MODEL 7
REMARK VINA RESULT:      -8.2      2.690      5.376
REMARK  0 active torsions:
REMARK  status: ('A' for Active; 'I' for Inactive)
ROOT
HETATM    1  C1  UNL     1      26.089   1.746  53.896  1.00  0.00     0.011 C 
HETATM    2  C2  UNL     1      24.945   1.028  53.438  1.00  0.00     0.035 A 
HETATM    3  C3  UNL     1      23.934   0.270  53.181  1.00  0.00    -0.020 A 
HETATM    4  C4  UNL     1      23.915   1.182  52.070  1.00  0.00     0.056 A 
HETATM    5  C5  UNL     1      24.099   2.107  51.156  1.00  0.00     0.088 C 
HETATM    6  O1  UNL     1      25.191   2.928  51.293  1.00  0.00    -0.327 OA
HETATM    7  C6  UNL     1      25.005   4.022  50.377  1.00  0.00     0.351 C 
HETATM    8  O2  UNL     1      24.140   3.415  49.456  1.00  0.00    -0.323 OA
HETATM    9  C7  UNL     1      23.387   2.405  50.010  1.00  0.00     0.111 C 
HETATM   10  C8  UNL     1      22.356   2.176  49.282  1.00  0.00     0.046 A 
HETATM   11  C9  UNL     1      21.319   2.139  48.251  1.00  0.00     0.190 A 
HETATM   12  N1  UNL     1      20.089   2.281  48.649  1.00  0.00    -0.165 NA
HETATM   13  N2  UNL     1      19.853   2.445  49.914  1.00  0.00    -0.296 N 
HETATM   14  C10 UNL     1      21.080   2.334  49.791  1.00  0.00     0.206 A 
HETATM   15  N3  UNL     1      21.244   2.645  50.943  1.00  0.00    -0.237 NA
HETATM   16  C11 UNL     1      20.764   2.984  52.152  1.00  0.00     0.343 C 
HETATM   17  N4  UNL     1      20.630   1.789  52.215  1.00  0.00    -0.402 NA
HETATM   18  C12 UNL     1      20.433   0.495  52.408  1.00  0.00     0.152 C 
HETATM   19  C13 UNL     1      19.317  -0.145  52.188  1.00  0.00     0.077 A 
HETATM   20  C14 UNL     1      17.962  -0.522  51.844  1.00  0.00     0.008 A 
HETATM   21  C15 UNL     1      18.112   0.815  51.705  1.00  0.00     0.005 A 
HETATM   22  C16 UNL     1      17.880   2.235  51.455  1.00  0.00     0.027 C 
HETATM   23  C17 UNL     1      18.495   2.576  50.102  1.00  0.00     0.142 C 
HETATM   24  N5  UNL     1      21.611  -0.109  52.854  1.00  0.00    -0.368 N 
HETATM   25  C18 UNL     1      22.827  -0.727  53.321  1.00  0.00     0.128 C 
HETATM   26  H17 UNL     1      21.607  -0.627  51.901  1.00  0.00     0.161 HD
ENDROOT
TORSDOF 0
ENDMDL
MODEL 8
REMARK VINA RESULT:      -8.1      2.246      4.705
REMARK  0 active torsions:
REMARK  status: ('A' for Active; 'I' for Inactive)
ROOT
HETATM    1  C1  UNL     1      28.365   2.269  53.029  1.00  0.00     0.011 C 
HETATM    2  C2  UNL     1      27.110   1.627  52.807  1.00  0.00     0.035 A 
HETATM    3  C3  UNL     1      26.022   0.937  52.758  1.00  0.00    -0.020 A 
HETATM    4  C4  UNL     1      25.855   1.839  51.651  1.00  0.00     0.056 A 
HETATM    5  C5  UNL     1      25.924   2.743  50.700  1.00  0.00     0.088 C 
HETATM    6  O1  UNL     1      27.074   3.488  50.614  1.00  0.00    -0.327 OA
HETATM    7  C6  UNL     1      26.792   4.584  49.727  1.00  0.00     0.351 C 
HETATM    8  O2  UNL     1      25.732   4.030  48.996  1.00  0.00    -0.323 OA
HETATM    9  C7  UNL     1      25.032   3.079  49.701  1.00  0.00     0.111 C 
HETATM   10  C8  UNL     1      23.870   2.914  49.183  1.00  0.00     0.046 A 
HETATM   11  C9  UNL     1      22.659   2.940  48.363  1.00  0.00     0.190 A 
HETATM   12  N1  UNL     1      21.537   3.168  48.981  1.00  0.00    -0.165 NA
HETATM   13  N2  UNL     1      21.553   3.358  50.264  1.00  0.00    -0.296 N 
HETATM   14  C10 UNL     1      22.726   3.163  49.917  1.00  0.00     0.206 A 
HETATM   15  N3  UNL     1      23.122   3.471  51.012  1.00  0.00    -0.237 NA
HETATM   16  C11 UNL     1      22.900   3.852  52.282  1.00  0.00     0.343 C 
HETATM   17  N4  UNL     1      22.702   2.670  52.393  1.00  0.00    -0.402 NA
HETATM   18  C12 UNL     1      22.461   1.393  52.646  1.00  0.00     0.152 C 
HETATM   19  C13 UNL     1      21.284   0.829  52.650  1.00  0.00     0.077 A 
HETATM   20  C14 UNL     1      19.866   0.543  52.573  1.00  0.00     0.008 A 
HETATM   21  C15 UNL     1      20.075   1.865  52.381  1.00  0.00     0.005 A 
HETATM   22  C16 UNL     1      19.893   3.296  52.149  1.00  0.00     0.027 C 
HETATM   23  C17 UNL     1      20.265   3.582  50.698  1.00  0.00     0.142 C 
HETATM   24  N5  UNL     1      23.660   0.714  52.878  1.00  0.00    -0.368 N 
HETATM   25  C18 UNL     1      24.898   0.019  53.122  1.00  0.00     0.128 C 
HETATM   26  H17 UNL     1      23.444   0.190  51.952  1.00  0.00     0.161 HD
ENDROOT
TORSDOF 0
ENDMDL
MODEL 9
REMARK VINA RESULT:      -8.0      5.852      8.965
REMARK  0 active torsions:
REMARK  status: ('A' for Active; 'I' for Inactive)
ROOT
HETATM    1  C1  UNL     1      23.863   6.873  48.278  1.00  0.00     0.011 C 
HETATM    2  C2  UNL     1      25.176   6.401  48.575  1.00  0.00     0.035 A 
HETATM    3  C3  UNL     1      26.288   5.798  48.824  1.00  0.00    -0.020 A 
HETATM    4  C4  UNL     1      26.665   7.180  48.938  1.00  0.00     0.056 A 
HETATM    5  C5  UNL     1      26.774   8.488  48.998  1.00  0.00     0.088 C 
HETATM    6  O1  UNL     1      25.633   9.230  48.820  1.00  0.00    -0.327 OA
HETATM    7  C6  UNL     1      26.051  10.592  48.623  1.00  0.00     0.351 C 
HETATM    8  O2  UNL     1      27.300  10.551  49.258  1.00  0.00    -0.323 OA
HETATM    9  C7  UNL     1      27.865   9.297  49.253  1.00  0.00     0.111 C 
HETATM   10  C8  UNL     1      29.129   9.383  49.451  1.00  0.00     0.046 A 
HETATM   11  C9  UNL     1      30.504   9.806  49.718  1.00  0.00     0.190 A 
HETATM   12  N1  UNL     1      31.412   9.418  48.871  1.00  0.00    -0.165 NA
HETATM   13  N2  UNL     1      31.056   8.694  47.855  1.00  0.00    -0.296 N 
HETATM   14  C10 UNL     1      30.028   8.929  48.504  1.00  0.00     0.206 A 
HETATM   15  N3  UNL     1      29.344   8.465  47.628  1.00  0.00    -0.237 NA
HETATM   16  C11 UNL     1      29.207   7.859  46.436  1.00  0.00     0.343 C 
HETATM   17  N4  UNL     1      29.456   6.899  47.117  1.00  0.00    -0.402 NA
HETATM   18  C12 UNL     1      29.717   5.769  47.754  1.00  0.00     0.152 C 
HETATM   19  C13 UNL     1      30.892   5.210  47.859  1.00  0.00     0.077 A 
HETATM   20  C14 UNL     1      32.300   4.879  47.775  1.00  0.00     0.008 A 
HETATM   21  C15 UNL     1      32.051   5.998  47.057  1.00  0.00     0.005 A 
HETATM   22  C16 UNL     1      32.181   7.174  46.200  1.00  0.00     0.027 C 
HETATM   23  C17 UNL     1      32.170   8.407  47.099  1.00  0.00     0.142 C 
HETATM   24  N5  UNL     1      28.552   5.265  48.338  1.00  0.00    -0.368 N 
HETATM   25  C18 UNL     1      27.346   4.745  48.932  1.00  0.00     0.128 C 
HETATM   26  H17 UNL     1      29.034   5.480  49.286  1.00  0.00     0.161 HD
ENDROOT
TORSDOF 0
ENDMDL
