MODEL 1
REMARK VINA RESULT:      -7.8      0.000      0.000
REMARK  7 active torsions:
REMARK  status: ('A' for Active; 'I' for Inactive)
REMARK    1  A    between atoms: C2_2  and  C3_3 
REMARK    2  A    between atoms: C3_3  and  C4_4 
REMARK    3  A    between atoms: C4_4  and  C5_5 
REMARK    4  A    between atoms: C5_5  and  C6_6 
REMARK    5  A    between atoms: C6_6  and  C7_8 
REMARK    6  A    between atoms: C11_12  and  N1_13 
REMARK    7  A    between atoms: N1_13  and  C12_14 
ROOT
HETATM    1  C7  UNL     1      23.905  -0.490  54.114  1.00  0.00     0.012 A 
HETATM    2  C8  UNL     1      23.086  -1.269  54.901  1.00  0.00     0.015 A 
HETATM    3  C9  UNL     1      21.726  -1.046  54.904  1.00  0.00     0.003 A 
HETATM    4  C10 UNL     1      21.239  -0.036  54.104  1.00  0.00     0.029 A 
HETATM    5  C11 UNL     1      21.975   0.787  53.291  1.00  0.00     0.034 A 
HETATM    6  C21 UNL     1      23.339   0.493  53.348  1.00  0.00     0.044 A 
ENDROOT
BRANCH   5   7
HETATM    7  N1  UNL     1      21.521   1.831  52.470  1.00  0.00    -0.339 N 
HETATM    8  H15 UNL     1      20.913   2.582  52.917  1.00  0.00     0.167 HD
BRANCH   7   9
HETATM    9  C12 UNL     1      21.807   1.979  51.105  1.00  0.00     0.157 A 
HETATM   10  N2  UNL     1      21.225   1.126  50.362  1.00  0.00    -0.241 NA
HETATM   11  C13 UNL     1      21.279   0.976  48.965  1.00  0.00     0.115 A 
HETATM   12  C14 UNL     1      22.046   1.670  48.136  1.00  0.00    -0.003 A 
HETATM   13  C15 UNL     1      23.056   2.756  48.195  1.00  0.00     0.069 A 
HETATM   14  C16 UNL     1      23.218   3.366  49.519  1.00  0.00    -0.022 A 
HETATM   15  C17 UNL     1      24.064   4.444  49.385  1.00  0.00     0.011 A 
HETATM   16  C20 UNL     1      22.723   3.093  50.785  1.00  0.00     0.108 A 
HETATM   17  C18 UNL     1      24.383   5.206  50.513  1.00  0.00     0.020 A 
HETATM   18  C19 UNL     1      23.875   4.909  51.758  1.00  0.00     0.117 A 
HETATM   19  N3  UNL     1      23.049   3.851  51.875  1.00  0.00    -0.257 NA
ENDBRANCH   7   9
ENDBRANCH   5   7
BRANCH   1  20
HETATM   20  C6  UNL     1      25.346  -0.700  54.089  1.00  0.00     0.159 C 
HETATM   21  O1  UNL     1      26.029  -0.513  55.134  1.00  0.00    -0.292 OA
BRANCH  20  22
HETATM   22  C5  UNL     1      26.083  -1.129  52.894  1.00  0.00     0.084 C 
BRANCH  22  23
HETATM   23  C4  UNL     1      27.157  -0.141  52.469  1.00  0.00     0.008 C 
BRANCH  23  24
HETATM   24  C3  UNL     1      26.534   0.939  51.614  1.00  0.00     0.000 C 
BRANCH  24  25
HETATM   25  C2  UNL     1      26.716   2.297  52.279  1.00  0.00    -0.005 C 
HETATM   26  C1  UNL     1      27.869   2.182  53.255  1.00  0.00     0.005 C 
ENDBRANCH  24  25
ENDBRANCH  23  24
ENDBRANCH  22  23
ENDBRANCH  20  22
ENDBRANCH   1  20
TORSDOF 7
ENDMDL
MODEL 2
REMARK VINA RESULT:      -7.6      0.798      2.549
REMARK  7 active torsions:
REMARK  status: ('A' for Active; 'I' for Inactive)
REMARK    1  A    between atoms: C2_2  and  C3_3 
REMARK    2  A    between atoms: C3_3  and  C4_4 
REMARK    3  A    between atoms: C4_4  and  C5_5 
REMARK    4  A    between atoms: C5_5  and  C6_6 
REMARK    5  A    between atoms: C6_6  and  C7_8 
REMARK    6  A    between atoms: C11_12  and  N1_13 
REMARK    7  A    between atoms: N1_13  and  C12_14 
ROOT
HETATM    1  C7  UNL     1      23.863  -0.314  53.881  1.00  0.00     0.012 A 
HETATM    2  C8  UNL     1      23.127  -1.086  54.754  1.00  0.00     0.015 A 
HETATM    3  C9  UNL     1      21.771  -0.875  54.877  1.00  0.00     0.003 A 
HETATM    4  C10 UNL     1      21.201   0.114  54.106  1.00  0.00     0.029 A 
HETATM    5  C11 UNL     1      21.852   0.928  53.214  1.00  0.00     0.034 A 
HETATM    6  C21 UNL     1      23.218   0.649  53.153  1.00  0.00     0.044 A 
ENDROOT
BRANCH   5   7
HETATM    7  N1  UNL     1      21.313   1.952  52.420  1.00  0.00    -0.339 N 
HETATM    8  H15 UNL     1      20.254   1.995  52.321  1.00  0.00     0.167 HD
BRANCH   7   9
HETATM    9  C12 UNL     1      22.051   2.937  51.748  1.00  0.00     0.157 A 
HETATM   10  N2  UNL     1      22.495   3.856  52.508  1.00  0.00    -0.241 NA
HETATM   11  C13 UNL     1      23.266   4.987  52.185  1.00  0.00     0.115 A 
HETATM   12  C14 UNL     1      23.614   5.368  50.964  1.00  0.00    -0.003 A 
HETATM   13  C15 UNL     1      23.434   4.921  49.561  1.00  0.00     0.069 A 
HETATM   14  C16 UNL     1      22.783   3.615  49.416  1.00  0.00    -0.022 A 
HETATM   15  C17 UNL     1      22.824   3.270  48.084  1.00  0.00     0.011 A 
HETATM   16  C20 UNL     1      22.180   2.724  50.292  1.00  0.00     0.108 A 
HETATM   17  C18 UNL     1      22.264   2.055  47.676  1.00  0.00     0.020 A 
HETATM   18  C19 UNL     1      21.672   1.191  48.571  1.00  0.00     0.117 A 
HETATM   19  N3  UNL     1      21.639   1.541  49.871  1.00  0.00    -0.257 NA
ENDBRANCH   7   9
ENDBRANCH   5   7
BRANCH   1  20
HETATM   20  C6  UNL     1      25.297  -0.511  53.729  1.00  0.00     0.159 C 
HETATM   21  O1  UNL     1      25.997  -0.850  54.723  1.00  0.00    -0.292 OA
BRANCH  20  22
HETATM   22  C5  UNL     1      26.010  -0.336  52.457  1.00  0.00     0.084 C 
BRANCH  22  23
HETATM   23  C4  UNL     1      27.172   0.641  52.553  1.00  0.00     0.008 C 
BRANCH  23  24
HETATM   24  C3  UNL     1      26.645   2.055  52.464  1.00  0.00     0.000 C 
BRANCH  24  25
HETATM   25  C2  UNL     1      25.785   2.211  51.218  1.00  0.00    -0.005 C 
HETATM   26  C1  UNL     1      26.546   3.079  50.237  1.00  0.00     0.005 C 
ENDBRANCH  24  25
ENDBRANCH  23  24
ENDBRANCH  22  23
ENDBRANCH  20  22
ENDBRANCH   1  20
TORSDOF 7
ENDMDL
MODEL 3
REMARK VINA RESULT:      -7.2      1.708      2.672
REMARK  7 active torsions:
REMARK  status: ('A' for Active; 'I' for Inactive)
REMARK    1  A    between atoms: C2_2  and  C3_3 
REMARK    2  A    between atoms: C3_3  and  C4_4 
REMARK    3  A    between atoms: C4_4  and  C5_5 
REMARK    4  A    between atoms: C5_5  and  C6_6 
REMARK    5  A    between atoms: C6_6  and  C7_8 
REMARK    6  A    between atoms: C11_12  and  N1_13 
REMARK    7  A    between atoms: N1_13  and  C12_14 
ROOT
HETATM    1  C7  UNL     1      23.838  -0.280  53.714  1.00  0.00     0.012 A 
HETATM    2  C8  UNL     1      22.598  -0.692  54.152  1.00  0.00     0.015 A 
HETATM    3  C9  UNL     1      21.464  -0.279  53.485  1.00  0.00     0.003 A 
HETATM    4  C10 UNL     1      21.626   0.542  52.391  1.00  0.00     0.029 A 
HETATM    5  C11 UNL     1      22.815   1.001  51.884  1.00  0.00     0.034 A 
HETATM    6  C21 UNL     1      23.908   0.535  52.617  1.00  0.00     0.044 A 
ENDROOT
BRANCH   5   7
HETATM    7  N1  UNL     1      23.022   1.844  50.781  1.00  0.00    -0.339 N 
HETATM    8  H15 UNL     1      23.154   1.387  49.829  1.00  0.00     0.167 HD
BRANCH   7   9
HETATM    9  C12 UNL     1      23.060   3.245  50.822  1.00  0.00     0.157 A 
HETATM   10  N2  UNL     1      22.010   3.774  51.308  1.00  0.00    -0.241 NA
HETATM   11  C13 UNL     1      21.702   5.132  51.502  1.00  0.00     0.115 A 
HETATM   12  C14 UNL     1      22.445   6.161  51.117  1.00  0.00    -0.003 A 
HETATM   13  C15 UNL     1      23.732   6.410  50.424  1.00  0.00     0.069 A 
HETATM   14  C16 UNL     1      24.525   5.205  50.158  1.00  0.00    -0.022 A 
HETATM   15  C17 UNL     1      25.743   5.605  49.656  1.00  0.00     0.011 A 
HETATM   16  C20 UNL     1      24.306   3.843  50.302  1.00  0.00     0.108 A 
HETATM   17  C18 UNL     1      26.694   4.636  49.318  1.00  0.00     0.020 A 
HETATM   18  C19 UNL     1      26.446   3.290  49.473  1.00  0.00     0.117 A 
HETATM   19  N3  UNL     1      25.250   2.913  49.965  1.00  0.00    -0.257 NA
ENDBRANCH   7   9
ENDBRANCH   5   7
BRANCH   1  20
HETATM   20  C6  UNL     1      25.053  -0.699  54.397  1.00  0.00     0.159 C 
HETATM   21  O1  UNL     1      24.982  -1.260  55.525  1.00  0.00    -0.292 OA
BRANCH  20  22
HETATM   22  C5  UNL     1      26.400  -0.508  53.845  1.00  0.00     0.084 C 
BRANCH  22  23
HETATM   23  C4  UNL     1      27.248   0.457  54.659  1.00  0.00     0.008 C 
BRANCH  23  24
HETATM   24  C3  UNL     1      28.700   0.046  54.570  1.00  0.00     0.000 C 
BRANCH  24  25
HETATM   25  C2  UNL     1      29.469   1.040  53.710  1.00  0.00    -0.005 C 
HETATM   26  C1  UNL     1      28.671   2.327  53.668  1.00  0.00     0.005 C 
ENDBRANCH  24  25
ENDBRANCH  23  24
ENDBRANCH  22  23
ENDBRANCH  20  22
ENDBRANCH   1  20
TORSDOF 7
ENDMDL
MODEL 4
REMARK VINA RESULT:      -6.9      1.791      4.294
REMARK  7 active torsions:
REMARK  status: ('A' for Active; 'I' for Inactive)
REMARK    1  A    between atoms: C2_2  and  C3_3 
REMARK    2  A    between atoms: C3_3  and  C4_4 
REMARK    3  A    between atoms: C4_4  and  C5_5 
REMARK    4  A    between atoms: C5_5  and  C6_6 
REMARK    5  A    between atoms: C6_6  and  C7_8 
REMARK    6  A    between atoms: C11_12  and  N1_13 
REMARK    7  A    between atoms: N1_13  and  C12_14 
ROOT
HETATM    1  C7  UNL     1      24.944  -0.056  53.496  1.00  0.00     0.012 A 
HETATM    2  C8  UNL     1      26.028  -0.576  52.822  1.00  0.00     0.015 A 
HETATM    3  C9  UNL     1      26.766   0.233  51.985  1.00  0.00     0.003 A 
HETATM    4  C10 UNL     1      26.380   1.549  51.859  1.00  0.00     0.029 A 
HETATM    5  C11 UNL     1      25.320   2.152  52.487  1.00  0.00     0.034 A 
HETATM    6  C21 UNL     1      24.630   1.263  53.313  1.00  0.00     0.044 A 
ENDROOT
BRANCH   5   7
HETATM    7  N1  UNL     1      24.888   3.483  52.378  1.00  0.00    -0.339 N 
HETATM    8  H15 UNL     1      24.915   4.084  53.256  1.00  0.00     0.167 HD
BRANCH   7   9
HETATM    9  C12 UNL     1      24.432   4.097  51.203  1.00  0.00     0.157 A 
HETATM   10  N2  UNL     1      25.362   4.438  50.405  1.00  0.00    -0.241 NA
HETATM   11  C13 UNL     1      25.277   5.069  49.151  1.00  0.00     0.115 A 
HETATM   12  C14 UNL     1      24.168   5.521  48.582  1.00  0.00    -0.003 A 
HETATM   13  C15 UNL     1      22.716   5.602  48.874  1.00  0.00     0.069 A 
HETATM   14  C16 UNL     1      22.297   4.886  50.084  1.00  0.00    -0.022 A 
HETATM   15  C17 UNL     1      20.922   4.923  50.140  1.00  0.00     0.011 A 
HETATM   16  C20 UNL     1      22.963   4.229  51.108  1.00  0.00     0.108 A 
HETATM   17  C18 UNL     1      20.265   4.304  51.209  1.00  0.00     0.020 A 
HETATM   18  C19 UNL     1      20.956   3.659  52.211  1.00  0.00     0.117 A 
HETATM   19  N3  UNL     1      22.301   3.632  52.144  1.00  0.00    -0.257 NA
ENDBRANCH   7   9
ENDBRANCH   5   7
BRANCH   1  20
HETATM   20  C6  UNL     1      24.144  -0.885  54.386  1.00  0.00     0.159 C 
HETATM   21  O1  UNL     1      24.639  -1.312  55.465  1.00  0.00    -0.292 OA
BRANCH  20  22
HETATM   22  C5  UNL     1      22.755  -1.270  54.106  1.00  0.00     0.084 C 
BRANCH  22  23
HETATM   23  C4  UNL     1      21.744  -0.518  54.957  1.00  0.00     0.008 C 
BRANCH  23  24
HETATM   24  C3  UNL     1      20.873   0.336  54.063  1.00  0.00     0.000 C 
BRANCH  24  25
HETATM   25  C2  UNL     1      21.025  -0.107  52.614  1.00  0.00    -0.005 C 
HETATM   26  C1  UNL     1      19.738   0.230  51.891  1.00  0.00     0.005 C 
ENDBRANCH  24  25
ENDBRANCH  23  24
ENDBRANCH  22  23
ENDBRANCH  20  22
ENDBRANCH   1  20
TORSDOF 7
ENDMDL
MODEL 5
REMARK VINA RESULT:      -6.8      3.151      7.344
REMARK  7 active torsions:
REMARK  status: ('A' for Active; 'I' for Inactive)
REMARK    1  A    between atoms: C2_2  and  C3_3 
REMARK    2  A    between atoms: C3_3  and  C4_4 
REMARK    3  A    between atoms: C4_4  and  C5_5 
REMARK    4  A    between atoms: C5_5  and  C6_6 
REMARK    5  A    between atoms: C6_6  and  C7_8 
REMARK    6  A    between atoms: C11_12  and  N1_13 
REMARK    7  A    between atoms: N1_13  and  C12_14 
ROOT
HETATM    1  C7  UNL     1      25.534   6.459  49.790  1.00  0.00     0.012 A 
HETATM    2  C8  UNL     1      26.595   6.857  49.007  1.00  0.00     0.015 A 
HETATM    3  C9  UNL     1      27.488   5.919  48.536  1.00  0.00     0.003 A 
HETATM    4  C10 UNL     1      27.274   4.601  48.876  1.00  0.00     0.029 A 
HETATM    5  C11 UNL     1      26.250   4.115  49.648  1.00  0.00     0.034 A 
HETATM    6  C21 UNL     1      25.395   5.129  50.081  1.00  0.00     0.044 A 
ENDROOT
BRANCH   5   7
HETATM    7  N1  UNL     1      26.002   2.785  50.025  1.00  0.00    -0.339 N 
HETATM    8  H15 UNL     1      25.646   2.118  49.277  1.00  0.00     0.167 HD
BRANCH   7   9
HETATM    9  C12 UNL     1      26.195   2.253  51.309  1.00  0.00     0.157 A 
HETATM   10  N2  UNL     1      27.371   2.423  51.765  1.00  0.00    -0.241 NA
HETATM   11  C13 UNL     1      27.914   2.028  53.000  1.00  0.00     0.115 A 
HETATM   12  C14 UNL     1      27.301   1.299  53.923  1.00  0.00    -0.003 A 
HETATM   13  C15 UNL     1      25.991   0.637  54.133  1.00  0.00     0.069 A 
HETATM   14  C16 UNL     1      24.988   0.929  53.103  1.00  0.00    -0.022 A 
HETATM   15  C17 UNL     1      23.794   0.375  53.509  1.00  0.00     0.011 A 
HETATM   16  C20 UNL     1      25.003   1.604  51.891  1.00  0.00     0.108 A 
HETATM   17  C18 UNL     1      22.665   0.515  52.695  1.00  0.00     0.020 A 
HETATM   18  C19 UNL     1      22.713   1.191  51.496  1.00  0.00     0.117 A 
HETATM   19  N3  UNL     1      23.887   1.727  51.111  1.00  0.00    -0.257 NA
ENDBRANCH   7   9
ENDBRANCH   5   7
BRANCH   1  20
HETATM   20  C6  UNL     1      24.574   7.427  50.303  1.00  0.00     0.159 C 
HETATM   21  O1  UNL     1      24.853   8.657  50.297  1.00  0.00    -0.292 OA
BRANCH  20  22
HETATM   22  C5  UNL     1      23.260   7.057  50.845  1.00  0.00     0.084 C 
BRANCH  22  23
HETATM   23  C4  UNL     1      22.166   7.027  49.789  1.00  0.00     0.008 C 
BRANCH  23  24
HETATM   24  C3  UNL     1      21.080   6.068  50.220  1.00  0.00     0.000 C 
BRANCH  24  25
HETATM   25  C2  UNL     1      21.645   5.050  51.200  1.00  0.00    -0.005 C 
HETATM   26  C1  UNL     1      20.515   4.132  51.616  1.00  0.00     0.005 C 
ENDBRANCH  24  25
ENDBRANCH  23  24
ENDBRANCH  22  23
ENDBRANCH  20  22
ENDBRANCH   1  20
TORSDOF 7
ENDMDL
MODEL 6
REMARK VINA RESULT:      -6.8      2.166      5.039
REMARK  7 active torsions:
REMARK  status: ('A' for Active; 'I' for Inactive)
REMARK    1  A    between atoms: C2_2  and  C3_3 
REMARK    2  A    between atoms: C3_3  and  C4_4 
REMARK    3  A    between atoms: C4_4  and  C5_5 
REMARK    4  A    between atoms: C5_5  and  C6_6 
REMARK    5  A    between atoms: C6_6  and  C7_8 
REMARK    6  A    between atoms: C11_12  and  N1_13 
REMARK    7  A    between atoms: N1_13  and  C12_14 
ROOT
HETATM    1  C7  UNL     1      24.829   2.843  50.773  1.00  0.00     0.012 A 
HETATM    2  C8  UNL     1      24.541   3.264  49.494  1.00  0.00     0.015 A 
HETATM    3  C9  UNL     1      23.235   3.518  49.134  1.00  0.00     0.003 A 
HETATM    4  C10 UNL     1      22.258   3.335  50.089  1.00  0.00     0.029 A 
HETATM    5  C11 UNL     1      22.451   2.920  51.382  1.00  0.00     0.034 A 
HETATM    6  C21 UNL     1      23.798   2.687  51.660  1.00  0.00     0.044 A 
ENDROOT
BRANCH   5   7
HETATM    7  N1  UNL     1      21.485   2.712  52.380  1.00  0.00    -0.339 N 
HETATM    8  H15 UNL     1      21.520   3.340  53.238  1.00  0.00     0.167 HD
BRANCH   7   9
HETATM    9  C12 UNL     1      20.466   1.750  52.339  1.00  0.00     0.157 A 
HETATM   10  N2  UNL     1      19.463   2.092  51.636  1.00  0.00    -0.241 NA
HETATM   11  C13 UNL     1      18.274   1.388  51.373  1.00  0.00     0.115 A 
HETATM   12  C14 UNL     1      17.928   0.222  51.902  1.00  0.00    -0.003 A 
HETATM   13  C15 UNL     1      18.471  -0.777  52.854  1.00  0.00     0.069 A 
HETATM   14  C16 UNL     1      19.847  -0.518  53.292  1.00  0.00    -0.022 A 
HETATM   15  C17 UNL     1      20.261  -1.596  54.041  1.00  0.00     0.011 A 
HETATM   16  C20 UNL     1      20.747   0.522  53.112  1.00  0.00     0.108 A 
HETATM   17  C18 UNL     1      21.551  -1.597  54.581  1.00  0.00     0.020 A 
HETATM   18  C19 UNL     1      22.422  -0.548  54.384  1.00  0.00     0.117 A 
HETATM   19  N3  UNL     1      22.003   0.500  53.650  1.00  0.00    -0.257 NA
ENDBRANCH   7   9
ENDBRANCH   5   7
BRANCH   1  20
HETATM   20  C6  UNL     1      26.198   2.566  51.184  1.00  0.00     0.159 C 
HETATM   21  O1  UNL     1      27.160   3.126  50.590  1.00  0.00    -0.292 OA
BRANCH  20  22
HETATM   22  C5  UNL     1      26.548   1.651  52.277  1.00  0.00     0.084 C 
BRANCH  22  23
HETATM   23  C4  UNL     1      26.681   0.205  51.826  1.00  0.00     0.008 C 
BRANCH  23  24
HETATM   24  C3  UNL     1      26.956  -0.671  53.027  1.00  0.00     0.000 C 
BRANCH  24  25
HETATM   25  C2  UNL     1      28.132  -0.115  53.817  1.00  0.00    -0.005 C 
HETATM   26  C1  UNL     1      29.360  -0.919  53.444  1.00  0.00     0.005 C 
ENDBRANCH  24  25
ENDBRANCH  23  24
ENDBRANCH  22  23
ENDBRANCH  20  22
ENDBRANCH   1  20
TORSDOF 7
ENDMDL
MODEL 7
REMARK VINA RESULT:      -6.8      2.352      4.958
REMARK  7 active torsions:
REMARK  status: ('A' for Active; 'I' for Inactive)
REMARK    1  A    between atoms: C2_2  and  C3_3 
REMARK    2  A    between atoms: C3_3  and  C4_4 
REMARK    3  A    between atoms: C4_4  and  C5_5 
REMARK    4  A    between atoms: C5_5  and  C6_6 
REMARK    5  A    between atoms: C6_6  and  C7_8 
REMARK    6  A    between atoms: C11_12  and  N1_13 
REMARK    7  A    between atoms: N1_13  and  C12_14 
ROOT
HETATM    1  C7  UNL     1      22.514  -0.346  53.584  1.00  0.00     0.012 A 
HETATM    2  C8  UNL     1      23.722  -0.627  54.185  1.00  0.00     0.015 A 
HETATM    3  C9  UNL     1      24.880  -0.067  53.689  1.00  0.00     0.003 A 
HETATM    4  C10 UNL     1      24.775   0.764  52.595  1.00  0.00     0.029 A 
HETATM    5  C11 UNL     1      23.621   1.100  51.935  1.00  0.00     0.034 A 
HETATM    6  C21 UNL     1      22.500   0.491  52.501  1.00  0.00     0.044 A 
ENDROOT
BRANCH   5   7
HETATM    7  N1  UNL     1      23.472   1.932  50.814  1.00  0.00    -0.339 N 
HETATM    8  H15 UNL     1      23.397   1.466  49.860  1.00  0.00     0.167 HD
BRANCH   7   9
HETATM    9  C12 UNL     1      23.403   3.332  50.843  1.00  0.00     0.157 A 
HETATM   10  N2  UNL     1      22.346   3.784  51.387  1.00  0.00    -0.241 NA
HETATM   11  C13 UNL     1      21.945   5.117  51.588  1.00  0.00     0.115 A 
HETATM   12  C14 UNL     1      22.583   6.195  51.153  1.00  0.00    -0.003 A 
HETATM   13  C15 UNL     1      23.803   6.535  50.382  1.00  0.00     0.069 A 
HETATM   14  C16 UNL     1      24.670   5.391  50.078  1.00  0.00    -0.022 A 
HETATM   15  C17 UNL     1      25.822   5.878  49.501  1.00  0.00     0.011 A 
HETATM   16  C20 UNL     1      24.567   4.018  50.244  1.00  0.00     0.108 A 
HETATM   17  C18 UNL     1      26.823   4.981  49.114  1.00  0.00     0.020 A 
HETATM   18  C19 UNL     1      26.690   3.622  49.293  1.00  0.00     0.117 A 
HETATM   19  N3  UNL     1      25.558   3.160  49.858  1.00  0.00    -0.257 NA
ENDBRANCH   7   9
ENDBRANCH   5   7
BRANCH   1  20
HETATM   20  C6  UNL     1      21.274  -0.922  54.083  1.00  0.00     0.159 C 
HETATM   21  O1  UNL     1      21.308  -1.872  54.912  1.00  0.00    -0.292 OA
BRANCH  20  22
HETATM   22  C5  UNL     1      19.942  -0.457  53.675  1.00  0.00     0.084 C 
BRANCH  22  23
HETATM   23  C4  UNL     1      18.904  -1.568  53.650  1.00  0.00     0.008 C 
BRANCH  23  24
HETATM   24  C3  UNL     1      17.788  -1.190  52.703  1.00  0.00     0.000 C 
BRANCH  24  25
HETATM   25  C2  UNL     1      18.227  -0.028  51.822  1.00  0.00    -0.005 C 
HETATM   26  C1  UNL     1      17.468  -0.129  50.514  1.00  0.00     0.005 C 
ENDBRANCH  24  25
ENDBRANCH  23  24
ENDBRANCH  22  23
ENDBRANCH  20  22
ENDBRANCH   1  20
TORSDOF 7
ENDMDL
MODEL 8
REMARK VINA RESULT:      -6.8      2.031      3.414
REMARK  7 active torsions:
REMARK  status: ('A' for Active; 'I' for Inactive)
REMARK    1  A    between atoms: C2_2  and  C3_3 
REMARK    2  A    between atoms: C3_3  and  C4_4 
REMARK    3  A    between atoms: C4_4  and  C5_5 
REMARK    4  A    between atoms: C5_5  and  C6_6 
REMARK    5  A    between atoms: C6_6  and  C7_8 
REMARK    6  A    between atoms: C11_12  and  N1_13 
REMARK    7  A    between atoms: N1_13  and  C12_14 
ROOT
HETATM    1  C7  UNL     1      23.355   0.503  52.825  1.00  0.00     0.012 A 
HETATM    2  C8  UNL     1      22.171   0.126  52.231  1.00  0.00     0.015 A 
HETATM    3  C9  UNL     1      21.485   1.023  51.441  1.00  0.00     0.003 A 
HETATM    4  C10 UNL     1      22.026   2.280  51.278  1.00  0.00     0.029 A 
HETATM    5  C11 UNL     1      23.195   2.742  51.828  1.00  0.00     0.034 A 
HETATM    6  C21 UNL     1      23.822   1.771  52.611  1.00  0.00     0.044 A 
ENDROOT
BRANCH   5   7
HETATM    7  N1  UNL     1      23.774   4.014  51.696  1.00  0.00    -0.339 N 
HETATM    8  H15 UNL     1      23.437   4.780  52.352  1.00  0.00     0.167 HD
BRANCH   7   9
HETATM    9  C12 UNL     1      24.773   4.362  50.775  1.00  0.00     0.157 A 
HETATM   10  N2  UNL     1      25.529   3.394  50.444  1.00  0.00    -0.241 NA
HETATM   11  C13 UNL     1      26.619   3.376  49.556  1.00  0.00     0.115 A 
HETATM   12  C14 UNL     1      27.136   4.428  48.938  1.00  0.00    -0.003 A 
HETATM   13  C15 UNL     1      26.913   5.892  48.848  1.00  0.00     0.069 A 
HETATM   14  C16 UNL     1      25.705   6.367  49.533  1.00  0.00    -0.022 A 
HETATM   15  C17 UNL     1      25.552   7.703  49.237  1.00  0.00     0.011 A 
HETATM   16  C20 UNL     1      24.758   5.780  50.358  1.00  0.00     0.108 A 
HETATM   17  C18 UNL     1      24.464   8.400  49.772  1.00  0.00     0.020 A 
HETATM   18  C19 UNL     1      23.539   7.787  50.589  1.00  0.00     0.117 A 
HETATM   19  N3  UNL     1      23.702   6.481  50.870  1.00  0.00    -0.257 NA
ENDBRANCH   7   9
ENDBRANCH   5   7
BRANCH   1  20
HETATM   20  C6  UNL     1      24.102  -0.422  53.666  1.00  0.00     0.159 C 
HETATM   21  O1  UNL     1      23.564  -0.915  54.695  1.00  0.00    -0.292 OA
BRANCH  20  22
HETATM   22  C5  UNL     1      25.484  -0.834  53.390  1.00  0.00     0.084 C 
BRANCH  22  23
HETATM   23  C4  UNL     1      26.508  -0.090  54.232  1.00  0.00     0.008 C 
BRANCH  23  24
HETATM   24  C3  UNL     1      27.807   0.014  53.465  1.00  0.00     0.000 C 
BRANCH  24  25
HETATM   25  C2  UNL     1      28.696   1.081  54.091  1.00  0.00    -0.005 C 
HETATM   26  C1  UNL     1      28.350   2.406  53.444  1.00  0.00     0.005 C 
ENDBRANCH  24  25
ENDBRANCH  23  24
ENDBRANCH  22  23
ENDBRANCH  20  22
ENDBRANCH   1  20
TORSDOF 7
ENDMDL
MODEL 9
REMARK VINA RESULT:      -6.8      1.869      4.654
REMARK  7 active torsions:
REMARK  status: ('A' for Active; 'I' for Inactive)
REMARK    1  A    between atoms: C2_2  and  C3_3 
REMARK    2  A    between atoms: C3_3  and  C4_4 
REMARK    3  A    between atoms: C4_4  and  C5_5 
REMARK    4  A    between atoms: C5_5  and  C6_6 
REMARK    5  A    between atoms: C6_6  and  C7_8 
REMARK    6  A    between atoms: C11_12  and  N1_13 
REMARK    7  A    between atoms: N1_13  and  C12_14 
ROOT
HETATM    1  C7  UNL     1      23.277  -0.320  53.872  1.00  0.00     0.012 A 
HETATM    2  C8  UNL     1      24.480  -0.795  54.346  1.00  0.00     0.015 A 
HETATM    3  C9  UNL     1      25.658  -0.374  53.766  1.00  0.00     0.003 A 
HETATM    4  C10 UNL     1      25.576   0.520  52.721  1.00  0.00     0.029 A 
HETATM    5  C11 UNL     1      24.428   1.045  52.186  1.00  0.00     0.034 A 
HETATM    6  C21 UNL     1      23.286   0.567  52.830  1.00  0.00     0.044 A 
ENDROOT
BRANCH   5   7
HETATM    7  N1  UNL     1      24.301   1.948  51.119  1.00  0.00    -0.339 N 
HETATM    8  H15 UNL     1      24.910   1.787  50.261  1.00  0.00     0.167 HD
BRANCH   7   9
HETATM    9  C12 UNL     1      23.428   3.045  51.079  1.00  0.00     0.157 A 
HETATM   10  N2  UNL     1      23.580   3.859  52.044  1.00  0.00    -0.241 NA
HETATM   11  C13 UNL     1      22.890   5.052  52.323  1.00  0.00     0.115 A 
HETATM   12  C14 UNL     1      21.852   5.526  51.648  1.00  0.00    -0.003 A 
HETATM   13  C15 UNL     1      21.015   5.155  50.481  1.00  0.00     0.069 A 
HETATM   14  C16 UNL     1      21.494   3.986  49.735  1.00  0.00    -0.022 A 
HETATM   15  C17 UNL     1      20.714   3.857  48.607  1.00  0.00     0.011 A 
HETATM   16  C20 UNL     1      22.503   3.054  49.926  1.00  0.00     0.108 A 
HETATM   17  C18 UNL     1      20.969   2.810  47.717  1.00  0.00     0.020 A 
HETATM   18  C19 UNL     1      21.979   1.899  47.936  1.00  0.00     0.117 A 
HETATM   19  N3  UNL     1      22.734   2.037  49.043  1.00  0.00    -0.257 NA
ENDBRANCH   7   9
ENDBRANCH   5   7
BRANCH   1  20
HETATM   20  C6  UNL     1      22.016  -0.746  54.463  1.00  0.00     0.159 C 
HETATM   21  O1  UNL     1      21.991  -1.723  55.261  1.00  0.00    -0.292 OA
BRANCH  20  22
HETATM   22  C5  UNL     1      20.729  -0.095  54.185  1.00  0.00     0.084 C 
BRANCH  22  23
HETATM   23  C4  UNL     1      19.697  -1.042  53.594  1.00  0.00     0.008 C 
BRANCH  23  24
HETATM   24  C3  UNL     1      18.841  -0.291  52.598  1.00  0.00     0.000 C 
BRANCH  24  25
HETATM   25  C2  UNL     1      19.617   0.890  52.033  1.00  0.00    -0.005 C 
HETATM   26  C1  UNL     1      19.582   0.784  50.522  1.00  0.00     0.005 C 
ENDBRANCH  24  25
ENDBRANCH  23  24
ENDBRANCH  22  23
ENDBRANCH  20  22
ENDBRANCH   1  20
TORSDOF 7
ENDMDL
