MODEL 1
REMARK VINA RESULT:      -6.9      0.000      0.000
REMARK  8 active torsions:
REMARK  status: ('A' for Active; 'I' for Inactive)
REMARK    1  A    between atoms: C2_2  and  N1_3 
REMARK    2  A    between atoms: N1_3  and  C4_5 
REMARK    3  A    between atoms: C4_5  and  C5_6 
REMARK    4  A    between atoms: C5_6  and  O1_7 
REMARK    5  A    between atoms: O1_7  and  C6_8 
REMARK    6  A    between atoms: C10_13  and  C11_14 
REMARK    7  A    between atoms: C12_15  and  C13_16 
REMARK    8  A    between atoms: C17_23  and  O2_24 
ROOT
HETATM    1  C6  UNL     1      25.469   1.832  52.765  1.00  0.00     0.175 C 
HETATM    2  C7  UNL     1      23.995   1.903  52.548  1.00  0.00     0.024 C 
HETATM    3  C8  UNL     1      22.692   2.018  52.600  1.00  0.00     0.086 C 
HETATM    4  N2  UNL     1      21.304   2.127  52.582  1.00  0.00    -0.373 N 
HETATM    5  C9  UNL     1      20.415   1.064  52.812  1.00  0.00     0.119 C 
HETATM    6  C10 UNL     1      19.656   0.047  53.160  1.00  0.00     0.073 C 
HETATM    7  N3  UNL     1      20.395  -0.087  54.374  1.00  0.00    -0.241 NA
HETATM    8  C14 UNL     1      21.447  -0.757  54.548  1.00  0.00     0.232 C 
HETATM    9  N4  UNL     1      22.651  -1.434  55.030  1.00  0.00    -0.258 NA
HETATM   10  C15 UNL     1      23.850  -0.947  54.707  1.00  0.00     0.099 C 
HETATM   11  C16 UNL     1      25.256  -0.495  54.412  1.00  0.00     0.150 C 
HETATM   12  C17 UNL     1      25.721   0.576  53.661  1.00  0.00     0.081 C 
HETATM   13  H14 UNL     1      20.989   3.100  52.384  1.00  0.00     0.164 HD
ENDROOT
BRANCH   1  14
HETATM   14  O1  UNL     1      26.150   1.629  51.604  1.00  0.00    -0.378 OA
BRANCH  14  15
HETATM   15  C5  UNL     1      26.797   2.770  51.137  1.00  0.00     0.188 C 
BRANCH  15  16
HETATM   16  C4  UNL     1      26.454   3.078  49.715  1.00  0.00     0.147 C 
BRANCH  16  17
HETATM   17  N1  UNL     1      26.032   4.466  49.653  1.00  0.00    -0.396 N 
HETATM   18  C3  UNL     1      24.875   4.895  50.412  1.00  0.00     0.148 C 
BRANCH  17  19
HETATM   19  C2  UNL     1      26.570   5.569  48.942  1.00  0.00     0.058 C 
HETATM   20  C1  UNL     1      27.704   4.967  48.596  1.00  0.00     0.049 C 
ENDBRANCH  17  19
ENDBRANCH  16  17
ENDBRANCH  15  16
ENDBRANCH  14  15
ENDBRANCH   1  14
BRANCH  12  21
HETATM   21  O2  UNL     1      27.118   0.374  53.836  1.00  0.00    -0.387 OA
HETATM   22  C18 UNL     1      27.681  -0.838  53.368  1.00  0.00     0.202 C 
ENDBRANCH  12  21
BRANCH   6  23
HETATM   23  C11 UNL     1      18.538  -0.786  52.748  1.00  0.00     0.030 C 
HETATM   24  C12 UNL     1      18.123  -1.784  53.503  1.00  0.00    -0.009 C 
BRANCH  24  25
HETATM   25  C13 UNL     1      16.977  -2.619  53.055  1.00  0.00     0.142 C 
HETATM   26 CL1  UNL     1      17.074  -4.183  53.877  1.00  0.00    -0.126 Cl
ENDBRANCH  24  25
ENDBRANCH   6  23
TORSDOF 8
ENDMDL
MODEL 2
REMARK VINA RESULT:      -6.8      3.761      7.805
REMARK  8 active torsions:
REMARK  status: ('A' for Active; 'I' for Inactive)
REMARK    1  A    between atoms: C2_2  and  N1_3 
REMARK    2  A    between atoms: N1_3  and  C4_5 
REMARK    3  A    between atoms: C4_5  and  C5_6 
REMARK    4  A    between atoms: C5_6  and  O1_7 
REMARK    5  A    between atoms: O1_7  and  C6_8 
REMARK    6  A    between atoms: C10_13  and  C11_14 
REMARK    7  A    between atoms: C12_15  and  C13_16 
REMARK    8  A    between atoms: C17_23  and  O2_24 
ROOT
HETATM    1  C6  UNL     1      22.089   4.413  51.197  1.00  0.00     0.175 C 
HETATM    2  C7  UNL     1      23.004   3.752  52.172  1.00  0.00     0.024 C 
HETATM    3  C8  UNL     1      23.951   3.370  52.993  1.00  0.00     0.086 C 
HETATM    4  N2  UNL     1      24.918   2.905  53.879  1.00  0.00    -0.373 N 
HETATM    5  C9  UNL     1      26.011   2.098  53.521  1.00  0.00     0.119 C 
HETATM    6  C10 UNL     1      27.069   1.452  53.084  1.00  0.00     0.073 C 
HETATM    7  N3  UNL     1      27.329   2.507  52.158  1.00  0.00    -0.241 NA
HETATM    8  C14 UNL     1      26.864   2.621  50.993  1.00  0.00     0.232 C 
HETATM    9  N4  UNL     1      26.483   3.005  49.634  1.00  0.00    -0.258 NA
HETATM   10  C15 UNL     1      25.271   3.517  49.413  1.00  0.00     0.099 C 
HETATM   11  C16 UNL     1      23.936   4.104  49.038  1.00  0.00     0.150 C 
HETATM   12  C17 UNL     1      22.824   4.388  49.818  1.00  0.00     0.081 C 
HETATM   13  H14 UNL     1      24.745   3.231  54.854  1.00  0.00     0.164 HD
ENDROOT
BRANCH   1  14
HETATM   14  O1  UNL     1      20.926   3.723  51.035  1.00  0.00    -0.378 OA
BRANCH  14  15
HETATM   15  C5  UNL     1      20.376   3.279  52.235  1.00  0.00     0.188 C 
BRANCH  15  16
HETATM   16  C4  UNL     1      19.731   1.936  52.104  1.00  0.00     0.147 C 
BRANCH  16  17
HETATM   17  N1  UNL     1      20.652   0.950  52.639  1.00  0.00    -0.396 N 
HETATM   18  C3  UNL     1      21.594   0.297  51.753  1.00  0.00     0.148 C 
BRANCH  17  19
HETATM   19  C2  UNL     1      20.826   0.461  53.959  1.00  0.00     0.058 C 
HETATM   20  C1  UNL     1      22.130   0.227  53.846  1.00  0.00     0.049 C 
ENDBRANCH  17  19
ENDBRANCH  16  17
ENDBRANCH  15  16
ENDBRANCH  14  15
ENDBRANCH   1  14
BRANCH  12  21
HETATM   21  O2  UNL     1      21.976   4.912  48.804  1.00  0.00    -0.387 OA
HETATM   22  C18 UNL     1      22.260   4.578  47.457  1.00  0.00     0.202 C 
ENDBRANCH  12  21
BRANCH   6  23
HETATM   23  C11 UNL     1      27.862   0.243  53.242  1.00  0.00     0.030 C 
HETATM   24  C12 UNL     1      29.143   0.309  53.547  1.00  0.00    -0.009 C 
BRANCH  24  25
HETATM   25  C13 UNL     1      29.929  -0.944  53.701  1.00  0.00     0.142 C 
HETATM   26 CL1  UNL     1      28.968  -2.284  53.057  1.00  0.00    -0.126 Cl
ENDBRANCH  24  25
ENDBRANCH   6  23
TORSDOF 8
ENDMDL
MODEL 3
REMARK VINA RESULT:      -6.7      3.616      6.559
REMARK  8 active torsions:
REMARK  status: ('A' for Active; 'I' for Inactive)
REMARK    1  A    between atoms: C2_2  and  N1_3 
REMARK    2  A    between atoms: N1_3  and  C4_5 
REMARK    3  A    between atoms: C4_5  and  C5_6 
REMARK    4  A    between atoms: C5_6  and  O1_7 
REMARK    5  A    between atoms: O1_7  and  C6_8 
REMARK    6  A    between atoms: C10_13  and  C11_14 
REMARK    7  A    between atoms: C12_15  and  C13_16 
REMARK    8  A    between atoms: C17_23  and  O2_24 
ROOT
HETATM    1  C6  UNL     1      24.942   0.240  53.488  1.00  0.00     0.175 C 
HETATM    2  C7  UNL     1      25.213   1.388  52.575  1.00  0.00     0.024 C 
HETATM    3  C8  UNL     1      25.342   2.531  51.950  1.00  0.00     0.086 C 
HETATM    4  N2  UNL     1      25.513   3.711  51.231  1.00  0.00    -0.373 N 
HETATM    5  C9  UNL     1      24.586   4.229  50.311  1.00  0.00     0.119 C 
HETATM    6  C10 UNL     1      23.616   4.707  49.562  1.00  0.00     0.073 C 
HETATM    7  N3  UNL     1      22.718   4.613  50.669  1.00  0.00    -0.241 NA
HETATM    8  C14 UNL     1      22.029   3.611  50.998  1.00  0.00     0.232 C 
HETATM    9  N4  UNL     1      21.135   2.623  51.602  1.00  0.00    -0.258 NA
HETATM   10  C15 UNL     1      21.652   1.627  52.324  1.00  0.00     0.099 C 
HETATM   11  C16 UNL     1      22.112   0.461  53.157  1.00  0.00     0.150 C 
HETATM   12  C17 UNL     1      23.390   0.058  53.517  1.00  0.00     0.081 C 
HETATM   13  H14 UNL     1      26.415   4.181  51.457  1.00  0.00     0.164 HD
ENDROOT
BRANCH   1  14
HETATM   14  O1  UNL     1      25.467  -0.925  53.018  1.00  0.00    -0.378 OA
BRANCH  14  15
HETATM   15  C5  UNL     1      26.705  -0.764  52.401  1.00  0.00     0.188 C 
BRANCH  15  16
HETATM   16  C4  UNL     1      27.766  -1.613  53.024  1.00  0.00     0.147 C 
BRANCH  16  17
HETATM   17  N1  UNL     1      28.647  -0.737  53.776  1.00  0.00    -0.396 N 
HETATM   18  C3  UNL     1      30.064  -0.719  53.475  1.00  0.00     0.148 C 
BRANCH  17  19
HETATM   19  C2  UNL     1      28.373   0.174  54.829  1.00  0.00     0.058 C 
HETATM   20  C1  UNL     1      29.126   1.161  54.351  1.00  0.00     0.049 C 
ENDBRANCH  17  19
ENDBRANCH  16  17
ENDBRANCH  15  16
ENDBRANCH  14  15
ENDBRANCH   1  14
BRANCH  12  21
HETATM   21  O2  UNL     1      23.048  -1.085  54.291  1.00  0.00    -0.387 OA
HETATM   22  C18 UNL     1      21.678  -1.423  54.413  1.00  0.00     0.202 C 
ENDBRANCH  12  21
BRANCH   6  23
HETATM   23  C11 UNL     1      23.280   5.191  48.233  1.00  0.00     0.030 C 
HETATM   24  C12 UNL     1      22.263   4.684  47.565  1.00  0.00    -0.009 C 
BRANCH  24  25
HETATM   25  C13 UNL     1      21.945   5.198  46.207  1.00  0.00     0.142 C 
HETATM   26 CL1  UNL     1      21.759   3.815  45.118  1.00  0.00    -0.126 Cl
ENDBRANCH  24  25
ENDBRANCH   6  23
TORSDOF 8
ENDMDL
MODEL 4
REMARK VINA RESULT:      -6.6      3.877      8.282
REMARK  8 active torsions:
REMARK  status: ('A' for Active; 'I' for Inactive)
REMARK    1  A    between atoms: C2_2  and  N1_3 
REMARK    2  A    between atoms: N1_3  and  C4_5 
REMARK    3  A    between atoms: C4_5  and  C5_6 
REMARK    4  A    between atoms: C5_6  and  O1_7 
REMARK    5  A    between atoms: O1_7  and  C6_8 
REMARK    6  A    between atoms: C10_13  and  C11_14 
REMARK    7  A    between atoms: C12_15  and  C13_16 
REMARK    8  A    between atoms: C17_23  and  O2_24 
ROOT
HETATM    1  C6  UNL     1      22.794   0.238  52.697  1.00  0.00     0.175 C 
HETATM    2  C7  UNL     1      22.897   1.293  51.648  1.00  0.00     0.024 C 
HETATM    3  C8  UNL     1      23.123   2.052  50.605  1.00  0.00     0.086 C 
HETATM    4  N2  UNL     1      23.323   2.911  49.528  1.00  0.00    -0.373 N 
HETATM    5  C9  UNL     1      24.393   3.814  49.412  1.00  0.00     0.119 C 
HETATM    6  C10 UNL     1      25.487   4.539  49.324  1.00  0.00     0.073 C 
HETATM    7  N3  UNL     1      26.278   3.367  49.521  1.00  0.00    -0.241 NA
HETATM    8  C14 UNL     1      26.640   2.877  50.624  1.00  0.00     0.232 C 
HETATM    9  N4  UNL     1      27.191   2.101  51.734  1.00  0.00    -0.258 NA
HETATM   10  C15 UNL     1      26.385   1.310  52.445  1.00  0.00     0.099 C 
HETATM   11  C16 UNL     1      25.579   0.385  53.318  1.00  0.00     0.150 C 
HETATM   12  C17 UNL     1      24.227   0.076  53.300  1.00  0.00     0.081 C 
HETATM   13  H14 UNL     1      22.585   2.806  48.800  1.00  0.00     0.164 HD
ENDROOT
BRANCH   1  14
HETATM   14  O1  UNL     1      21.976   0.610  53.721  1.00  0.00    -0.378 OA
BRANCH  14  15
HETATM   15  C5  UNL     1      20.667   0.862  53.318  1.00  0.00     0.188 C 
BRANCH  15  16
HETATM   16  C4  UNL     1      19.799  -0.351  53.414  1.00  0.00     0.147 C 
BRANCH  16  17
HETATM   17  N1  UNL     1      18.851  -0.303  52.315  1.00  0.00    -0.396 N 
HETATM   18  C3  UNL     1      19.134   0.531  51.164  1.00  0.00     0.148 C 
BRANCH  17  19
HETATM   19  C2  UNL     1      17.609  -0.961  52.130  1.00  0.00     0.058 C 
HETATM   20  C1  UNL     1      17.583  -1.540  53.327  1.00  0.00     0.049 C 
ENDBRANCH  17  19
ENDBRANCH  16  17
ENDBRANCH  15  16
ENDBRANCH  14  15
ENDBRANCH   1  14
BRANCH  12  21
HETATM   21  O2  UNL     1      24.199  -0.845  54.382  1.00  0.00    -0.387 OA
HETATM   22  C18 UNL     1      25.261  -0.806  55.319  1.00  0.00     0.202 C 
ENDBRANCH  12  21
BRANCH   6  23
HETATM   23  C11 UNL     1      25.997   5.887  49.130  1.00  0.00     0.030 C 
HETATM   24  C12 UNL     1      27.172   6.092  48.569  1.00  0.00    -0.009 C 
BRANCH  24  25
HETATM   25  C13 UNL     1      27.667   7.482  48.384  1.00  0.00     0.142 C 
HETATM   26 CL1  UNL     1      27.092   8.461  49.742  1.00  0.00    -0.126 Cl
ENDBRANCH  24  25
ENDBRANCH   6  23
TORSDOF 8
ENDMDL
MODEL 5
REMARK VINA RESULT:      -6.6      4.219      6.793
REMARK  8 active torsions:
REMARK  status: ('A' for Active; 'I' for Inactive)
REMARK    1  A    between atoms: C2_2  and  N1_3 
REMARK    2  A    between atoms: N1_3  and  C4_5 
REMARK    3  A    between atoms: C4_5  and  C5_6 
REMARK    4  A    between atoms: C5_6  and  O1_7 
REMARK    5  A    between atoms: O1_7  and  C6_8 
REMARK    6  A    between atoms: C10_13  and  C11_14 
REMARK    7  A    between atoms: C12_15  and  C13_16 
REMARK    8  A    between atoms: C17_23  and  O2_24 
ROOT
HETATM    1  C6  UNL     1      24.060   0.450  53.548  1.00  0.00     0.175 C 
HETATM    2  C7  UNL     1      24.239   1.839  53.034  1.00  0.00     0.024 C 
HETATM    3  C8  UNL     1      24.256   3.123  52.776  1.00  0.00     0.086 C 
HETATM    4  N2  UNL     1      24.316   4.473  52.444  1.00  0.00    -0.373 N 
HETATM    5  C9  UNL     1      23.402   5.133  51.606  1.00  0.00     0.119 C 
HETATM    6  C10 UNL     1      22.437   5.700  50.915  1.00  0.00     0.073 C 
HETATM    7  N3  UNL     1      21.476   5.184  51.836  1.00  0.00    -0.241 NA
HETATM    8  C14 UNL     1      20.911   4.060  51.786  1.00  0.00     0.232 C 
HETATM    9  N4  UNL     1      20.119   2.845  51.978  1.00  0.00    -0.258 NA
HETATM   10  C15 UNL     1      20.711   1.744  52.444  1.00  0.00     0.099 C 
HETATM   11  C16 UNL     1      21.262   0.443  52.963  1.00  0.00     0.150 C 
HETATM   12  C17 UNL     1      22.552   0.096  53.341  1.00  0.00     0.081 C 
HETATM   13  H14 UNL     1      25.122   4.953  52.898  1.00  0.00     0.164 HD
ENDROOT
BRANCH   1  14
HETATM   14  O1  UNL     1      24.779  -0.459  52.832  1.00  0.00    -0.378 OA
BRANCH  14  15
HETATM   15  C5  UNL     1      25.973  -0.825  53.448  1.00  0.00     0.188 C 
BRANCH  15  16
HETATM   16  C4  UNL     1      27.169  -0.488  52.616  1.00  0.00     0.147 C 
BRANCH  16  17
HETATM   17  N1  UNL     1      28.051   0.333  53.426  1.00  0.00    -0.396 N 
HETATM   18  C3  UNL     1      27.979   1.776  53.324  1.00  0.00     0.148 C 
BRANCH  17  19
HETATM   19  C2  UNL     1      29.048  -0.027  54.370  1.00  0.00     0.058 C 
HETATM   20  C1  UNL     1      29.646  -0.928  53.597  1.00  0.00     0.049 C 
ENDBRANCH  17  19
ENDBRANCH  16  17
ENDBRANCH  15  16
ENDBRANCH  14  15
ENDBRANCH   1  14
BRANCH  12  21
HETATM   21  O2  UNL     1      22.313  -1.255  53.715  1.00  0.00    -0.387 OA
HETATM   22  C18 UNL     1      21.084  -1.565  54.348  1.00  0.00     0.202 C 
ENDBRANCH  12  21
BRANCH   6  23
HETATM   23  C11 UNL     1      22.144   6.514  49.746  1.00  0.00     0.030 C 
HETATM   24  C12 UNL     1      21.528   7.674  49.866  1.00  0.00    -0.009 C 
BRANCH  24  25
HETATM   25  C13 UNL     1      21.241   8.483  48.652  1.00  0.00     0.142 C 
HETATM   26 CL1  UNL     1      21.007  10.166  49.149  1.00  0.00    -0.126 Cl
ENDBRANCH  24  25
ENDBRANCH   6  23
TORSDOF 8
ENDMDL
MODEL 6
REMARK VINA RESULT:      -6.3      4.216      6.839
REMARK  8 active torsions:
REMARK  status: ('A' for Active; 'I' for Inactive)
REMARK    1  A    between atoms: C2_2  and  N1_3 
REMARK    2  A    between atoms: N1_3  and  C4_5 
REMARK    3  A    between atoms: C4_5  and  C5_6 
REMARK    4  A    between atoms: C5_6  and  O1_7 
REMARK    5  A    between atoms: O1_7  and  C6_8 
REMARK    6  A    between atoms: C10_13  and  C11_14 
REMARK    7  A    between atoms: C12_15  and  C13_16 
REMARK    8  A    between atoms: C17_23  and  O2_24 
ROOT
HETATM    1  C6  UNL     1      19.929   1.797  51.910  1.00  0.00     0.175 C 
HETATM    2  C7  UNL     1      20.989   0.817  52.284  1.00  0.00     0.024 C 
HETATM    3  C8  UNL     1      21.916   0.072  52.831  1.00  0.00     0.086 C 
HETATM    4  N2  UNL     1      22.906  -0.758  53.351  1.00  0.00    -0.373 N 
HETATM    5  C9  UNL     1      24.286  -0.505  53.271  1.00  0.00     0.119 C 
HETATM    6  C10 UNL     1      25.548  -0.134  53.263  1.00  0.00     0.073 C 
HETATM    7  N3  UNL     1      25.187   1.101  53.882  1.00  0.00    -0.241 NA
HETATM    8  C14 UNL     1      24.826   2.160  53.302  1.00  0.00     0.232 C 
HETATM    9  N4  UNL     1      24.385   3.497  52.905  1.00  0.00    -0.258 NA
HETATM   10  C15 UNL     1      23.126   3.678  52.502  1.00  0.00     0.099 C 
HETATM   11  C16 UNL     1      21.735   4.009  52.030  1.00  0.00     0.150 C 
HETATM   12  C17 UNL     1      20.624   3.196  51.855  1.00  0.00     0.081 C 
HETATM   13  H14 UNL     1      22.507  -1.598  53.819  1.00  0.00     0.164 HD
ENDROOT
BRANCH   1  14
HETATM   14  O1  UNL     1      19.424   1.560  50.668  1.00  0.00    -0.378 OA
BRANCH  14  15
HETATM   15  C5  UNL     1      20.401   1.241  49.727  1.00  0.00     0.188 C 
BRANCH  15  16
HETATM   16  C4  UNL     1      20.261   2.038  48.470  1.00  0.00     0.147 C 
BRANCH  16  17
HETATM   17  N1  UNL     1      21.577   2.538  48.116  1.00  0.00    -0.396 N 
HETATM   18  C3  UNL     1      21.760   3.244  46.864  1.00  0.00     0.148 C 
BRANCH  17  19
HETATM   19  C2  UNL     1      22.814   2.467  48.806  1.00  0.00     0.058 C 
HETATM   20  C1  UNL     1      23.144   3.742  48.625  1.00  0.00     0.049 C 
ENDBRANCH  17  19
ENDBRANCH  16  17
ENDBRANCH  15  16
ENDBRANCH  14  15
ENDBRANCH   1  14
BRANCH  12  21
HETATM   21  O2  UNL     1      19.702   4.181  51.406  1.00  0.00    -0.387 OA
HETATM   22  C18 UNL     1      20.137   5.103  50.422  1.00  0.00     0.202 C 
ENDBRANCH  12  21
BRANCH   6  23
HETATM   23  C11 UNL     1      26.893  -0.535  52.885  1.00  0.00     0.030 C 
HETATM   24  C12 UNL     1      27.899  -0.409  53.729  1.00  0.00    -0.009 C 
BRANCH  24  25
HETATM   25  C13 UNL     1      29.264  -0.827  53.314  1.00  0.00     0.142 C 
HETATM   26 CL1  UNL     1      29.316  -2.596  53.277  1.00  0.00    -0.126 Cl
ENDBRANCH  24  25
ENDBRANCH   6  23
TORSDOF 8
ENDMDL
MODEL 7
REMARK VINA RESULT:      -6.2      3.905      6.466
REMARK  8 active torsions:
REMARK  status: ('A' for Active; 'I' for Inactive)
REMARK    1  A    between atoms: C2_2  and  N1_3 
REMARK    2  A    between atoms: N1_3  and  C4_5 
REMARK    3  A    between atoms: C4_5  and  C5_6 
REMARK    4  A    between atoms: C5_6  and  O1_7 
REMARK    5  A    between atoms: O1_7  and  C6_8 
REMARK    6  A    between atoms: C10_13  and  C11_14 
REMARK    7  A    between atoms: C12_15  and  C13_16 
REMARK    8  A    between atoms: C17_23  and  O2_24 
ROOT
HETATM    1  C6  UNL     1      25.723   7.531  49.328  1.00  0.00     0.175 C 
HETATM    2  C7  UNL     1      24.879   6.811  50.325  1.00  0.00     0.024 C 
HETATM    3  C8  UNL     1      24.350   6.159  51.330  1.00  0.00     0.086 C 
HETATM    4  N2  UNL     1      23.721   5.470  52.364  1.00  0.00    -0.373 N 
HETATM    5  C9  UNL     1      23.589   4.073  52.431  1.00  0.00     0.119 C 
HETATM    6  C10 UNL     1      23.617   2.759  52.478  1.00  0.00     0.073 C 
HETATM    7  N3  UNL     1      25.037   2.785  52.333  1.00  0.00    -0.241 NA
HETATM    8  C14 UNL     1      25.685   2.804  51.253  1.00  0.00     0.232 C 
HETATM    9  N4  UNL     1      26.677   2.830  50.177  1.00  0.00    -0.258 NA
HETATM   10  C15 UNL     1      26.889   3.965  49.509  1.00  0.00     0.099 C 
HETATM   11  C16 UNL     1      27.218   5.181  48.685  1.00  0.00     0.150 C 
HETATM   12  C17 UNL     1      26.697   6.467  48.726  1.00  0.00     0.081 C 
HETATM   13  H14 UNL     1      23.360   6.113  53.100  1.00  0.00     0.164 HD
ENDROOT
BRANCH   1  14
HETATM   14  O1  UNL     1      24.987   8.022  48.292  1.00  0.00    -0.378 OA
BRANCH  14  15
HETATM   15  C5  UNL     1      24.076   7.102  47.778  1.00  0.00     0.188 C 
BRANCH  15  16
HETATM   16  C4  UNL     1      22.790   7.745  47.367  1.00  0.00     0.147 C 
BRANCH  16  17
HETATM   17  N1  UNL     1      21.867   7.637  48.482  1.00  0.00    -0.396 N 
HETATM   18  C3  UNL     1      21.301   6.347  48.819  1.00  0.00     0.148 C 
BRANCH  17  19
HETATM   19  C2  UNL     1      21.372   8.621  49.376  1.00  0.00     0.058 C 
HETATM   20  C1  UNL     1      21.238   7.804  50.416  1.00  0.00     0.049 C 
ENDBRANCH  17  19
ENDBRANCH  16  17
ENDBRANCH  15  16
ENDBRANCH  14  15
ENDBRANCH   1  14
BRANCH  12  21
HETATM   21  O2  UNL     1      27.475   7.050  47.688  1.00  0.00    -0.387 OA
HETATM   22  C18 UNL     1      28.861   6.760  47.650  1.00  0.00     0.202 C 
ENDBRANCH  12  21
BRANCH   6  23
HETATM   23  C11 UNL     1      22.797   1.565  52.606  1.00  0.00     0.030 C 
HETATM   24  C12 UNL     1      23.256   0.491  53.217  1.00  0.00    -0.009 C 
BRANCH  24  25
HETATM   25  C13 UNL     1      22.394  -0.716  53.330  1.00  0.00     0.142 C 
HETATM   26 CL1  UNL     1      22.213  -1.109  55.046  1.00  0.00    -0.126 Cl
ENDBRANCH  24  25
ENDBRANCH   6  23
TORSDOF 8
ENDMDL
MODEL 8
REMARK VINA RESULT:      -6.2      5.523      8.213
REMARK  8 active torsions:
REMARK  status: ('A' for Active; 'I' for Inactive)
REMARK    1  A    between atoms: C2_2  and  N1_3 
REMARK    2  A    between atoms: N1_3  and  C4_5 
REMARK    3  A    between atoms: C4_5  and  C5_6 
REMARK    4  A    between atoms: C5_6  and  O1_7 
REMARK    5  A    between atoms: O1_7  and  C6_8 
REMARK    6  A    between atoms: C10_13  and  C11_14 
REMARK    7  A    between atoms: C12_15  and  C13_16 
REMARK    8  A    between atoms: C17_23  and  O2_24 
ROOT
HETATM    1  C6  UNL     1      27.366   8.184  48.600  1.00  0.00     0.175 C 
HETATM    2  C7  UNL     1      27.404   6.704  48.783  1.00  0.00     0.024 C 
HETATM    3  C8  UNL     1      27.225   5.407  48.816  1.00  0.00     0.086 C 
HETATM    4  N2  UNL     1      27.098   4.023  48.889  1.00  0.00    -0.373 N 
HETATM    5  C9  UNL     1      26.431   3.333  49.915  1.00  0.00     0.119 C 
HETATM    6  C10 UNL     1      25.685   2.773  50.843  1.00  0.00     0.073 C 
HETATM    7  N3  UNL     1      24.596   3.620  50.475  1.00  0.00    -0.241 NA
HETATM    8  C14 UNL     1      24.355   4.775  50.917  1.00  0.00     0.232 C 
HETATM    9  N4  UNL     1      23.842   6.105  51.244  1.00  0.00    -0.258 NA
HETATM   10  C15 UNL     1      24.454   7.183  50.750  1.00  0.00     0.099 C 
HETATM   11  C16 UNL     1      25.054   8.472  50.255  1.00  0.00     0.150 C 
HETATM   12  C17 UNL     1      26.158   8.701  49.446  1.00  0.00     0.081 C 
HETATM   13  H14 UNL     1      27.553   3.545  48.083  1.00  0.00     0.164 HD
ENDROOT
BRANCH   1  14
HETATM   14  O1  UNL     1      28.481   8.791  49.092  1.00  0.00    -0.378 OA
BRANCH  14  15
HETATM   15  C5  UNL     1      29.371   9.199  48.102  1.00  0.00     0.188 C 
BRANCH  15  16
HETATM   16  C4  UNL     1      30.788   8.860  48.436  1.00  0.00     0.147 C 
BRANCH  16  17
HETATM   17  N1  UNL     1      31.007   7.471  48.075  1.00  0.00    -0.396 N 
HETATM   18  C3  UNL     1      31.141   7.108  46.679  1.00  0.00     0.148 C 
BRANCH  17  19
HETATM   19  C2  UNL     1      31.123   6.309  48.881  1.00  0.00     0.058 C 
HETATM   20  C1  UNL     1      30.826   5.445  47.916  1.00  0.00     0.049 C 
ENDBRANCH  17  19
ENDBRANCH  16  17
ENDBRANCH  15  16
ENDBRANCH  14  15
ENDBRANCH   1  14
BRANCH  12  21
HETATM   21  O2  UNL     1      26.109  10.122  49.407  1.00  0.00    -0.387 OA
HETATM   22  C18 UNL     1      25.685  10.742  48.207  1.00  0.00     0.202 C 
ENDBRANCH  12  21
BRANCH   6  23
HETATM   23  C11 UNL     1      25.665   1.769  51.894  1.00  0.00     0.030 C 
HETATM   24  C12 UNL     1      26.504   0.753  51.875  1.00  0.00    -0.009 C 
BRANCH  24  25
HETATM   25  C13 UNL     1      26.458  -0.259  52.964  1.00  0.00     0.142 C 
HETATM   26 CL1  UNL     1      28.058  -1.005  53.097  1.00  0.00    -0.126 Cl
ENDBRANCH  24  25
ENDBRANCH   6  23
TORSDOF 8
ENDMDL
MODEL 9
REMARK VINA RESULT:      -6.1      1.529      2.176
REMARK  8 active torsions:
REMARK  status: ('A' for Active; 'I' for Inactive)
REMARK    1  A    between atoms: C2_2  and  N1_3 
REMARK    2  A    between atoms: N1_3  and  C4_5 
REMARK    3  A    between atoms: C4_5  and  C5_6 
REMARK    4  A    between atoms: C5_6  and  O1_7 
REMARK    5  A    between atoms: O1_7  and  C6_8 
REMARK    6  A    between atoms: C10_13  and  C11_14 
REMARK    7  A    between atoms: C12_15  and  C13_16 
REMARK    8  A    between atoms: C17_23  and  O2_24 
ROOT
HETATM    1  C6  UNL     1      24.886   3.111  51.674  1.00  0.00     0.175 C 
HETATM    2  C7  UNL     1      23.438   2.830  51.896  1.00  0.00     0.024 C 
HETATM    3  C8  UNL     1      22.221   2.619  52.329  1.00  0.00     0.086 C 
HETATM    4  N2  UNL     1      20.906   2.384  52.721  1.00  0.00    -0.373 N 
HETATM    5  C9  UNL     1      20.384   1.124  53.057  1.00  0.00     0.119 C 
HETATM    6  C10 UNL     1      20.008  -0.066  53.473  1.00  0.00     0.073 C 
HETATM    7  N3  UNL     1      21.094  -0.083  54.400  1.00  0.00    -0.241 NA
HETATM    8  C14 UNL     1      22.268  -0.482  54.181  1.00  0.00     0.232 C 
HETATM    9  N4  UNL     1      23.679  -0.869  54.210  1.00  0.00    -0.258 NA
HETATM   10  C15 UNL     1      24.585  -0.084  53.625  1.00  0.00     0.099 C 
HETATM   11  C16 UNL     1      25.699   0.715  53.003  1.00  0.00     0.150 C 
HETATM   12  C17 UNL     1      25.667   1.907  52.294  1.00  0.00     0.081 C 
HETATM   13  H14 UNL     1      20.342   3.259  52.746  1.00  0.00     0.164 HD
ENDROOT
BRANCH   1  14
HETATM   14  O1  UNL     1      25.206   3.148  50.351  1.00  0.00    -0.378 OA
BRANCH  14  15
HETATM   15  C5  UNL     1      25.663   4.393  49.928  1.00  0.00     0.188 C 
BRANCH  15  16
HETATM   16  C4  UNL     1      24.732   5.040  48.953  1.00  0.00     0.147 C 
BRANCH  16  17
HETATM   17  N1  UNL     1      23.665   5.666  49.712  1.00  0.00    -0.396 N 
HETATM   18  C3  UNL     1      22.289   5.301  49.444  1.00  0.00     0.148 C 
BRANCH  17  19
HETATM   19  C2  UNL     1      23.706   6.639  50.744  1.00  0.00     0.058 C 
HETATM   20  C1  UNL     1      22.391   6.830  50.802  1.00  0.00     0.049 C 
ENDBRANCH  17  19
ENDBRANCH  16  17
ENDBRANCH  15  16
ENDBRANCH  14  15
ENDBRANCH   1  14
BRANCH  12  21
HETATM   21  O2  UNL     1      27.059   2.045  52.038  1.00  0.00    -0.387 OA
HETATM   22  C18 UNL     1      27.947   2.017  53.141  1.00  0.00     0.202 C 
ENDBRANCH  12  21
BRANCH   6  23
HETATM   23  C11 UNL     1      19.026  -1.124  53.294  1.00  0.00     0.030 C 
HETATM   24  C12 UNL     1      17.794  -0.846  52.915  1.00  0.00    -0.009 C 
BRANCH  24  25
HETATM   25  C13 UNL     1      16.812  -1.949  52.741  1.00  0.00     0.142 C 
HETATM   26 CL1  UNL     1      17.417  -3.373  53.602  1.00  0.00    -0.126 Cl
ENDBRANCH  24  25
ENDBRANCH   6  23
TORSDOF 8
ENDMDL
