MODEL 1
REMARK VINA RESULT:      -8.5      0.000      0.000
REMARK  1 active torsions:
REMARK  status: ('A' for Active; 'I' for Inactive)
REMARK    1  A    between atoms: C11_15  and  C12_16 
ROOT
HETATM    1  C1  UNL     1      19.662   2.766  49.052  1.00  0.00     0.044 C 
HETATM    2  C2  UNL     1      20.295   2.750  50.394  1.00  0.00    -0.070 C 
HETATM    3  C3  UNL     1      21.464   3.241  50.892  1.00  0.00    -0.017 C 
HETATM    4  C4  UNL     1      22.113   3.244  52.229  1.00  0.00     0.083 C 
HETATM    5  C5  UNL     1      23.231   2.261  52.341  1.00  0.00     0.038 C 
HETATM    6  N1  UNL     1      23.224   1.528  53.400  1.00  0.00    -0.184 NA
HETATM    7  N2  UNL     1      23.672   0.249  53.082  1.00  0.00    -0.286 N 
HETATM    8  C6  UNL     1      23.125  -0.883  53.850  1.00  0.00     0.223 C 
HETATM    9  S1  UNL     1      21.525  -0.396  54.511  1.00  0.00    -0.118 SA
HETATM   10  C7  UNL     1      20.310  -0.194  53.246  1.00  0.00     0.071 C 
HETATM   11  C8  UNL     1      19.296  -0.097  52.332  1.00  0.00     0.007 C 
HETATM   12  C9  UNL     1      18.275  -0.845  53.080  1.00  0.00     0.068 C 
HETATM   13  N3  UNL     1      19.478   0.604  51.064  1.00  0.00    -0.389 N 
HETATM   14  C10 UNL     1      19.604   2.004  51.466  1.00  0.00     0.153 C 
HETATM   15  C11 UNL     1      24.647   0.440  51.991  1.00  0.00     0.143 C 
HETATM   16  C19 UNL     1      24.418   1.836  51.563  1.00  0.00     0.088 C 
HETATM   17  H13 UNL     1      19.389  -0.383  50.764  1.00  0.00     0.159 HD
ENDROOT
BRANCH  15  18
HETATM   18  C12 UNL     1      26.007   0.111  52.455  1.00  0.00    -0.033 A 
HETATM   19  C13 UNL     1      26.829   1.178  52.768  1.00  0.00     0.010 A 
HETATM   20  C14 UNL     1      28.140   0.988  53.192  1.00  0.00     0.007 A 
HETATM   21  C15 UNL     1      28.686  -0.271  53.320  1.00  0.00    -0.062 A 
HETATM   22  C16 UNL     1      30.074  -0.543  53.759  1.00  0.00     0.048 C 
HETATM   23  C17 UNL     1      27.889  -1.355  53.015  1.00  0.00     0.007 A 
HETATM   24  C18 UNL     1      26.600  -1.119  52.601  1.00  0.00     0.010 A 
ENDBRANCH  15  18
TORSDOF 1
ENDMDL
MODEL 2
REMARK VINA RESULT:      -8.4      3.728      5.055
REMARK  1 active torsions:
REMARK  status: ('A' for Active; 'I' for Inactive)
REMARK    1  A    between atoms: C11_15  and  C12_16 
ROOT
HETATM    1  C1  UNL     1      19.237   1.111  50.954  1.00  0.00     0.044 C 
HETATM    2  C2  UNL     1      20.259   1.966  51.605  1.00  0.00    -0.070 C 
HETATM    3  C3  UNL     1      20.709   3.234  51.386  1.00  0.00    -0.017 C 
HETATM    4  C4  UNL     1      21.723   4.111  52.027  1.00  0.00     0.083 C 
HETATM    5  C5  UNL     1      22.986   4.221  51.239  1.00  0.00     0.038 C 
HETATM    6  N1  UNL     1      24.076   4.077  51.911  1.00  0.00    -0.184 NA
HETATM    7  N2  UNL     1      25.014   3.403  51.135  1.00  0.00    -0.286 N 
HETATM    8  C6  UNL     1      25.985   2.537  51.826  1.00  0.00     0.223 C 
HETATM    9  S1  UNL     1      25.273   2.034  53.399  1.00  0.00    -0.118 SA
HETATM   10  C7  UNL     1      23.897   0.947  53.196  1.00  0.00     0.071 C 
HETATM   11  C8  UNL     1      22.876   0.039  53.121  1.00  0.00     0.007 C 
HETATM   12  C9  UNL     1      23.349  -0.886  54.162  1.00  0.00     0.068 C 
HETATM   13  N3  UNL     1      21.775   0.206  52.177  1.00  0.00    -0.389 N 
HETATM   14  C10 UNL     1      21.056   1.369  52.696  1.00  0.00     0.153 C 
HETATM   15  C11 UNL     1      24.729   3.807  49.745  1.00  0.00     0.143 C 
HETATM   16  C19 UNL     1      23.404   4.454  49.837  1.00  0.00     0.088 C 
HETATM   17  H13 UNL     1      22.273  -0.618  51.797  1.00  0.00     0.159 HD
ENDROOT
BRANCH  15  18
HETATM   18  C12 UNL     1      25.828   4.636  49.216  1.00  0.00    -0.033 A 
HETATM   19  C13 UNL     1      25.506   5.928  48.846  1.00  0.00     0.010 A 
HETATM   20  C14 UNL     1      26.457   6.792  48.312  1.00  0.00     0.007 A 
HETATM   21  C15 UNL     1      27.765   6.404  48.123  1.00  0.00    -0.062 A 
HETATM   22  C16 UNL     1      28.823   7.269  47.555  1.00  0.00     0.048 C 
HETATM   23  C17 UNL     1      28.117   5.119  48.484  1.00  0.00     0.007 A 
HETATM   24  C18 UNL     1      27.144   4.302  49.008  1.00  0.00     0.010 A 
ENDBRANCH  15  18
TORSDOF 1
ENDMDL
MODEL 3
REMARK VINA RESULT:      -7.7      4.119      5.659
REMARK  1 active torsions:
REMARK  status: ('A' for Active; 'I' for Inactive)
REMARK    1  A    between atoms: C11_15  and  C12_16 
ROOT
HETATM    1  C1  UNL     1      20.147   0.025  53.057  1.00  0.00     0.044 C 
HETATM    2  C2  UNL     1      20.401   0.568  51.700  1.00  0.00    -0.070 C 
HETATM    3  C3  UNL     1      21.447   0.484  50.830  1.00  0.00    -0.017 C 
HETATM    4  C4  UNL     1      21.720   1.012  49.468  1.00  0.00     0.083 C 
HETATM    5  C5  UNL     1      22.655   2.177  49.467  1.00  0.00     0.038 C 
HETATM    6  N1  UNL     1      22.290   3.181  48.747  1.00  0.00    -0.184 NA
HETATM    7  N2  UNL     1      22.662   4.364  49.382  1.00  0.00    -0.286 N 
HETATM    8  C6  UNL     1      21.812   5.550  49.180  1.00  0.00     0.223 C 
HETATM    9  S1  UNL     1      20.158   4.991  48.744  1.00  0.00    -0.118 SA
HETATM   10  C7  UNL     1      19.346   4.187  50.089  1.00  0.00     0.071 C 
HETATM   11  C8  UNL     1      18.623   3.625  51.106  1.00  0.00     0.007 C 
HETATM   12  C9  UNL     1      17.365   4.356  50.890  1.00  0.00     0.068 C 
HETATM   13  N3  UNL     1      19.205   2.620  51.990  1.00  0.00    -0.389 N 
HETATM   14  C10 UNL     1      19.377   1.459  51.117  1.00  0.00     0.153 C 
HETATM   15  C11 UNL     1      23.902   4.039  50.111  1.00  0.00     0.143 C 
HETATM   16  C19 UNL     1      23.949   2.562  50.075  1.00  0.00     0.088 C 
HETATM   17  H13 UNL     1      19.090   3.433  52.621  1.00  0.00     0.159 HD
ENDROOT
BRANCH  15  18
HETATM   18  C12 UNL     1      25.050   4.746  49.513  1.00  0.00    -0.033 A 
HETATM   19  C13 UNL     1      26.223   4.027  49.386  1.00  0.00     0.010 A 
HETATM   20  C14 UNL     1      27.376   4.598  48.858  1.00  0.00     0.007 A 
HETATM   21  C15 UNL     1      27.408   5.910  48.438  1.00  0.00    -0.062 A 
HETATM   22  C16 UNL     1      28.601   6.581  47.874  1.00  0.00     0.048 C 
HETATM   23  C17 UNL     1      26.251   6.654  48.551  1.00  0.00     0.007 A 
HETATM   24  C18 UNL     1      25.136   6.046  49.078  1.00  0.00     0.010 A 
ENDBRANCH  15  18
TORSDOF 1
ENDMDL
MODEL 4
REMARK VINA RESULT:      -7.5      2.332      3.006
REMARK  1 active torsions:
REMARK  status: ('A' for Active; 'I' for Inactive)
REMARK    1  A    between atoms: C11_15  and  C12_16 
ROOT
HETATM    1  C1  UNL     1      22.387   5.680  46.824  1.00  0.00     0.044 C 
HETATM    2  C2  UNL     1      22.527   5.495  48.289  1.00  0.00    -0.070 C 
HETATM    3  C3  UNL     1      23.562   5.639  49.164  1.00  0.00    -0.017 C 
HETATM    4  C4  UNL     1      23.723   5.466  50.631  1.00  0.00     0.083 C 
HETATM    5  C5  UNL     1      24.438   4.208  50.999  1.00  0.00     0.038 C 
HETATM    6  N1  UNL     1      23.895   3.514  51.939  1.00  0.00    -0.184 NA
HETATM    7  N2  UNL     1      24.059   2.158  51.667  1.00  0.00    -0.286 N 
HETATM    8  C6  UNL     1      23.012   1.232  52.129  1.00  0.00     0.223 C 
HETATM    9  S1  UNL     1      21.478   2.155  52.302  1.00  0.00    -0.118 SA
HETATM   10  C7  UNL     1      20.834   2.683  50.745  1.00  0.00     0.071 C 
HETATM   11  C8  UNL     1      20.233   3.057  49.575  1.00  0.00     0.007 C 
HETATM   12  C9  UNL     1      18.863   2.633  49.904  1.00  0.00     0.068 C 
HETATM   13  N3  UNL     1      20.992   3.671  48.489  1.00  0.00    -0.389 N 
HETATM   14  C10 UNL     1      21.356   4.981  49.028  1.00  0.00     0.153 C 
HETATM   15  C11 UNL     1      25.345   2.060  50.952  1.00  0.00     0.143 C 
HETATM   16  C19 UNL     1      25.651   3.461  50.593  1.00  0.00     0.088 C 
HETATM   17  H13 UNL     1      20.743   2.747  48.094  1.00  0.00     0.159 HD
ENDROOT
BRANCH  15  18
HETATM   18  C12 UNL     1      26.344   1.363  51.783  1.00  0.00    -0.033 A 
HETATM   19  C13 UNL     1      27.291   2.154  52.406  1.00  0.00     0.010 A 
HETATM   20  C14 UNL     1      28.296   1.604  53.195  1.00  0.00     0.007 A 
HETATM   21  C15 UNL     1      28.399   0.244  53.394  1.00  0.00    -0.062 A 
HETATM   22  C16 UNL     1      29.445  -0.406  54.215  1.00  0.00     0.048 C 
HETATM   23  C17 UNL     1      27.466  -0.571  52.786  1.00  0.00     0.007 A 
HETATM   24  C18 UNL     1      26.492   0.017  52.016  1.00  0.00     0.010 A 
ENDBRANCH  15  18
TORSDOF 1
ENDMDL
MODEL 5
REMARK VINA RESULT:      -7.5      2.355      4.175
REMARK  1 active torsions:
REMARK  status: ('A' for Active; 'I' for Inactive)
REMARK    1  A    between atoms: C11_15  and  C12_16 
ROOT
HETATM    1  C1  UNL     1      16.195   2.931  51.519  1.00  0.00     0.044 C 
HETATM    2  C2  UNL     1      17.260   1.989  51.094  1.00  0.00    -0.070 C 
HETATM    3  C3  UNL     1      18.010   1.056  51.744  1.00  0.00    -0.017 C 
HETATM    4  C4  UNL     1      19.073   0.100  51.339  1.00  0.00     0.083 C 
HETATM    5  C5  UNL     1      20.442   0.538  51.743  1.00  0.00     0.038 C 
HETATM    6  N1  UNL     1      21.345   0.455  50.828  1.00  0.00    -0.184 NA
HETATM    7  N2  UNL     1      22.226   1.527  50.948  1.00  0.00    -0.286 N 
HETATM    8  C6  UNL     1      22.851   2.044  49.719  1.00  0.00     0.223 C 
HETATM    9  S1  UNL     1      21.795   1.621  48.327  1.00  0.00    -0.118 SA
HETATM   10  C7  UNL     1      20.265   2.501  48.353  1.00  0.00     0.071 C 
HETATM   11  C8  UNL     1      19.095   3.204  48.262  1.00  0.00     0.007 C 
HETATM   12  C9  UNL     1      19.171   3.543  46.833  1.00  0.00     0.068 C 
HETATM   13  N3  UNL     1      18.230   3.399  49.422  1.00  0.00    -0.389 N 
HETATM   14  C10 UNL     1      17.712   2.058  49.689  1.00  0.00     0.153 C 
HETATM   15  C11 UNL     1      22.272   1.831  52.391  1.00  0.00     0.143 C 
HETATM   16  C19 UNL     1      21.127   1.076  52.942  1.00  0.00     0.088 C 
HETATM   17  H13 UNL     1      18.589   4.354  49.246  1.00  0.00     0.159 HD
ENDROOT
BRANCH  15  18
HETATM   18  C12 UNL     1      23.600   1.503  52.942  1.00  0.00    -0.033 A 
HETATM   19  C13 UNL     1      23.806   0.190  53.321  1.00  0.00     0.010 A 
HETATM   20  C14 UNL     1      25.011  -0.229  53.875  1.00  0.00     0.007 A 
HETATM   21  C15 UNL     1      26.058   0.643  54.077  1.00  0.00    -0.062 A 
HETATM   22  C16 UNL     1      27.362   0.266  54.668  1.00  0.00     0.048 C 
HETATM   23  C17 UNL     1      25.882   1.961  53.708  1.00  0.00     0.007 A 
HETATM   24  C18 UNL     1      24.675   2.328  53.163  1.00  0.00     0.010 A 
ENDBRANCH  15  18
TORSDOF 1
ENDMDL
MODEL 6
REMARK VINA RESULT:      -7.4      4.092      6.559
REMARK  1 active torsions:
REMARK  status: ('A' for Active; 'I' for Inactive)
REMARK    1  A    between atoms: C11_15  and  C12_16 
ROOT
HETATM    1  C1  UNL     1      22.572   8.613  48.618  1.00  0.00     0.044 C 
HETATM    2  C2  UNL     1      22.924   7.194  48.365  1.00  0.00    -0.070 C 
HETATM    3  C3  UNL     1      22.234   6.022  48.443  1.00  0.00    -0.017 C 
HETATM    4  C4  UNL     1      22.563   4.595  48.189  1.00  0.00     0.083 C 
HETATM    5  C5  UNL     1      22.766   3.807  49.441  1.00  0.00     0.038 C 
HETATM    6  N1  UNL     1      23.813   3.056  49.462  1.00  0.00    -0.184 NA
HETATM    7  N2  UNL     1      24.352   3.048  50.745  1.00  0.00    -0.286 N 
HETATM    8  C6  UNL     1      25.810   2.892  50.879  1.00  0.00     0.223 C 
HETATM    9  S1  UNL     1      26.580   3.449  49.352  1.00  0.00    -0.118 SA
HETATM   10  C7  UNL     1      26.421   5.192  49.118  1.00  0.00     0.071 C 
HETATM   11  C8  UNL     1      26.409   6.544  48.908  1.00  0.00     0.007 C 
HETATM   12  C9  UNL     1      27.819   6.703  48.520  1.00  0.00     0.068 C 
HETATM   13  N3  UNL     1      25.197   7.334  49.100  1.00  0.00    -0.389 N 
HETATM   14  C10 UNL     1      24.327   6.891  48.012  1.00  0.00     0.153 C 
HETATM   15  C11 UNL     1      23.197   3.199  51.651  1.00  0.00     0.143 C 
HETATM   16  C19 UNL     1      22.100   3.611  50.749  1.00  0.00     0.088 C 
HETATM   17  H13 UNL     1      25.801   7.659  49.876  1.00  0.00     0.159 HD
ENDROOT
BRANCH  15  18
HETATM   18  C12 UNL     1      22.982   1.960  52.421  1.00  0.00    -0.033 A 
HETATM   19  C13 UNL     1      21.671   1.628  52.707  1.00  0.00     0.010 A 
HETATM   20  C14 UNL     1      21.351   0.495  53.447  1.00  0.00     0.007 A 
HETATM   21  C15 UNL     1      22.323  -0.352  53.934  1.00  0.00    -0.062 A 
HETATM   22  C16 UNL     1      22.052  -1.569  54.733  1.00  0.00     0.048 C 
HETATM   23  C17 UNL     1      23.641  -0.047  53.663  1.00  0.00     0.007 A 
HETATM   24  C18 UNL     1      23.909   1.082  52.928  1.00  0.00     0.010 A 
ENDBRANCH  15  18
TORSDOF 1
ENDMDL
MODEL 7
REMARK VINA RESULT:      -7.3      5.987      7.590
REMARK  1 active torsions:
REMARK  status: ('A' for Active; 'I' for Inactive)
REMARK    1  A    between atoms: C11_15  and  C12_16 
ROOT
HETATM    1  C1  UNL     1      26.585   8.621  44.948  1.00  0.00     0.044 C 
HETATM    2  C2  UNL     1      26.521   8.505  46.426  1.00  0.00    -0.070 C 
HETATM    3  C3  UNL     1      27.224   7.790  47.349  1.00  0.00    -0.017 C 
HETATM    4  C4  UNL     1      27.181   7.663  48.829  1.00  0.00     0.083 C 
HETATM    5  C5  UNL     1      26.540   6.397  49.292  1.00  0.00     0.038 C 
HETATM    6  N1  UNL     1      25.667   6.527  50.231  1.00  0.00    -0.184 NA
HETATM    7  N2  UNL     1      24.632   5.618  50.030  1.00  0.00    -0.286 N 
HETATM    8  C6  UNL     1      23.282   6.002  50.476  1.00  0.00     0.223 C 
HETATM    9  S1  UNL     1      23.193   7.798  50.523  1.00  0.00    -0.118 SA
HETATM   10  C7  UNL     1      23.261   8.516  48.911  1.00  0.00     0.071 C 
HETATM   11  C8  UNL     1      23.226   9.139  47.694  1.00  0.00     0.007 C 
HETATM   12  C9  UNL     1      22.113  10.060  47.968  1.00  0.00     0.068 C 
HETATM   13  N3  UNL     1      24.152   8.775  46.625  1.00  0.00    -0.389 N 
HETATM   14  C10 UNL     1      25.446   9.241  47.123  1.00  0.00     0.153 C 
HETATM   15  C11 UNL     1      25.263   4.448  49.391  1.00  0.00     0.143 C 
HETATM   16  C19 UNL     1      26.593   4.949  48.986  1.00  0.00     0.088 C 
HETATM   17  H13 UNL     1      23.243   8.440  46.259  1.00  0.00     0.159 HD
ENDROOT
BRANCH  15  18
HETATM   18  C12 UNL     1      25.248   3.292  50.306  1.00  0.00    -0.033 A 
HETATM   19  C13 UNL     1      26.477   2.787  50.685  1.00  0.00     0.010 A 
HETATM   20  C14 UNL     1      26.585   1.684  51.526  1.00  0.00     0.007 A 
HETATM   21  C15 UNL     1      25.473   1.038  52.021  1.00  0.00    -0.062 A 
HETATM   22  C16 UNL     1      25.516  -0.142  52.913  1.00  0.00     0.048 C 
HETATM   23  C17 UNL     1      24.231   1.521  51.661  1.00  0.00     0.007 A 
HETATM   24  C18 UNL     1      24.175   2.613  50.829  1.00  0.00     0.010 A 
ENDBRANCH  15  18
TORSDOF 1
ENDMDL
MODEL 8
REMARK VINA RESULT:      -7.1      9.886     12.233
REMARK  1 active torsions:
REMARK  status: ('A' for Active; 'I' for Inactive)
REMARK    1  A    between atoms: C11_15  and  C12_16 
ROOT
HETATM    1  C1  UNL     1      33.544  10.224  45.920  1.00  0.00     0.044 C 
HETATM    2  C2  UNL     1      32.596  10.228  47.062  1.00  0.00    -0.070 C 
HETATM    3  C3  UNL     1      32.274   9.320  48.025  1.00  0.00    -0.017 C 
HETATM    4  C4  UNL     1      31.336   9.304  49.178  1.00  0.00     0.083 C 
HETATM    5  C5  UNL     1      30.104   8.500  48.922  1.00  0.00     0.038 C 
HETATM    6  N1  UNL     1      28.994   9.066  49.249  1.00  0.00    -0.184 NA
HETATM    7  N2  UNL     1      28.010   8.724  48.325  1.00  0.00    -0.286 N 
HETATM    8  C6  UNL     1      26.948   9.708  48.055  1.00  0.00     0.223 C 
HETATM    9  S1  UNL     1      27.579  11.344  48.456  1.00  0.00    -0.118 SA
HETATM   10  C7  UNL     1      28.848  11.865  47.345  1.00  0.00     0.071 C 
HETATM   11  C8  UNL     1      29.779  12.370  46.479  1.00  0.00     0.007 C 
HETATM   12  C9  UNL     1      29.200  13.712  46.317  1.00  0.00     0.068 C 
HETATM   13  N3  UNL     1      30.909  11.566  46.020  1.00  0.00    -0.389 N 
HETATM   14  C10 UNL     1      31.725  11.411  47.223  1.00  0.00     0.153 C 
HETATM   15  C11 UNL     1      28.358   7.363  47.874  1.00  0.00     0.143 C 
HETATM   16  C19 UNL     1      29.737   7.175  48.370  1.00  0.00     0.088 C 
HETATM   17  H13 UNL     1      30.341  11.667  45.160  1.00  0.00     0.159 HD
ENDROOT
BRANCH  15  18
HETATM   18  C12 UNL     1      27.353   6.393  48.347  1.00  0.00    -0.033 A 
HETATM   19  C13 UNL     1      27.810   5.122  48.640  1.00  0.00     0.010 A 
HETATM   20  C14 UNL     1      26.948   4.118  49.070  1.00  0.00     0.007 A 
HETATM   21  C15 UNL     1      25.598   4.339  49.224  1.00  0.00    -0.062 A 
HETATM   22  C16 UNL     1      24.626   3.316  49.672  1.00  0.00     0.048 C 
HETATM   23  C17 UNL     1      25.112   5.600  48.940  1.00  0.00     0.007 A 
HETATM   24  C18 UNL     1      26.001   6.559  48.519  1.00  0.00     0.010 A 
ENDBRANCH  15  18
TORSDOF 1
ENDMDL
MODEL 9
REMARK VINA RESULT:      -6.9      3.975      6.325
REMARK  1 active torsions:
REMARK  status: ('A' for Active; 'I' for Inactive)
REMARK    1  A    between atoms: C11_15  and  C12_16 
ROOT
HETATM    1  C1  UNL     1      26.368   7.816  49.439  1.00  0.00     0.044 C 
HETATM    2  C2  UNL     1      25.017   7.417  49.905  1.00  0.00    -0.070 C 
HETATM    3  C3  UNL     1      24.515   7.005  51.103  1.00  0.00    -0.017 C 
HETATM    4  C4  UNL     1      23.170   6.608  51.594  1.00  0.00     0.083 C 
HETATM    5  C5  UNL     1      23.016   5.132  51.757  1.00  0.00     0.038 C 
HETATM    6  N1  UNL     1      21.937   4.628  51.266  1.00  0.00    -0.184 NA
HETATM    7  N2  UNL     1      22.215   3.373  50.731  1.00  0.00    -0.286 N 
HETATM    8  C6  UNL     1      21.425   2.929  49.570  1.00  0.00     0.223 C 
HETATM    9  S1  UNL     1      20.800   4.387  48.722  1.00  0.00    -0.118 SA
HETATM   10  C7  UNL     1      22.087   5.318  47.951  1.00  0.00     0.071 C 
HETATM   11  C8  UNL     1      23.018   6.047  47.262  1.00  0.00     0.007 C 
HETATM   12  C9  UNL     1      22.264   6.207  46.009  1.00  0.00     0.068 C 
HETATM   13  N3  UNL     1      24.301   6.405  47.859  1.00  0.00    -0.389 N 
HETATM   14  C10 UNL     1      23.935   7.364  48.900  1.00  0.00     0.153 C 
HETATM   15  C11 UNL     1      23.296   2.824  51.571  1.00  0.00     0.143 C 
HETATM   16  C19 UNL     1      23.766   3.995  52.341  1.00  0.00     0.088 C 
HETATM   17  H13 UNL     1      24.576   5.727  47.126  1.00  0.00     0.159 HD
ENDROOT
BRANCH  15  18
HETATM   18  C12 UNL     1      22.805   1.677  52.357  1.00  0.00    -0.033 A 
HETATM   19  C13 UNL     1      23.740   0.725  52.714  1.00  0.00     0.010 A 
HETATM   20  C14 UNL     1      23.386  -0.411  53.435  1.00  0.00     0.007 A 
HETATM   21  C15 UNL     1      22.087  -0.645  53.827  1.00  0.00    -0.062 A 
HETATM   22  C16 UNL     1      21.641  -1.834  54.589  1.00  0.00     0.048 C 
HETATM   23  C17 UNL     1      21.130   0.290  53.486  1.00  0.00     0.007 A 
HETATM   24  C18 UNL     1      21.527   1.396  52.775  1.00  0.00     0.010 A 
ENDBRANCH  15  18
TORSDOF 1
ENDMDL
