MODEL 1
REMARK VINA RESULT:      -7.1      0.000      0.000
REMARK  4 active torsions:
REMARK  status: ('A' for Active; 'I' for Inactive)
REMARK    1  A    between atoms: C6_7  and  C7_8 
REMARK    2  A    between atoms: N3_11  and  C9_12 
REMARK    3  A    between atoms: C9_12  and  C10_13 
REMARK    4  A    between atoms: C10_13  and  N4_14 
ROOT
HETATM    1  C7  UNL     1      22.045   1.594  52.124  1.00  0.00     0.030 A 
HETATM    2  C8  UNL     1      21.401   0.878  53.195  1.00  0.00     0.154 A 
HETATM    3  N2  UNL     1      22.237   0.008  53.878  1.00  0.00    -0.184 NA
HETATM    4  N3  UNL     1      23.420   0.115  53.298  1.00  0.00    -0.279 N 
HETATM    5  C15 UNL     1      23.279   1.008  52.323  1.00  0.00     0.127 A 
ENDROOT
BRANCH   1   6
HETATM    6  C6  UNL     1      21.063   2.522  51.449  1.00  0.00     0.089 C 
HETATM    7  N1  UNL     1      20.516   1.335  50.995  1.00  0.00    -0.243 NA
HETATM    8  C5  UNL     1      20.316   1.190  49.767  1.00  0.00     0.098 C 
HETATM    9  C4  UNL     1      21.457   0.999  49.155  1.00  0.00     0.004 C 
HETATM   10  C3  UNL     1      22.302   1.963  49.397  1.00  0.00    -0.007 C 
HETATM   11  C2  UNL     1      21.639   3.221  49.142  1.00  0.00     0.021 C 
HETATM   12  C1  UNL     1      20.379   3.199  48.278  1.00  0.00     0.015 C 
HETATM   13  C17 UNL     1      21.799   4.432  49.927  1.00  0.00     0.145 C 
HETATM   14  N6  UNL     1      22.938   4.471  50.824  1.00  0.00    -0.117 NA
HETATM   15  N5  UNL     1      22.563   4.067  52.064  1.00  0.00    -0.192 NA
HETATM   16  C16 UNL     1      21.145   3.770  51.875  1.00  0.00     0.166 C 
ENDBRANCH   1   6
BRANCH   4  17
HETATM   17  C9  UNL     1      24.706  -0.480  53.524  1.00  0.00     0.180 C 
BRANCH  17  18
HETATM   18  C10 UNL     1      25.824   0.225  52.793  1.00  0.00     0.294 C 
BRANCH  18  19
HETATM   19  N4  UNL     1      26.580   1.121  53.611  1.00  0.00     0.094 N 
HETATM   20  C11 UNL     1      27.574   1.824  52.849  1.00  0.00     0.298 C 
HETATM   21  C12 UNL     1      28.741   2.243  53.757  1.00  0.00     0.198 C 
HETATM   22  O1  UNL     1      29.407   1.102  54.131  1.00  0.00    -0.388 OA
HETATM   23  C13 UNL     1      28.607   0.030  54.433  1.00  0.00     0.198 C 
HETATM   24  C14 UNL     1      27.168   0.392  54.709  1.00  0.00     0.298 C 
ENDBRANCH  18  19
ENDBRANCH  17  18
ENDBRANCH   4  17
TORSDOF 4
ENDMDL
MODEL 2
REMARK VINA RESULT:      -7.0      1.855      3.072
REMARK  4 active torsions:
REMARK  status: ('A' for Active; 'I' for Inactive)
REMARK    1  A    between atoms: C6_7  and  C7_8 
REMARK    2  A    between atoms: N3_11  and  C9_12 
REMARK    3  A    between atoms: C9_12  and  C10_13 
REMARK    4  A    between atoms: C10_13  and  N4_14 
ROOT
HETATM    1  C7  UNL     1      22.270   2.784  51.328  1.00  0.00     0.030 A 
HETATM    2  C8  UNL     1      22.759   3.818  52.203  1.00  0.00     0.154 A 
HETATM    3  N2  UNL     1      24.134   3.992  52.160  1.00  0.00    -0.184 NA
HETATM    4  N3  UNL     1      24.582   3.107  51.286  1.00  0.00    -0.279 N 
HETATM    5  C15 UNL     1      23.517   2.449  50.840  1.00  0.00     0.127 A 
ENDROOT
BRANCH   1   6
HETATM    6  C6  UNL     1      20.767   2.676  51.433  1.00  0.00     0.089 C 
HETATM    7  N1  UNL     1      21.064   2.156  52.680  1.00  0.00    -0.243 NA
HETATM    8  C5  UNL     1      20.573   1.050  53.008  1.00  0.00     0.098 C 
HETATM    9  C4  UNL     1      21.186   0.089  52.365  1.00  0.00     0.004 C 
HETATM   10  C3  UNL     1      21.147   0.271  51.073  1.00  0.00    -0.007 C 
HETATM   11  C2  UNL     1      19.777   0.528  50.693  1.00  0.00     0.021 C 
HETATM   12  C1  UNL     1      18.678   0.115  51.671  1.00  0.00     0.015 C 
HETATM   13  C17 UNL     1      19.347   1.480  49.684  1.00  0.00     0.145 C 
HETATM   14  N6  UNL     1      20.371   1.964  48.780  1.00  0.00    -0.117 NA
HETATM   15  N5  UNL     1      20.881   3.134  49.244  1.00  0.00    -0.192 NA
HETATM   16  C16 UNL     1      20.127   3.329  50.480  1.00  0.00     0.166 C 
ENDBRANCH   1   6
BRANCH   4  17
HETATM   17  C9  UNL     1      25.879   2.777  50.766  1.00  0.00     0.180 C 
BRANCH  17  18
HETATM   18  C10 UNL     1      26.817   2.224  51.812  1.00  0.00     0.294 C 
BRANCH  18  19
HETATM   19  N4  UNL     1      26.246   1.191  52.619  1.00  0.00     0.094 N 
HETATM   20  C11 UNL     1      26.411   1.459  54.020  1.00  0.00     0.298 C 
HETATM   21  C12 UNL     1      26.410   0.143  54.815  1.00  0.00     0.198 C 
HETATM   22  O1  UNL     1      27.565  -0.531  54.505  1.00  0.00    -0.388 OA
HETATM   23  C13 UNL     1      27.931  -0.487  53.184  1.00  0.00     0.198 C 
HETATM   24  C14 UNL     1      26.817  -0.081  52.248  1.00  0.00     0.298 C 
ENDBRANCH  18  19
ENDBRANCH  17  18
ENDBRANCH   4  17
TORSDOF 4
ENDMDL
MODEL 3
REMARK VINA RESULT:      -6.8      2.544      6.991
REMARK  4 active torsions:
REMARK  status: ('A' for Active; 'I' for Inactive)
REMARK    1  A    between atoms: C6_7  and  C7_8 
REMARK    2  A    between atoms: N3_11  and  C9_12 
REMARK    3  A    between atoms: C9_12  and  C10_13 
REMARK    4  A    between atoms: C10_13  and  N4_14 
ROOT
HETATM    1  C7  UNL     1      25.139   1.635  52.947  1.00  0.00     0.030 A 
HETATM    2  C8  UNL     1      24.545   2.843  53.460  1.00  0.00     0.154 A 
HETATM    3  N2  UNL     1      23.738   3.508  52.550  1.00  0.00    -0.184 NA
HETATM    4  N3  UNL     1      23.772   2.786  51.443  1.00  0.00    -0.279 N 
HETATM    5  C15 UNL     1      24.562   1.748  51.698  1.00  0.00     0.127 A 
ENDROOT
BRANCH   1   6
HETATM    6  C6  UNL     1      25.987   0.977  54.010  1.00  0.00     0.089 C 
HETATM    7  N1  UNL     1      26.543   2.240  54.105  1.00  0.00    -0.243 NA
HETATM    8  C5  UNL     1      27.787   2.363  54.025  1.00  0.00     0.098 C 
HETATM    9  C4  UNL     1      28.168   2.194  52.784  1.00  0.00     0.004 C 
HETATM   10  C3  UNL     1      27.763   1.050  52.306  1.00  0.00    -0.007 C 
HETATM   11  C2  UNL     1      28.136   0.012  53.239  1.00  0.00     0.021 C 
HETATM   12  C1  UNL     1      29.228   0.332  54.259  1.00  0.00     0.015 C 
HETATM   13  C17 UNL     1      27.330  -1.148  53.576  1.00  0.00     0.145 C 
HETATM   14  N6  UNL     1      26.230  -1.448  52.681  1.00  0.00    -0.117 NA
HETATM   15  N5  UNL     1      25.087  -0.884  53.149  1.00  0.00    -0.192 NA
HETATM   16  C16 UNL     1      25.548  -0.218  54.364  1.00  0.00     0.166 C 
ENDBRANCH   1   6
BRANCH   4  17
HETATM   17  C9  UNL     1      23.153   2.896  50.153  1.00  0.00     0.180 C 
BRANCH  17  18
HETATM   18  C10 UNL     1      22.187   1.774  49.859  1.00  0.00     0.294 C 
BRANCH  18  19
HETATM   19  N4  UNL     1      20.828   2.074  50.187  1.00  0.00     0.094 N 
HETATM   20  C11 UNL     1      20.646   3.470  50.472  1.00  0.00     0.298 C 
HETATM   21  C12 UNL     1      19.443   3.668  51.407  1.00  0.00     0.198 C 
HETATM   22  O1  UNL     1      19.782   3.157  52.635  1.00  0.00    -0.388 OA
HETATM   23  C13 UNL     1      20.486   1.980  52.605  1.00  0.00     0.198 C 
HETATM   24  C14 UNL     1      20.403   1.245  51.288  1.00  0.00     0.298 C 
ENDBRANCH  18  19
ENDBRANCH  17  18
ENDBRANCH   4  17
TORSDOF 4
ENDMDL
MODEL 4
REMARK VINA RESULT:      -6.6      1.765      3.190
REMARK  4 active torsions:
REMARK  status: ('A' for Active; 'I' for Inactive)
REMARK    1  A    between atoms: C6_7  and  C7_8 
REMARK    2  A    between atoms: N3_11  and  C9_12 
REMARK    3  A    between atoms: C9_12  and  C10_13 
REMARK    4  A    between atoms: C10_13  and  N4_14 
ROOT
HETATM    1  C7  UNL     1      23.053   1.993  51.562  1.00  0.00     0.030 A 
HETATM    2  C8  UNL     1      24.134   2.386  50.694  1.00  0.00     0.154 A 
HETATM    3  N2  UNL     1      25.349   2.545  51.341  1.00  0.00    -0.184 NA
HETATM    4  N3  UNL     1      25.119   2.275  52.614  1.00  0.00    -0.279 N 
HETATM    5  C15 UNL     1      23.829   1.970  52.704  1.00  0.00     0.127 A 
ENDROOT
BRANCH   1   6
HETATM    6  C6  UNL     1      21.777   1.832  50.769  1.00  0.00     0.089 C 
HETATM    7  N1  UNL     1      22.012   3.157  50.449  1.00  0.00    -0.243 NA
HETATM    8  C5  UNL     1      21.098   3.996  50.627  1.00  0.00     0.098 C 
HETATM    9  C4  UNL     1      20.966   4.238  51.907  1.00  0.00     0.004 C 
HETATM   10  C3  UNL     1      20.759   3.144  52.586  1.00  0.00    -0.007 C 
HETATM   11  C2  UNL     1      19.681   2.417  51.955  1.00  0.00     0.021 C 
HETATM   12  C1  UNL     1      18.762   3.187  51.008  1.00  0.00     0.015 C 
HETATM   13  C17 UNL     1      19.612   0.974  51.808  1.00  0.00     0.145 C 
HETATM   14  N6  UNL     1      20.522   0.199  52.629  1.00  0.00    -0.117 NA
HETATM   15  N5  UNL     1      21.652  -0.079  51.930  1.00  0.00    -0.192 NA
HETATM   16  C16 UNL     1      21.390   0.575  50.650  1.00  0.00     0.166 C 
ENDBRANCH   1   6
BRANCH   4  17
HETATM   17  C9  UNL     1      25.934   2.230  53.795  1.00  0.00     0.180 C 
BRANCH  17  18
HETATM   18  C10 UNL     1      27.407   2.078  53.496  1.00  0.00     0.294 C 
BRANCH  18  19
HETATM   19  N4  UNL     1      28.032   0.992  54.184  1.00  0.00     0.094 N 
HETATM   20  C11 UNL     1      29.327   0.693  53.639  1.00  0.00     0.298 C 
HETATM   21  C12 UNL     1      29.684  -0.779  53.900  1.00  0.00     0.198 C 
HETATM   22  O1  UNL     1      28.852  -1.552  53.128  1.00  0.00    -0.388 OA
HETATM   23  C13 UNL     1      27.550  -1.126  53.065  1.00  0.00     0.198 C 
HETATM   24  C14 UNL     1      27.163  -0.160  54.158  1.00  0.00     0.298 C 
ENDBRANCH  18  19
ENDBRANCH  17  18
ENDBRANCH   4  17
TORSDOF 4
ENDMDL
MODEL 5
REMARK VINA RESULT:      -6.6      2.828      4.395
REMARK  4 active torsions:
REMARK  status: ('A' for Active; 'I' for Inactive)
REMARK    1  A    between atoms: C6_7  and  C7_8 
REMARK    2  A    between atoms: N3_11  and  C9_12 
REMARK    3  A    between atoms: C9_12  and  C10_13 
REMARK    4  A    between atoms: C10_13  and  N4_14 
ROOT
HETATM    1  C7  UNL     1      24.845   4.435  49.701  1.00  0.00     0.030 A 
HETATM    2  C8  UNL     1      26.171   4.517  49.145  1.00  0.00     0.154 A 
HETATM    3  N2  UNL     1      27.089   3.669  49.743  1.00  0.00    -0.184 NA
HETATM    4  N3  UNL     1      26.423   3.021  50.684  1.00  0.00    -0.279 N 
HETATM    5  C15 UNL     1      25.173   3.472  50.634  1.00  0.00     0.127 A 
ENDROOT
BRANCH   1   6
HETATM    6  C6  UNL     1      23.915   5.383  48.981  1.00  0.00     0.089 C 
HETATM    7  N1  UNL     1      24.794   6.337  49.461  1.00  0.00    -0.243 NA
HETATM    8  C5  UNL     1      24.339   7.315  50.098  1.00  0.00     0.098 C 
HETATM    9  C4  UNL     1      23.970   6.928  51.294  1.00  0.00     0.004 C 
HETATM   10  C3  UNL     1      23.114   5.945  51.240  1.00  0.00    -0.007 C 
HETATM   11  C2  UNL     1      22.056   6.315  50.329  1.00  0.00     0.021 C 
HETATM   12  C1  UNL     1      21.887   7.797  50.000  1.00  0.00     0.015 C 
HETATM   13  C17 UNL     1      21.398   5.420  49.393  1.00  0.00     0.145 C 
HETATM   14  N6  UNL     1      21.593   4.001  49.616  1.00  0.00    -0.117 NA
HETATM   15  N5  UNL     1      22.629   3.553  48.861  1.00  0.00    -0.192 NA
HETATM   16  C16 UNL     1      23.061   4.771  48.179  1.00  0.00     0.166 C 
ENDBRANCH   1   6
BRANCH   4  17
HETATM   17  C9  UNL     1      26.764   2.004  51.637  1.00  0.00     0.180 C 
BRANCH  17  18
HETATM   18  C10 UNL     1      25.866   2.002  52.851  1.00  0.00     0.294 C 
BRANCH  18  19
HETATM   19  N4  UNL     1      26.396   1.283  53.967  1.00  0.00     0.094 N 
HETATM   20  C11 UNL     1      27.832   1.271  53.958  1.00  0.00     0.298 C 
HETATM   21  C12 UNL     1      28.357   0.035  54.705  1.00  0.00     0.198 C 
HETATM   22  O1  UNL     1      28.047  -1.070  53.950  1.00  0.00    -0.388 OA
HETATM   23  C13 UNL     1      26.805  -1.052  53.370  1.00  0.00     0.198 C 
HETATM   24  C14 UNL     1      25.851  -0.054  53.982  1.00  0.00     0.298 C 
ENDBRANCH  18  19
ENDBRANCH  17  18
ENDBRANCH   4  17
TORSDOF 4
ENDMDL
MODEL 6
REMARK VINA RESULT:      -6.6      2.804      6.841
REMARK  4 active torsions:
REMARK  status: ('A' for Active; 'I' for Inactive)
REMARK    1  A    between atoms: C6_7  and  C7_8 
REMARK    2  A    between atoms: N3_11  and  C9_12 
REMARK    3  A    between atoms: C9_12  and  C10_13 
REMARK    4  A    between atoms: C10_13  and  N4_14 
ROOT
HETATM    1  C7  UNL     1      25.200   1.790  52.883  1.00  0.00     0.030 A 
HETATM    2  C8  UNL     1      24.452   2.884  53.448  1.00  0.00     0.154 A 
HETATM    3  N2  UNL     1      23.731   3.616  52.518  1.00  0.00    -0.184 NA
HETATM    4  N3  UNL     1      23.972   3.051  51.348  1.00  0.00    -0.279 N 
HETATM    5  C15 UNL     1      24.795   2.034  51.586  1.00  0.00     0.127 A 
ENDROOT
BRANCH   1   6
HETATM    6  C6  UNL     1      25.940   1.045  53.969  1.00  0.00     0.089 C 
HETATM    7  N1  UNL     1      26.562   2.269  54.146  1.00  0.00    -0.243 NA
HETATM    8  C5  UNL     1      27.814   2.319  54.146  1.00  0.00     0.098 C 
HETATM    9  C4  UNL     1      28.261   2.170  52.924  1.00  0.00     0.004 C 
HETATM   10  C3  UNL     1      27.820   1.069  52.380  1.00  0.00    -0.007 C 
HETATM   11  C2  UNL     1      28.074  -0.021  53.295  1.00  0.00     0.021 C 
HETATM   12  C1  UNL     1      29.116   0.198  54.390  1.00  0.00     0.015 C 
HETATM   13  C17 UNL     1      27.182  -1.141  53.538  1.00  0.00     0.145 C 
HETATM   14  N6  UNL     1      26.124  -1.343  52.567  1.00  0.00    -0.117 NA
HETATM   15  N5  UNL     1      24.989  -0.728  52.986  1.00  0.00    -0.192 NA
HETATM   16  C16 UNL     1      25.411  -0.132  54.251  1.00  0.00     0.166 C 
ENDBRANCH   1   6
BRANCH   4  17
HETATM   17  C9  UNL     1      23.531   3.295  50.004  1.00  0.00     0.180 C 
BRANCH  17  18
HETATM   18  C10 UNL     1      22.554   4.442  49.898  1.00  0.00     0.294 C 
BRANCH  18  19
HETATM   19  N4  UNL     1      23.116   5.638  49.353  1.00  0.00     0.094 N 
HETATM   20  C11 UNL     1      24.437   5.416  48.834  1.00  0.00     0.298 C 
HETATM   21  C12 UNL     1      25.245   6.723  48.864  1.00  0.00     0.198 C 
HETATM   22  O1  UNL     1      25.492   7.029  50.180  1.00  0.00    -0.388 OA
HETATM   23  C13 UNL     1      24.446   6.808  51.038  1.00  0.00     0.198 C 
HETATM   24  C14 UNL     1      23.105   6.676  50.355  1.00  0.00     0.298 C 
ENDBRANCH  18  19
ENDBRANCH  17  18
ENDBRANCH   4  17
TORSDOF 4
ENDMDL
MODEL 7
REMARK VINA RESULT:      -6.5      2.664      4.147
REMARK  4 active torsions:
REMARK  status: ('A' for Active; 'I' for Inactive)
REMARK    1  A    between atoms: C6_7  and  C7_8 
REMARK    2  A    between atoms: N3_11  and  C9_12 
REMARK    3  A    between atoms: C9_12  and  C10_13 
REMARK    4  A    between atoms: C10_13  and  N4_14 
ROOT
HETATM    1  C7  UNL     1      23.443   4.480  50.369  1.00  0.00     0.030 A 
HETATM    2  C8  UNL     1      23.360   3.188  49.739  1.00  0.00     0.154 A 
HETATM    3  N2  UNL     1      23.600   2.124  50.594  1.00  0.00    -0.184 NA
HETATM    4  N3  UNL     1      23.844   2.660  51.777  1.00  0.00    -0.279 N 
HETATM    5  C15 UNL     1      23.749   3.977  51.618  1.00  0.00     0.127 A 
ENDROOT
BRANCH   1   6
HETATM    6  C6  UNL     1      23.155   5.572  49.366  1.00  0.00     0.089 C 
HETATM    7  N1  UNL     1      24.465   5.334  48.989  1.00  0.00    -0.243 NA
HETATM    8  C5  UNL     1      25.262   6.299  48.923  1.00  0.00     0.098 C 
HETATM    9  C4  UNL     1      25.588   6.684  50.131  1.00  0.00     0.004 C 
HETATM   10  C3  UNL     1      24.536   6.974  50.846  1.00  0.00    -0.007 C 
HETATM   11  C2  UNL     1      23.706   7.880  50.084  1.00  0.00     0.021 C 
HETATM   12  C1  UNL     1      24.354   8.630  48.921  1.00  0.00     0.015 C 
HETATM   13  C17 UNL     1      22.255   7.860  50.044  1.00  0.00     0.145 C 
HETATM   14  N6  UNL     1      21.593   7.095  51.082  1.00  0.00    -0.117 NA
HETATM   15  N5  UNL     1      21.329   5.841  50.634  1.00  0.00    -0.192 NA
HETATM   16  C16 UNL     1      21.873   5.878  49.279  1.00  0.00     0.166 C 
ENDBRANCH   1   6
BRANCH   4  17
HETATM   17  C9  UNL     1      24.140   2.131  53.079  1.00  0.00     0.180 C 
BRANCH  17  18
HETATM   18  C10 UNL     1      25.590   2.289  53.469  1.00  0.00     0.294 C 
BRANCH  18  19
HETATM   19  N4  UNL     1      26.470   1.361  52.830  1.00  0.00     0.094 N 
HETATM   20  C11 UNL     1      25.931   0.029  52.834  1.00  0.00     0.298 C 
HETATM   21  C12 UNL     1      27.068  -1.003  52.767  1.00  0.00     0.198 C 
HETATM   22  O1  UNL     1      27.745  -0.954  53.961  1.00  0.00    -0.388 OA
HETATM   23  C13 UNL     1      27.942   0.304  54.470  1.00  0.00     0.198 C 
HETATM   24  C14 UNL     1      27.767   1.414  53.461  1.00  0.00     0.298 C 
ENDBRANCH  18  19
ENDBRANCH  17  18
ENDBRANCH   4  17
TORSDOF 4
ENDMDL
MODEL 8
REMARK VINA RESULT:      -6.4      4.623      6.256
REMARK  4 active torsions:
REMARK  status: ('A' for Active; 'I' for Inactive)
REMARK    1  A    between atoms: C6_7  and  C7_8 
REMARK    2  A    between atoms: N3_11  and  C9_12 
REMARK    3  A    between atoms: C9_12  and  C10_13 
REMARK    4  A    between atoms: C10_13  and  N4_14 
ROOT
HETATM    1  C7  UNL     1      24.441   4.508  50.278  1.00  0.00     0.030 A 
HETATM    2  C8  UNL     1      24.582   5.925  50.490  1.00  0.00     0.154 A 
HETATM    3  N2  UNL     1      25.714   6.475  49.907  1.00  0.00    -0.184 NA
HETATM    4  N3  UNL     1      26.338   5.472  49.315  1.00  0.00    -0.279 N 
HETATM    5  C15 UNL     1      25.602   4.388  49.540  1.00  0.00     0.127 A 
ENDROOT
BRANCH   1   6
HETATM    6  C6  UNL     1      23.178   4.003  50.936  1.00  0.00     0.089 C 
HETATM    7  N1  UNL     1      23.891   4.243  52.097  1.00  0.00    -0.243 NA
HETATM    8  C5  UNL     1      23.994   3.327  52.946  1.00  0.00     0.098 C 
HETATM    9  C4  UNL     1      24.833   2.420  52.514  1.00  0.00     0.004 C 
HETATM   10  C3  UNL     1      24.486   1.958  51.345  1.00  0.00    -0.007 C 
HETATM   11  C2  UNL     1      23.095   1.571  51.405  1.00  0.00     0.021 C 
HETATM   12  C1  UNL     1      22.480   1.343  52.785  1.00  0.00     0.015 C 
HETATM   13  C17 UNL     1      22.122   1.758  50.344  1.00  0.00     0.145 C 
HETATM   14  N6  UNL     1      22.654   2.056  49.029  1.00  0.00    -0.117 NA
HETATM   15  N5  UNL     1      22.685   3.400  48.836  1.00  0.00    -0.192 NA
HETATM   16  C16 UNL     1      22.158   3.903  50.102  1.00  0.00     0.166 C 
ENDBRANCH   1   6
BRANCH   4  17
HETATM   17  C9  UNL     1      27.533   5.356  48.529  1.00  0.00     0.180 C 
BRANCH  17  18
HETATM   18  C10 UNL     1      28.124   6.692  48.145  1.00  0.00     0.294 C 
BRANCH  18  19
HETATM   19  N4  UNL     1      29.434   6.609  47.579  1.00  0.00     0.094 N 
HETATM   20  C11 UNL     1      30.124   5.424  48.008  1.00  0.00     0.298 C 
HETATM   21  C12 UNL     1      31.644   5.648  47.957  1.00  0.00     0.198 C 
HETATM   22  O1  UNL     1      31.964   6.551  48.942  1.00  0.00    -0.388 OA
HETATM   23  C13 UNL     1      31.086   7.594  49.087  1.00  0.00     0.198 C 
HETATM   24  C14 UNL     1      30.175   7.804  47.901  1.00  0.00     0.298 C 
ENDBRANCH  18  19
ENDBRANCH  17  18
ENDBRANCH   4  17
TORSDOF 4
ENDMDL
MODEL 9
REMARK VINA RESULT:      -6.3      2.074      3.615
REMARK  4 active torsions:
REMARK  status: ('A' for Active; 'I' for Inactive)
REMARK    1  A    between atoms: C6_7  and  C7_8 
REMARK    2  A    between atoms: N3_11  and  C9_12 
REMARK    3  A    between atoms: C9_12  and  C10_13 
REMARK    4  A    between atoms: C10_13  and  N4_14 
ROOT
HETATM    1  C7  UNL     1      24.076   3.682  50.073  1.00  0.00     0.030 A 
HETATM    2  C8  UNL     1      25.234   4.356  49.545  1.00  0.00     0.154 A 
HETATM    3  N2  UNL     1      26.437   3.918  50.078  1.00  0.00    -0.184 NA
HETATM    4  N3  UNL     1      26.123   2.973  50.946  1.00  0.00    -0.279 N 
HETATM    5  C15 UNL     1      24.799   2.865  50.920  1.00  0.00     0.127 A 
ENDROOT
BRANCH   1   6
HETATM    6  C6  UNL     1      22.819   4.215  49.427  1.00  0.00     0.089 C 
HETATM    7  N1  UNL     1      22.941   5.192  50.399  1.00  0.00    -0.243 NA
HETATM    8  C5  UNL     1      21.959   5.440  51.137  1.00  0.00     0.098 C 
HETATM    9  C4  UNL     1      21.806   4.472  52.005  1.00  0.00     0.004 C 
HETATM   10  C3  UNL     1      21.692   3.312  51.420  1.00  0.00    -0.007 C 
HETATM   11  C2  UNL     1      20.680   3.420  50.394  1.00  0.00     0.021 C 
HETATM   12  C1  UNL     1      19.700   4.589  50.482  1.00  0.00     0.015 C 
HETATM   13  C17 UNL     1      20.734   2.787  49.088  1.00  0.00     0.145 C 
HETATM   14  N6  UNL     1      21.705   1.722  48.929  1.00  0.00    -0.117 NA
HETATM   15  N5  UNL     1      22.856   2.221  48.409  1.00  0.00    -0.192 NA
HETATM   16  C16 UNL     1      22.540   3.641  48.271  1.00  0.00     0.166 C 
ENDBRANCH   1   6
BRANCH   4  17
HETATM   17  C9  UNL     1      26.880   2.110  51.809  1.00  0.00     0.180 C 
BRANCH  17  18
HETATM   18  C10 UNL     1      26.298   2.001  53.199  1.00  0.00     0.294 C 
BRANCH  18  19
HETATM   19  N4  UNL     1      26.952   1.040  54.030  1.00  0.00     0.094 N 
HETATM   20  C11 UNL     1      28.323   0.850  53.646  1.00  0.00     0.298 C 
HETATM   21  C12 UNL     1      28.799  -0.553  54.056  1.00  0.00     0.198 C 
HETATM   22  O1  UNL     1      28.141  -1.463  53.266  1.00  0.00    -0.388 OA
HETATM   23  C13 UNL     1      26.818  -1.189  53.037  1.00  0.00     0.198 C 
HETATM   24  C14 UNL     1      26.214  -0.200  54.006  1.00  0.00     0.298 C 
ENDBRANCH  18  19
ENDBRANCH  17  18
ENDBRANCH   4  17
TORSDOF 4
ENDMDL
