MODEL 1
REMARK VINA RESULT:      -8.9      0.000      0.000
REMARK  4 active torsions:
REMARK  status: ('A' for Active; 'I' for Inactive)
REMARK    1  A    between atoms: C2_2  and  C3_3 
REMARK    2  A    between atoms: C3_3  and  C4_4 
REMARK    3  A    between atoms: C4_4  and  C5_5 
REMARK    4  A    between atoms: C12_14  and  C13_15 
ROOT
HETATM    1  C5  UNL     1      25.495   4.501  49.819  1.00  0.00     0.234 C 
HETATM    2  N1  UNL     1      25.627   5.728  50.560  1.00  0.00     0.106 N 
HETATM    3  C6  UNL     1      24.391   6.465  50.671  1.00  0.00     0.392 C 
HETATM    4  N2  UNL     1      23.924   6.238  52.047  1.00  0.00    -0.375 N 
HETATM    5  C7  UNL     1      23.440   5.050  52.663  1.00  0.00     0.081 C 
HETATM    6  C8  UNL     1      23.360   3.728  52.462  1.00  0.00     0.002 C 
HETATM    7  C9  UNL     1      23.872   2.954  51.269  1.00  0.00     0.007 A 
HETATM    8  C10 UNL     1      23.069   1.684  50.944  1.00  0.00     0.043 C 
HETATM    9  C11 UNL     1      23.695   0.798  52.001  1.00  0.00    -0.018 C 
HETATM   10  C12 UNL     1      24.937   1.083  52.359  1.00  0.00    -0.049 C 
HETATM   11  C17 UNL     1      25.206   2.243  51.481  1.00  0.00     0.024 A 
HETATM   12  C18 UNL     1      25.047   3.377  50.710  1.00  0.00     0.029 A 
HETATM   13  H11 UNL     1      26.038   5.473  51.489  1.00  0.00     0.318 HD
HETATM   14  H14 UNL     1      23.934   7.051  52.702  1.00  0.00     0.160 HD
ENDROOT
BRANCH  10  15
HETATM   15  C13 UNL     1      25.883   0.515  53.300  1.00  0.00     0.018 C 
HETATM   16  C14 UNL     1      27.112   0.925  53.565  1.00  0.00    -0.019 C 
HETATM   17  C15 UNL     1      27.958   0.222  54.567  1.00  0.00     0.147 C 
HETATM   18  C16 UNL     1      28.070   1.982  53.155  1.00  0.00     0.181 C 
HETATM   19  N3  UNL     1      28.886   1.004  54.991  1.00  0.00    -0.191 NA
HETATM   20  N4  UNL     1      28.808   2.239  54.388  1.00  0.00    -0.310 N 
HETATM   21  H22 UNL     1      29.180   3.183  54.707  1.00  0.00     0.182 HD
ENDBRANCH  10  15
BRANCH   1  22
HETATM   22  C4  UNL     1      26.844   4.206  49.180  1.00  0.00     0.036 C 
BRANCH  22  23
HETATM   23  C3  UNL     1      27.425   5.439  48.532  1.00  0.00     0.002 C 
BRANCH  23  24
HETATM   24  C2  UNL     1      28.906   5.276  48.261  1.00  0.00    -0.004 C 
HETATM   25  C1  UNL     1      29.520   6.533  47.738  1.00  0.00     0.005 C 
ENDBRANCH  23  24
ENDBRANCH  22  23
ENDBRANCH   1  22
TORSDOF 4
ENDMDL
MODEL 2
REMARK VINA RESULT:      -8.5      3.457      5.965
REMARK  4 active torsions:
REMARK  status: ('A' for Active; 'I' for Inactive)
REMARK    1  A    between atoms: C2_2  and  C3_3 
REMARK    2  A    between atoms: C3_3  and  C4_4 
REMARK    3  A    between atoms: C4_4  and  C5_5 
REMARK    4  A    between atoms: C12_14  and  C13_15 
ROOT
HETATM    1  C5  UNL     1      20.866   1.117  52.989  1.00  0.00     0.234 C 
HETATM    2  N1  UNL     1      20.159   0.370  51.982  1.00  0.00     0.106 N 
HETATM    3  C6  UNL     1      19.591   1.201  50.947  1.00  0.00     0.392 C 
HETATM    4  N2  UNL     1      20.471   1.028  49.781  1.00  0.00    -0.375 N 
HETATM    5  C7  UNL     1      21.816   1.449  49.583  1.00  0.00     0.081 C 
HETATM    6  C8  UNL     1      22.870   1.928  50.256  1.00  0.00     0.002 C 
HETATM    7  C9  UNL     1      22.951   2.220  51.736  1.00  0.00     0.007 A 
HETATM    8  C10 UNL     1      23.910   3.363  52.107  1.00  0.00     0.043 C 
HETATM    9  C11 UNL     1      25.191   2.559  52.023  1.00  0.00    -0.018 C 
HETATM   10  C12 UNL     1      25.098   1.263  52.277  1.00  0.00    -0.049 C 
HETATM   11  C17 UNL     1      23.653   1.153  52.572  1.00  0.00     0.024 A 
HETATM   12  C18 UNL     1      22.289   1.367  52.576  1.00  0.00     0.029 A 
HETATM   13  H11 UNL     1      20.831  -0.343  51.613  1.00  0.00     0.318 HD
HETATM   14  H14 UNL     1      20.084   0.524  48.953  1.00  0.00     0.160 HD
ENDROOT
BRANCH  10  15
HETATM   15  C13 UNL     1      26.041   0.161  52.309  1.00  0.00     0.018 C 
HETATM   16  C14 UNL     1      27.149   0.059  53.024  1.00  0.00    -0.019 C 
HETATM   17  C15 UNL     1      28.011  -1.151  52.937  1.00  0.00     0.147 C 
HETATM   18  C16 UNL     1      27.936   0.833  54.015  1.00  0.00     0.181 C 
HETATM   19  N3  UNL     1      28.743  -1.251  53.989  1.00  0.00    -0.191 NA
HETATM   20  N4  UNL     1      28.501  -0.214  54.861  1.00  0.00    -0.310 N 
HETATM   21  H22 UNL     1      28.669  -0.146  55.909  1.00  0.00     0.182 HD
ENDBRANCH  10  15
BRANCH   1  22
HETATM   22  C4  UNL     1      20.788   0.325  54.286  1.00  0.00     0.036 C 
BRANCH  22  23
HETATM   23  C3  UNL     1      20.595  -1.147  54.017  1.00  0.00     0.002 C 
BRANCH  23  24
HETATM   24  C2  UNL     1      21.878  -1.921  54.233  1.00  0.00    -0.004 C 
HETATM   25  C1  UNL     1      22.763  -1.267  55.243  1.00  0.00     0.005 C 
ENDBRANCH  23  24
ENDBRANCH  22  23
ENDBRANCH   1  22
TORSDOF 4
ENDMDL
MODEL 3
REMARK VINA RESULT:      -8.2      1.912      2.482
REMARK  4 active torsions:
REMARK  status: ('A' for Active; 'I' for Inactive)
REMARK    1  A    between atoms: C2_2  and  C3_3 
REMARK    2  A    between atoms: C3_3  and  C4_4 
REMARK    3  A    between atoms: C4_4  and  C5_5 
REMARK    4  A    between atoms: C12_14  and  C13_15 
ROOT
HETATM    1  C5  UNL     1      24.574   3.951  50.601  1.00  0.00     0.234 C 
HETATM    2  N1  UNL     1      24.432   5.133  51.411  1.00  0.00     0.106 N 
HETATM    3  C6  UNL     1      23.352   5.991  50.987  1.00  0.00     0.392 C 
HETATM    4  N2  UNL     1      22.272   5.770  51.960  1.00  0.00    -0.375 N 
HETATM    5  C7  UNL     1      21.464   4.619  52.181  1.00  0.00     0.081 C 
HETATM    6  C8  UNL     1      21.388   3.320  51.863  1.00  0.00     0.002 C 
HETATM    7  C9  UNL     1      22.343   2.537  50.994  1.00  0.00     0.007 A 
HETATM    8  C10 UNL     1      21.695   1.369  50.231  1.00  0.00     0.043 C 
HETATM    9  C11 UNL     1      21.674   0.388  51.385  1.00  0.00    -0.018 C 
HETATM   10  C12 UNL     1      22.615   0.530  52.304  1.00  0.00    -0.049 C 
HETATM   11  C17 UNL     1      23.357   1.683  51.750  1.00  0.00     0.024 A 
HETATM   12  C18 UNL     1      23.671   2.852  51.086  1.00  0.00     0.029 A 
HETATM   13  H11 UNL     1      24.331   4.805  52.401  1.00  0.00     0.318 HD
HETATM   14  H14 UNL     1      22.033   6.555  52.605  1.00  0.00     0.160 HD
ENDROOT
BRANCH  10  15
HETATM   15  C13 UNL     1      22.954  -0.165  53.532  1.00  0.00     0.018 C 
HETATM   16  C14 UNL     1      24.156  -0.493  53.976  1.00  0.00    -0.019 C 
HETATM   17  C15 UNL     1      24.330  -1.212  55.267  1.00  0.00     0.147 C 
HETATM   18  C16 UNL     1      25.582  -0.377  53.582  1.00  0.00     0.181 C 
HETATM   19  N3  UNL     1      25.521  -1.035  55.717  1.00  0.00    -0.191 NA
HETATM   20  N4  UNL     1      26.258  -0.240  54.869  1.00  0.00    -0.310 N 
HETATM   21  H22 UNL     1      27.121   0.352  55.060  1.00  0.00     0.182 HD
ENDBRANCH  10  15
BRANCH   1  22
HETATM   22  C4  UNL     1      26.037   3.537  50.648  1.00  0.00     0.036 C 
BRANCH  22  23
HETATM   23  C3  UNL     1      26.617   3.415  49.261  1.00  0.00     0.002 C 
BRANCH  23  24
HETATM   24  C2  UNL     1      27.544   4.570  48.945  1.00  0.00    -0.004 C 
HETATM   25  C1  UNL     1      26.791   5.809  48.584  1.00  0.00     0.005 C 
ENDBRANCH  23  24
ENDBRANCH  22  23
ENDBRANCH   1  22
TORSDOF 4
ENDMDL
MODEL 4
REMARK VINA RESULT:      -8.0      2.377      3.389
REMARK  4 active torsions:
REMARK  status: ('A' for Active; 'I' for Inactive)
REMARK    1  A    between atoms: C2_2  and  C3_3 
REMARK    2  A    between atoms: C3_3  and  C4_4 
REMARK    3  A    between atoms: C4_4  and  C5_5 
REMARK    4  A    between atoms: C12_14  and  C13_15 
ROOT
HETATM    1  C5  UNL     1      24.885   3.513  50.347  1.00  0.00     0.234 C 
HETATM    2  N1  UNL     1      24.910   4.769  51.051  1.00  0.00     0.106 N 
HETATM    3  C6  UNL     1      23.951   5.725  50.550  1.00  0.00     0.392 C 
HETATM    4  N2  UNL     1      22.860   5.736  51.535  1.00  0.00    -0.375 N 
HETATM    5  C7  UNL     1      21.907   4.728  51.853  1.00  0.00     0.081 C 
HETATM    6  C8  UNL     1      21.654   3.429  51.649  1.00  0.00     0.002 C 
HETATM    7  C9  UNL     1      22.488   2.451  50.854  1.00  0.00     0.007 A 
HETATM    8  C10 UNL     1      21.683   1.320  50.193  1.00  0.00     0.043 C 
HETATM    9  C11 UNL     1      21.540   0.455  51.428  1.00  0.00    -0.018 C 
HETATM   10  C12 UNL     1      22.499   0.547  52.335  1.00  0.00    -0.049 C 
HETATM   11  C17 UNL     1      23.385   1.538  51.684  1.00  0.00     0.024 A 
HETATM   12  C18 UNL     1      23.847   2.592  50.923  1.00  0.00     0.029 A 
HETATM   13  H11 UNL     1      24.775   4.545  52.065  1.00  0.00     0.318 HD
HETATM   14  H14 UNL     1      22.734   6.599  52.108  1.00  0.00     0.160 HD
ENDROOT
BRANCH  10  15
HETATM   15  C13 UNL     1      22.752  -0.078  53.619  1.00  0.00     0.018 C 
HETATM   16  C14 UNL     1      23.872  -0.639  54.044  1.00  0.00    -0.019 C 
HETATM   17  C15 UNL     1      23.963  -1.242  55.402  1.00  0.00     0.147 C 
HETATM   18  C16 UNL     1      25.253  -0.913  53.576  1.00  0.00     0.181 C 
HETATM   19  N3  UNL     1      25.192  -1.312  55.774  1.00  0.00    -0.191 NA
HETATM   20  N4  UNL     1      26.033  -0.811  54.807  1.00  0.00    -0.310 N 
HETATM   21  H22 UNL     1      27.022  -0.430  54.888  1.00  0.00     0.182 HD
ENDBRANCH  10  15
BRANCH   1  22
HETATM   22  C4  UNL     1      26.280   2.912  50.435  1.00  0.00     0.036 C 
BRANCH  22  23
HETATM   23  C3  UNL     1      26.326   1.777  51.427  1.00  0.00     0.002 C 
BRANCH  23  24
HETATM   24  C2  UNL     1      27.145   2.142  52.648  1.00  0.00    -0.004 C 
HETATM   25  C1  UNL     1      26.283   2.496  53.815  1.00  0.00     0.005 C 
ENDBRANCH  23  24
ENDBRANCH  22  23
ENDBRANCH   1  22
TORSDOF 4
ENDMDL
MODEL 5
REMARK VINA RESULT:      -7.8      3.066      3.655
REMARK  4 active torsions:
REMARK  status: ('A' for Active; 'I' for Inactive)
REMARK    1  A    between atoms: C2_2  and  C3_3 
REMARK    2  A    between atoms: C3_3  and  C4_4 
REMARK    3  A    between atoms: C4_4  and  C5_5 
REMARK    4  A    between atoms: C12_14  and  C13_15 
ROOT
HETATM    1  C5  UNL     1      24.412   4.729  49.770  1.00  0.00     0.234 C 
HETATM    2  N1  UNL     1      24.275   5.832  50.684  1.00  0.00     0.106 N 
HETATM    3  C6  UNL     1      23.143   6.680  50.392  1.00  0.00     0.392 C 
HETATM    4  N2  UNL     1      22.128   6.336  51.399  1.00  0.00    -0.375 N 
HETATM    5  C7  UNL     1      21.375   5.140  51.564  1.00  0.00     0.081 C 
HETATM    6  C8  UNL     1      21.326   3.870  51.141  1.00  0.00     0.002 C 
HETATM    7  C9  UNL     1      22.257   3.200  50.158  1.00  0.00     0.007 A 
HETATM    8  C10 UNL     1      21.608   2.075  49.334  1.00  0.00     0.043 C 
HETATM    9  C11 UNL     1      21.686   1.002  50.399  1.00  0.00    -0.018 C 
HETATM   10  C12 UNL     1      22.672   1.103  51.276  1.00  0.00    -0.049 C 
HETATM   11  C17 UNL     1      23.341   2.327  50.783  1.00  0.00     0.024 A 
HETATM   12  C18 UNL     1      23.576   3.558  50.206  1.00  0.00     0.029 A 
HETATM   13  H11 UNL     1      24.241   5.420  51.646  1.00  0.00     0.318 HD
HETATM   14  H14 UNL     1      21.899   7.055  52.120  1.00  0.00     0.160 HD
ENDROOT
BRANCH  10  15
HETATM   15  C13 UNL     1      23.103   0.322  52.421  1.00  0.00     0.018 C 
HETATM   16  C14 UNL     1      22.375  -0.087  53.446  1.00  0.00    -0.019 C 
HETATM   17  C15 UNL     1      22.979  -0.886  54.548  1.00  0.00     0.147 C 
HETATM   18  C16 UNL     1      20.980  -0.019  53.948  1.00  0.00     0.181 C 
HETATM   19  N3  UNL     1      22.066  -1.541  55.173  1.00  0.00    -0.191 NA
HETATM   20  N4  UNL     1      20.824  -1.300  54.631  1.00  0.00    -0.310 N 
HETATM   21  H22 UNL     1      19.933  -1.879  54.672  1.00  0.00     0.182 HD
ENDBRANCH  10  15
BRANCH   1  22
HETATM   22  C4  UNL     1      25.889   4.370  49.704  1.00  0.00     0.036 C 
BRANCH  22  23
HETATM   23  C3  UNL     1      26.661   5.377  48.888  1.00  0.00     0.002 C 
BRANCH  23  24
HETATM   24  C2  UNL     1      28.047   4.868  48.549  1.00  0.00    -0.004 C 
HETATM   25  C1  UNL     1      28.959   5.972  48.121  1.00  0.00     0.005 C 
ENDBRANCH  23  24
ENDBRANCH  22  23
ENDBRANCH   1  22
TORSDOF 4
ENDMDL
MODEL 6
REMARK VINA RESULT:      -7.8      2.275      2.978
REMARK  4 active torsions:
REMARK  status: ('A' for Active; 'I' for Inactive)
REMARK    1  A    between atoms: C2_2  and  C3_3 
REMARK    2  A    between atoms: C3_3  and  C4_4 
REMARK    3  A    between atoms: C4_4  and  C5_5 
REMARK    4  A    between atoms: C12_14  and  C13_15 
ROOT
HETATM    1  C5  UNL     1      26.605   5.700  48.825  1.00  0.00     0.234 C 
HETATM    2  N1  UNL     1      26.857   6.796  49.724  1.00  0.00     0.106 N 
HETATM    3  C6  UNL     1      25.879   7.853  49.626  1.00  0.00     0.392 C 
HETATM    4  N2  UNL     1      25.020   7.701  50.810  1.00  0.00    -0.375 N 
HETATM    5  C7  UNL     1      24.091   6.674  51.137  1.00  0.00     0.081 C 
HETATM    6  C8  UNL     1      23.718   5.445  50.759  1.00  0.00     0.002 C 
HETATM    7  C9  UNL     1      24.302   4.619  49.637  1.00  0.00     0.007 A 
HETATM    8  C10 UNL     1      23.306   3.655  48.972  1.00  0.00     0.043 C 
HETATM    9  C11 UNL     1      23.367   2.572  50.029  1.00  0.00    -0.018 C 
HETATM   10  C12 UNL     1      24.499   2.465  50.707  1.00  0.00    -0.049 C 
HETATM   11  C17 UNL     1      25.292   3.541  50.072  1.00  0.00     0.024 A 
HETATM   12  C18 UNL     1      25.652   4.711  49.434  1.00  0.00     0.029 A 
HETATM   13  H11 UNL     1      26.922   6.385  50.685  1.00  0.00     0.318 HD
HETATM   14  H14 UNL     1      25.073   8.440  51.544  1.00  0.00     0.160 HD
ENDROOT
BRANCH  10  15
HETATM   15  C13 UNL     1      24.973   1.599  51.770  1.00  0.00     0.018 C 
HETATM   16  C14 UNL     1      24.259   0.988  52.700  1.00  0.00    -0.019 C 
HETATM   17  C15 UNL     1      24.908   0.128  53.727  1.00  0.00     0.147 C 
HETATM   18  C16 UNL     1      22.848   0.842  53.135  1.00  0.00     0.181 C 
HETATM   19  N3  UNL     1      24.053  -0.695  54.221  1.00  0.00    -0.191 NA
HETATM   20  N4  UNL     1      22.813  -0.524  53.650  1.00  0.00    -0.310 N 
HETATM   21  H22 UNL     1      21.992  -1.197  53.576  1.00  0.00     0.182 HD
ENDBRANCH  10  15
BRANCH   1  22
HETATM   22  C4  UNL     1      27.945   5.060  48.496  1.00  0.00     0.036 C 
BRANCH  22  23
HETATM   23  C3  UNL     1      28.977   6.101  48.140  1.00  0.00     0.002 C 
BRANCH  23  24
HETATM   24  C2  UNL     1      30.338   5.477  47.914  1.00  0.00    -0.004 C 
HETATM   25  C1  UNL     1      31.311   6.451  47.334  1.00  0.00     0.005 C 
ENDBRANCH  23  24
ENDBRANCH  22  23
ENDBRANCH   1  22
TORSDOF 4
ENDMDL
MODEL 7
REMARK VINA RESULT:      -7.7      1.448      1.727
REMARK  4 active torsions:
REMARK  status: ('A' for Active; 'I' for Inactive)
REMARK    1  A    between atoms: C2_2  and  C3_3 
REMARK    2  A    between atoms: C3_3  and  C4_4 
REMARK    3  A    between atoms: C4_4  and  C5_5 
REMARK    4  A    between atoms: C12_14  and  C13_15 
ROOT
HETATM    1  C5  UNL     1      24.709   6.055  49.715  1.00  0.00     0.234 C 
HETATM    2  N1  UNL     1      24.254   7.108  50.585  1.00  0.00     0.106 N 
HETATM    3  C6  UNL     1      22.942   7.606  50.244  1.00  0.00     0.392 C 
HETATM    4  N2  UNL     1      22.034   7.030  51.247  1.00  0.00    -0.375 N 
HETATM    5  C7  UNL     1      21.630   5.680  51.444  1.00  0.00     0.081 C 
HETATM    6  C8  UNL     1      21.938   4.432  51.068  1.00  0.00     0.002 C 
HETATM    7  C9  UNL     1      23.041   4.010  50.126  1.00  0.00     0.007 A 
HETATM    8  C10 UNL     1      22.744   2.726  49.334  1.00  0.00     0.043 C 
HETATM    9  C11 UNL     1      23.084   1.749  50.440  1.00  0.00    -0.018 C 
HETATM   10  C12 UNL     1      23.983   2.142  51.328  1.00  0.00    -0.049 C 
HETATM   11  C17 UNL     1      24.306   3.486  50.801  1.00  0.00     0.024 A 
HETATM   12  C18 UNL     1      24.212   4.716  50.182  1.00  0.00     0.029 A 
HETATM   13  H11 UNL     1      24.310   6.733  51.561  1.00  0.00     0.318 HD
HETATM   14  H14 UNL     1      21.600   7.682  51.937  1.00  0.00     0.160 HD
ENDROOT
BRANCH  10  15
HETATM   15  C13 UNL     1      24.581   1.545  52.508  1.00  0.00     0.018 C 
HETATM   16  C14 UNL     1      25.840   1.620  52.907  1.00  0.00    -0.019 C 
HETATM   17  C15 UNL     1      26.293   0.941  54.152  1.00  0.00     0.147 C 
HETATM   18  C16 UNL     1      27.129   2.225  52.491  1.00  0.00     0.181 C 
HETATM   19  N3  UNL     1      27.373   1.486  54.586  1.00  0.00    -0.191 NA
HETATM   20  N4  UNL     1      27.769   2.521  53.769  1.00  0.00    -0.310 N 
HETATM   21  H22 UNL     1      28.392   3.358  53.976  1.00  0.00     0.182 HD
ENDBRANCH  10  15
BRANCH   1  22
HETATM   22  C4  UNL     1      26.229   6.111  49.685  1.00  0.00     0.036 C 
BRANCH  22  23
HETATM   23  C3  UNL     1      26.800   5.035  48.795  1.00  0.00     0.002 C 
BRANCH  23  24
HETATM   24  C2  UNL     1      28.261   5.287  48.489  1.00  0.00    -0.004 C 
HETATM   25  C1  UNL     1      28.477   6.623  47.854  1.00  0.00     0.005 C 
ENDBRANCH  23  24
ENDBRANCH  22  23
ENDBRANCH   1  22
TORSDOF 4
ENDMDL
MODEL 8
REMARK VINA RESULT:      -7.6      1.625      2.512
REMARK  4 active torsions:
REMARK  status: ('A' for Active; 'I' for Inactive)
REMARK    1  A    between atoms: C2_2  and  C3_3 
REMARK    2  A    between atoms: C3_3  and  C4_4 
REMARK    3  A    between atoms: C4_4  and  C5_5 
REMARK    4  A    between atoms: C12_14  and  C13_15 
ROOT
HETATM    1  C5  UNL     1      26.617   6.041  48.743  1.00  0.00     0.234 C 
HETATM    2  N1  UNL     1      26.887   7.068  49.715  1.00  0.00     0.106 N 
HETATM    3  C6  UNL     1      26.014   8.212  49.594  1.00  0.00     0.392 C 
HETATM    4  N2  UNL     1      25.049   8.085  50.696  1.00  0.00    -0.375 N 
HETATM    5  C7  UNL     1      24.011   7.131  50.895  1.00  0.00     0.081 C 
HETATM    6  C8  UNL     1      23.567   5.959  50.425  1.00  0.00     0.002 C 
HETATM    7  C9  UNL     1      24.171   5.134  49.312  1.00  0.00     0.007 A 
HETATM    8  C10 UNL     1      23.155   4.294  48.521  1.00  0.00     0.043 C 
HETATM    9  C11 UNL     1      23.035   3.164  49.522  1.00  0.00    -0.018 C 
HETATM   10  C12 UNL     1      24.092   2.926  50.282  1.00  0.00    -0.049 C 
HETATM   11  C17 UNL     1      25.024   3.954  49.769  1.00  0.00     0.024 A 
HETATM   12  C18 UNL     1      25.536   5.114  49.223  1.00  0.00     0.029 A 
HETATM   13  H11 UNL     1      26.835   6.611  50.656  1.00  0.00     0.318 HD
HETATM   14  H14 UNL     1      25.102   8.783  51.470  1.00  0.00     0.160 HD
ENDROOT
BRANCH  10  15
HETATM   15  C13 UNL     1      24.400   1.975  51.333  1.00  0.00     0.018 C 
HETATM   16  C14 UNL     1      25.544   1.816  51.977  1.00  0.00    -0.019 C 
HETATM   17  C15 UNL     1      25.693   0.782  53.037  1.00  0.00     0.147 C 
HETATM   18  C16 UNL     1      26.913   2.387  52.017  1.00  0.00     0.181 C 
HETATM   19  N3  UNL     1      26.672   1.082  53.815  1.00  0.00    -0.191 NA
HETATM   20  N4  UNL     1      27.272   2.258  53.426  1.00  0.00    -0.310 N 
HETATM   21  H22 UNL     1      27.864   2.943  53.983  1.00  0.00     0.182 HD
ENDBRANCH  10  15
BRANCH   1  22
HETATM   22  C4  UNL     1      27.921   5.298  48.490  1.00  0.00     0.036 C 
BRANCH  22  23
HETATM   23  C3  UNL     1      29.007   6.239  48.030  1.00  0.00     0.002 C 
BRANCH  23  24
HETATM   24  C2  UNL     1      30.344   5.535  47.932  1.00  0.00    -0.004 C 
HETATM   25  C1  UNL     1      31.338   6.329  47.148  1.00  0.00     0.005 C 
ENDBRANCH  23  24
ENDBRANCH  22  23
ENDBRANCH   1  22
TORSDOF 4
ENDMDL
MODEL 9
REMARK VINA RESULT:      -7.6      3.076      5.941
REMARK  4 active torsions:
REMARK  status: ('A' for Active; 'I' for Inactive)
REMARK    1  A    between atoms: C2_2  and  C3_3 
REMARK    2  A    between atoms: C3_3  and  C4_4 
REMARK    3  A    between atoms: C4_4  and  C5_5 
REMARK    4  A    between atoms: C12_14  and  C13_15 
ROOT
HETATM    1  C5  UNL     1      21.032   1.282  50.840  1.00  0.00     0.234 C 
HETATM    2  N1  UNL     1      20.999   1.160  49.406  1.00  0.00     0.106 N 
HETATM    3  C6  UNL     1      20.875   2.428  48.727  1.00  0.00     0.392 C 
HETATM    4  N2  UNL     1      22.216   2.720  48.196  1.00  0.00    -0.375 N 
HETATM    5  C7  UNL     1      23.419   3.041  48.885  1.00  0.00     0.081 C 
HETATM    6  C8  UNL     1      23.950   3.044  50.114  1.00  0.00     0.002 C 
HETATM    7  C9  UNL     1      23.280   2.613  51.398  1.00  0.00     0.007 A 
HETATM    8  C10 UNL     1      23.776   3.351  52.653  1.00  0.00     0.043 C 
HETATM    9  C11 UNL     1      25.044   2.546  52.846  1.00  0.00    -0.018 C 
HETATM   10  C12 UNL     1      25.030   1.296  52.410  1.00  0.00    -0.049 C 
HETATM   11  C17 UNL     1      23.649   1.215  51.885  1.00  0.00     0.024 A 
HETATM   12  C18 UNL     1      22.430   1.543  51.328  1.00  0.00     0.029 A 
HETATM   13  H11 UNL     1      21.860   0.630  49.132  1.00  0.00     0.318 HD
HETATM   14  H14 UNL     1      22.342   2.696  47.161  1.00  0.00     0.160 HD
ENDROOT
BRANCH  10  15
HETATM   15  C13 UNL     1      25.992   0.211  52.393  1.00  0.00     0.018 C 
HETATM   16  C14 UNL     1      27.108   0.103  53.094  1.00  0.00    -0.019 C 
HETATM   17  C15 UNL     1      27.992  -1.086  52.955  1.00  0.00     0.147 C 
HETATM   18  C16 UNL     1      27.890   0.855  54.107  1.00  0.00     0.181 C 
HETATM   19  N3  UNL     1      28.735  -1.211  53.996  1.00  0.00    -0.191 NA
HETATM   20  N4  UNL     1      28.482  -0.212  54.909  1.00  0.00    -0.310 N 
HETATM   21  H22 UNL     1      28.658  -0.180  55.957  1.00  0.00     0.182 HD
ENDBRANCH  10  15
BRANCH   1  22
HETATM   22  C4  UNL     1      20.466  -0.004  51.422  1.00  0.00     0.036 C 
BRANCH  22  23
HETATM   23  C3  UNL     1      19.373   0.281  52.422  1.00  0.00     0.002 C 
BRANCH  23  24
HETATM   24  C2  UNL     1      18.109  -0.485  52.094  1.00  0.00    -0.004 C 
HETATM   25  C1  UNL     1      17.675  -1.360  53.224  1.00  0.00     0.005 C 
ENDBRANCH  23  24
ENDBRANCH  22  23
ENDBRANCH   1  22
TORSDOF 4
ENDMDL
