MODEL 1
REMARK VINA RESULT:      -8.6      0.000      0.000
REMARK  6 active torsions:
REMARK  status: ('A' for Active; 'I' for Inactive)
REMARK    1  A    between atoms: O1_2  and  C2_3 
REMARK    2  A    between atoms: C5_6  and  C6_7 
REMARK    3  A    between atoms: C9_12  and  C10_13 
REMARK    4  A    between atoms: C11_14  and  C12_15 
REMARK    5  A    between atoms: C12_15  and  N2_16 
REMARK    6  A    between atoms: N2_16  and  C13_17 
ROOT
HETATM    1  C6  UNL     1      23.863  -0.135  53.553  1.00  0.00    -0.009 C 
HETATM    2  C7  UNL     1      23.072  -0.830  54.347  1.00  0.00     0.087 C 
HETATM    3  C8  UNL     1      21.629  -1.037  54.400  1.00  0.00     0.246 C 
HETATM    4  O2  UNL     1      21.234  -2.027  55.068  1.00  0.00    -0.268 OA
HETATM    5  N1  UNL     1      20.626  -0.234  53.774  1.00  0.00    -0.323 N 
HETATM    6  C9  UNL     1      20.844   0.579  52.631  1.00  0.00     0.045 C 
HETATM    7  C19 UNL     1      21.959   0.966  52.038  1.00  0.00     0.003 A 
HETATM    8  C20 UNL     1      23.144   1.425  51.341  1.00  0.00     0.028 A 
HETATM    9  C21 UNL     1      23.344   0.661  52.430  1.00  0.00    -0.011 A 
HETATM   10  H7  UNL     1      19.667  -0.280  54.228  1.00  0.00     0.169 HD
ENDROOT
BRANCH   6  11
HETATM   11  C10 UNL     1      19.595   1.048  52.048  1.00  0.00     0.028 C 
HETATM   12  C11 UNL     1      19.334   0.980  50.757  1.00  0.00    -0.005 C 
BRANCH  12  13
HETATM   13  C12 UNL     1      18.244   1.328  49.819  1.00  0.00     0.147 C 
BRANCH  13  14
HETATM   14  N2  UNL     1      18.759   2.130  48.730  1.00  0.00    -0.386 N 
HETATM   15  H12 UNL     1      18.069   2.375  47.974  1.00  0.00     0.160 HD
BRANCH  14  16
HETATM   16  C13 UNL     1      20.080   2.611  48.584  1.00  0.00     0.029 A 
HETATM   17  C14 UNL     1      21.133   1.917  48.035  1.00  0.00     0.029 A 
HETATM   18  C15 UNL     1      22.416   2.379  47.883  1.00  0.00     0.004 A 
HETATM   19  C16 UNL     1      22.671   3.662  48.324  1.00  0.00     0.019 A 
HETATM   20  C17 UNL     1      21.669   4.413  48.881  1.00  0.00     0.013 A 
HETATM   21 BR1  UNL     1      22.006   6.192  49.496  1.00  0.00    -0.051 Br
HETATM   22  C18 UNL     1      20.417   3.881  48.997  1.00  0.00     0.048 A 
ENDBRANCH  14  16
ENDBRANCH  13  14
ENDBRANCH  12  13
ENDBRANCH   6  11
BRANCH   1  23
HETATM   23  C5  UNL     1      25.308  -0.093  53.717  1.00  0.00    -0.025 A 
HETATM   24  C4  UNL     1      26.120  -0.354  52.624  1.00  0.00     0.015 A 
HETATM   25  C3  UNL     1      27.485  -0.336  52.679  1.00  0.00     0.037 A 
HETATM   26  C2  UNL     1      28.141  -0.048  53.857  1.00  0.00     0.068 A 
HETATM   27  C23 UNL     1      27.365   0.216  54.958  1.00  0.00     0.037 A 
HETATM   28  C22 UNL     1      25.996   0.185  54.851  1.00  0.00     0.015 A 
BRANCH  26  29
HETATM   29  O1  UNL     1      29.521  -0.012  53.989  1.00  0.00    -0.356 OA
HETATM   30  C1  UNL     1      30.224  -1.221  53.731  1.00  0.00     0.210 C 
ENDBRANCH  26  29
ENDBRANCH   1  23
TORSDOF 6
ENDMDL
MODEL 2
REMARK VINA RESULT:      -8.6      4.886      7.694
REMARK  6 active torsions:
REMARK  status: ('A' for Active; 'I' for Inactive)
REMARK    1  A    between atoms: O1_2  and  C2_3 
REMARK    2  A    between atoms: C5_6  and  C6_7 
REMARK    3  A    between atoms: C9_12  and  C10_13 
REMARK    4  A    between atoms: C11_14  and  C12_15 
REMARK    5  A    between atoms: C12_15  and  N2_16 
REMARK    6  A    between atoms: N2_16  and  C13_17 
ROOT
HETATM    1  C6  UNL     1      25.595   4.857  49.264  1.00  0.00    -0.009 C 
HETATM    2  C7  UNL     1      24.355   5.166  48.935  1.00  0.00     0.087 C 
HETATM    3  C8  UNL     1      23.053   4.609  49.283  1.00  0.00     0.246 C 
HETATM    4  O2  UNL     1      22.058   5.350  49.072  1.00  0.00    -0.268 OA
HETATM    5  N1  UNL     1      22.795   3.317  49.835  1.00  0.00    -0.323 N 
HETATM    6  C9  UNL     1      23.735   2.557  50.579  1.00  0.00     0.045 C 
HETATM    7  C19 UNL     1      25.037   2.707  50.746  1.00  0.00     0.003 A 
HETATM    8  C20 UNL     1      26.465   2.814  50.971  1.00  0.00     0.028 A 
HETATM    9  C21 UNL     1      25.911   3.738  50.165  1.00  0.00    -0.011 A 
HETATM   10  H7  UNL     1      21.820   2.937  49.651  1.00  0.00     0.169 HD
ENDROOT
BRANCH   6  11
HETATM   11  C10 UNL     1      23.113   1.427  51.253  1.00  0.00     0.028 C 
HETATM   12  C11 UNL     1      23.354   1.121  52.514  1.00  0.00    -0.005 C 
BRANCH  12  13
HETATM   13  C12 UNL     1      22.946   0.109  53.514  1.00  0.00     0.147 C 
BRANCH  13  14
HETATM   14  N2  UNL     1      24.098  -0.340  54.266  1.00  0.00    -0.386 N 
HETATM   15  H12 UNL     1      23.907  -0.651  55.254  1.00  0.00     0.160 HD
BRANCH  14  16
HETATM   16  C13 UNL     1      25.434  -0.403  53.813  1.00  0.00     0.029 A 
HETATM   17  C14 UNL     1      26.000  -1.445  53.115  1.00  0.00     0.029 A 
HETATM   18  C15 UNL     1      27.295  -1.510  52.666  1.00  0.00     0.004 A 
HETATM   19  C16 UNL     1      28.103  -0.427  52.942  1.00  0.00     0.019 A 
HETATM   20  C17 UNL     1      27.608   0.648  53.632  1.00  0.00     0.013 A 
HETATM   21 BR1  UNL     1      28.716   2.157  54.022  1.00  0.00    -0.051 Br
HETATM   22  C18 UNL     1      26.307   0.638  54.046  1.00  0.00     0.048 A 
ENDBRANCH  14  16
ENDBRANCH  13  14
ENDBRANCH  12  13
ENDBRANCH   6  11
BRANCH   1  23
HETATM   23  C5  UNL     1      26.750   5.589  48.768  1.00  0.00    -0.025 A 
HETATM   24  C4  UNL     1      27.948   4.917  48.585  1.00  0.00     0.015 A 
HETATM   25  C3  UNL     1      29.085   5.518  48.122  1.00  0.00     0.037 A 
HETATM   26  C2  UNL     1      29.097   6.860  47.807  1.00  0.00     0.068 A 
HETATM   27  C23 UNL     1      27.926   7.554  47.978  1.00  0.00     0.037 A 
HETATM   28  C22 UNL     1      26.810   6.904  48.445  1.00  0.00     0.015 A 
BRANCH  26  29
HETATM   29  O1  UNL     1      30.212   7.536  47.334  1.00  0.00    -0.356 OA
HETATM   30  C1  UNL     1      30.298   8.924  47.634  1.00  0.00     0.210 C 
ENDBRANCH  26  29
ENDBRANCH   1  23
TORSDOF 6
ENDMDL
MODEL 3
REMARK VINA RESULT:      -8.4      4.083      5.439
REMARK  6 active torsions:
REMARK  status: ('A' for Active; 'I' for Inactive)
REMARK    1  A    between atoms: O1_2  and  C2_3 
REMARK    2  A    between atoms: C5_6  and  C6_7 
REMARK    3  A    between atoms: C9_12  and  C10_13 
REMARK    4  A    between atoms: C11_14  and  C12_15 
REMARK    5  A    between atoms: C12_15  and  N2_16 
REMARK    6  A    between atoms: N2_16  and  C13_17 
ROOT
HETATM    1  C6  UNL     1      22.970   0.200  52.904  1.00  0.00    -0.009 C 
HETATM    2  C7  UNL     1      22.505  -0.511  53.913  1.00  0.00     0.087 C 
HETATM    3  C8  UNL     1      21.201  -1.088  54.221  1.00  0.00     0.246 C 
HETATM    4  O2  UNL     1      21.188  -1.994  55.093  1.00  0.00    -0.268 OA
HETATM    5  N1  UNL     1      19.948  -0.731  53.636  1.00  0.00    -0.323 N 
HETATM    6  C9  UNL     1      19.797  -0.134  52.356  1.00  0.00     0.045 C 
HETATM    7  C19 UNL     1      20.682   0.415  51.544  1.00  0.00     0.003 A 
HETATM    8  C20 UNL     1      21.599   1.031  50.606  1.00  0.00     0.028 A 
HETATM    9  C21 UNL     1      22.127   0.584  51.760  1.00  0.00    -0.011 A 
HETATM   10  H7  UNL     1      19.096  -0.944  54.234  1.00  0.00     0.169 HD
ENDROOT
BRANCH   6  11
HETATM   11  C10 UNL     1      18.413  -0.149  51.906  1.00  0.00     0.028 C 
HETATM   12  C11 UNL     1      17.525  -1.021  52.344  1.00  0.00    -0.005 C 
BRANCH  12  13
HETATM   13  C12 UNL     1      16.096  -1.353  52.147  1.00  0.00     0.147 C 
BRANCH  13  14
HETATM   14  N2  UNL     1      15.299  -0.775  53.207  1.00  0.00    -0.386 N 
HETATM   15  H12 UNL     1      15.287  -1.307  54.115  1.00  0.00     0.160 HD
BRANCH  14  16
HETATM   16  C13 UNL     1      14.545   0.419  53.146  1.00  0.00     0.029 A 
HETATM   17  C14 UNL     1      14.868   1.539  52.415  1.00  0.00     0.029 A 
HETATM   18  C15 UNL     1      14.139   2.699  52.345  1.00  0.00     0.004 A 
HETATM   19  C16 UNL     1      12.971   2.743  53.078  1.00  0.00     0.019 A 
HETATM   20  C17 UNL     1      12.585   1.665  53.831  1.00  0.00     0.013 A 
HETATM   21 BR1  UNL     1      10.970   1.711  54.853  1.00  0.00    -0.051 Br
HETATM   22  C18 UNL     1      13.366   0.546  53.848  1.00  0.00     0.048 A 
ENDBRANCH  14  16
ENDBRANCH  13  14
ENDBRANCH  12  13
ENDBRANCH   6  11
BRANCH   1  23
HETATM   23  C5  UNL     1      24.346   0.666  52.833  1.00  0.00    -0.025 A 
HETATM   24  C4  UNL     1      24.597   1.977  52.458  1.00  0.00     0.015 A 
HETATM   25  C3  UNL     1      25.854   2.506  52.365  1.00  0.00     0.037 A 
HETATM   26  C2  UNL     1      26.966   1.740  52.647  1.00  0.00     0.068 A 
HETATM   27  C23 UNL     1      26.750   0.437  53.021  1.00  0.00     0.037 A 
HETATM   28  C22 UNL     1      25.467  -0.047  53.100  1.00  0.00     0.015 A 
BRANCH  26  29
HETATM   29  O1  UNL     1      28.269   2.207  52.574  1.00  0.00    -0.356 OA
HETATM   30  C1  UNL     1      29.038   2.159  53.768  1.00  0.00     0.210 C 
ENDBRANCH  26  29
ENDBRANCH   1  23
TORSDOF 6
ENDMDL
MODEL 4
REMARK VINA RESULT:      -8.4      4.260      5.878
REMARK  6 active torsions:
REMARK  status: ('A' for Active; 'I' for Inactive)
REMARK    1  A    between atoms: O1_2  and  C2_3 
REMARK    2  A    between atoms: C5_6  and  C6_7 
REMARK    3  A    between atoms: C9_12  and  C10_13 
REMARK    4  A    between atoms: C11_14  and  C12_15 
REMARK    5  A    between atoms: C12_15  and  N2_16 
REMARK    6  A    between atoms: N2_16  and  C13_17 
ROOT
HETATM    1  C6  UNL     1      23.889   0.447  52.810  1.00  0.00    -0.009 C 
HETATM    2  C7  UNL     1      23.544   1.272  51.841  1.00  0.00     0.087 C 
HETATM    3  C8  UNL     1      22.263   1.684  51.279  1.00  0.00     0.246 C 
HETATM    4  O2  UNL     1      22.270   2.742  50.596  1.00  0.00    -0.268 OA
HETATM    5  N1  UNL     1      21.009   1.015  51.425  1.00  0.00    -0.323 N 
HETATM    6  C9  UNL     1      20.682   0.144  52.498  1.00  0.00     0.045 C 
HETATM    7  C19 UNL     1      21.438  -0.416  53.425  1.00  0.00     0.003 A 
HETATM    8  C20 UNL     1      22.210  -1.061  54.469  1.00  0.00     0.028 A 
HETATM    9  C21 UNL     1      22.894  -0.300  53.596  1.00  0.00    -0.011 A 
HETATM   10  H7  UNL     1      20.303   1.211  50.656  1.00  0.00     0.169 HD
ENDROOT
BRANCH   6  11
HETATM   11  C10 UNL     1      19.259  -0.159  52.540  1.00  0.00     0.028 C 
HETATM   12  C11 UNL     1      18.487  -0.133  51.471  1.00  0.00    -0.005 C 
BRANCH  12  13
HETATM   13  C12 UNL     1      17.070  -0.366  51.112  1.00  0.00     0.147 C 
BRANCH  13  14
HETATM   14  N2  UNL     1      16.353  -0.919  52.241  1.00  0.00    -0.386 N 
HETATM   15  H12 UNL     1      15.845  -0.224  52.847  1.00  0.00     0.160 HD
BRANCH  14  16
HETATM   16  C13 UNL     1      16.269  -2.281  52.606  1.00  0.00     0.029 A 
HETATM   17  C14 UNL     1      17.151  -2.952  53.422  1.00  0.00     0.029 A 
HETATM   18  C15 UNL     1      17.072  -4.273  53.786  1.00  0.00     0.004 A 
HETATM   19  C16 UNL     1      16.007  -4.993  53.286  1.00  0.00     0.019 A 
HETATM   20  C17 UNL     1      15.088  -4.390  52.468  1.00  0.00     0.013 A 
HETATM   21 BR1  UNL     1      13.607  -5.375  51.767  1.00  0.00    -0.051 Br
HETATM   22  C18 UNL     1      15.236  -3.071  52.151  1.00  0.00     0.048 A 
ENDBRANCH  14  16
ENDBRANCH  13  14
ENDBRANCH  12  13
ENDBRANCH   6  11
BRANCH   1  23
HETATM   23  C5  UNL     1      25.273   0.204  53.186  1.00  0.00    -0.025 A 
HETATM   24  C4  UNL     1      25.687   0.504  54.475  1.00  0.00     0.015 A 
HETATM   25  C3  UNL     1      26.963   0.308  54.921  1.00  0.00     0.037 A 
HETATM   26  C2  UNL     1      27.931  -0.212  54.087  1.00  0.00     0.068 A 
HETATM   27  C23 UNL     1      27.553  -0.519  52.804  1.00  0.00     0.037 A 
HETATM   28  C22 UNL     1      26.257  -0.304  52.404  1.00  0.00     0.015 A 
BRANCH  26  29
HETATM   29  O1  UNL     1      29.245  -0.436  54.469  1.00  0.00    -0.356 OA
HETATM   30  C1  UNL     1      30.146  -0.864  53.455  1.00  0.00     0.210 C 
ENDBRANCH  26  29
ENDBRANCH   1  23
TORSDOF 6
ENDMDL
MODEL 5
REMARK VINA RESULT:      -8.4      3.372      5.920
REMARK  6 active torsions:
REMARK  status: ('A' for Active; 'I' for Inactive)
REMARK    1  A    between atoms: O1_2  and  C2_3 
REMARK    2  A    between atoms: C5_6  and  C6_7 
REMARK    3  A    between atoms: C9_12  and  C10_13 
REMARK    4  A    between atoms: C11_14  and  C12_15 
REMARK    5  A    between atoms: C12_15  and  N2_16 
REMARK    6  A    between atoms: N2_16  and  C13_17 
ROOT
HETATM    1  C6  UNL     1      25.567   2.281  51.193  1.00  0.00    -0.009 C 
HETATM    2  C7  UNL     1      26.526   1.513  51.672  1.00  0.00     0.087 C 
HETATM    3  C8  UNL     1      26.535   0.305  52.489  1.00  0.00     0.246 C 
HETATM    4  O2  UNL     1      27.601  -0.364  52.478  1.00  0.00    -0.268 OA
HETATM    5  N1  UNL     1      25.465  -0.191  53.294  1.00  0.00    -0.323 N 
HETATM    6  C9  UNL     1      24.092   0.100  53.077  1.00  0.00     0.045 C 
HETATM    7  C19 UNL     1      23.506   1.001  52.309  1.00  0.00     0.003 A 
HETATM    8  C20 UNL     1      22.799   1.964  51.488  1.00  0.00     0.028 A 
HETATM    9  C21 UNL     1      24.143   2.004  51.443  1.00  0.00    -0.011 A 
HETATM   10  H7  UNL     1      25.761  -0.818  54.099  1.00  0.00     0.169 HD
ENDROOT
BRANCH   6  11
HETATM   11  C10 UNL     1      23.220  -0.762  53.861  1.00  0.00     0.028 C 
HETATM   12  C11 UNL     1      21.925  -0.868  53.637  1.00  0.00    -0.005 C 
BRANCH  12  13
HETATM   13  C12 UNL     1      20.754  -1.594  54.178  1.00  0.00     0.147 C 
BRANCH  13  14
HETATM   14  N2  UNL     1      19.563  -0.782  54.054  1.00  0.00    -0.386 N 
HETATM   15  H12 UNL     1      19.195  -0.368  54.950  1.00  0.00     0.160 HD
BRANCH  14  16
HETATM   16  C13 UNL     1      18.854  -0.492  52.867  1.00  0.00     0.029 A 
HETATM   17  C14 UNL     1      17.623  -0.998  52.520  1.00  0.00     0.029 A 
HETATM   18  C15 UNL     1      16.925  -0.717  51.373  1.00  0.00     0.004 A 
HETATM   19  C16 UNL     1      17.518   0.155  50.484  1.00  0.00     0.019 A 
HETATM   20  C17 UNL     1      18.745   0.700  50.763  1.00  0.00     0.013 A 
HETATM   21 BR1  UNL     1      19.579   1.911  49.541  1.00  0.00    -0.051 Br
HETATM   22  C18 UNL     1      19.375   0.370  51.927  1.00  0.00     0.048 A 
ENDBRANCH  14  16
ENDBRANCH  13  14
ENDBRANCH  12  13
ENDBRANCH   6  11
BRANCH   1  23
HETATM   23  C5  UNL     1      25.828   3.461  50.384  1.00  0.00    -0.025 A 
HETATM   24  C4  UNL     1      24.905   4.495  50.379  1.00  0.00     0.015 A 
HETATM   25  C3  UNL     1      25.064   5.642  49.654  1.00  0.00     0.037 A 
HETATM   26  C2  UNL     1      26.181   5.833  48.867  1.00  0.00     0.068 A 
HETATM   27  C23 UNL     1      27.114   4.826  48.850  1.00  0.00     0.037 A 
HETATM   28  C22 UNL     1      26.908   3.692  49.598  1.00  0.00     0.015 A 
BRANCH  26  29
HETATM   29  O1  UNL     1      26.408   6.968  48.104  1.00  0.00    -0.356 OA
HETATM   30  C1  UNL     1      27.728   7.157  47.610  1.00  0.00     0.210 C 
ENDBRANCH  26  29
ENDBRANCH   1  23
TORSDOF 6
ENDMDL
MODEL 6
REMARK VINA RESULT:      -8.3      5.708      7.991
REMARK  6 active torsions:
REMARK  status: ('A' for Active; 'I' for Inactive)
REMARK    1  A    between atoms: O1_2  and  C2_3 
REMARK    2  A    between atoms: C5_6  and  C6_7 
REMARK    3  A    between atoms: C9_12  and  C10_13 
REMARK    4  A    between atoms: C11_14  and  C12_15 
REMARK    5  A    between atoms: C12_15  and  N2_16 
REMARK    6  A    between atoms: N2_16  and  C13_17 
ROOT
HETATM    1  C6  UNL     1      23.923   1.609  52.255  1.00  0.00    -0.009 C 
HETATM    2  C7  UNL     1      25.022   1.657  52.984  1.00  0.00     0.087 C 
HETATM    3  C8  UNL     1      26.310   2.320  52.819  1.00  0.00     0.246 C 
HETATM    4  O2  UNL     1      27.010   2.439  53.858  1.00  0.00    -0.268 OA
HETATM    5  N1  UNL     1      26.854   2.845  51.606  1.00  0.00    -0.323 N 
HETATM    6  C9  UNL     1      26.081   3.252  50.487  1.00  0.00     0.045 C 
HETATM    7  C19 UNL     1      24.807   3.059  50.194  1.00  0.00     0.003 A 
HETATM    8  C20 UNL     1      23.420   2.883  49.812  1.00  0.00     0.028 A 
HETATM    9  C21 UNL     1      23.802   2.319  50.972  1.00  0.00    -0.011 A 
HETATM   10  H7  UNL     1      27.914   2.918  51.584  1.00  0.00     0.169 HD
ENDROOT
BRANCH   6  11
HETATM   11  C10 UNL     1      26.869   4.005  49.523  1.00  0.00     0.028 C 
HETATM   12  C11 UNL     1      26.625   5.265  49.222  1.00  0.00    -0.005 C 
BRANCH  12  13
HETATM   13  C12 UNL     1      27.163   6.328  48.344  1.00  0.00     0.147 C 
BRANCH  13  14
HETATM   14  N2  UNL     1      27.985   7.240  49.111  1.00  0.00    -0.386 N 
HETATM   15  H12 UNL     1      27.659   7.434  50.093  1.00  0.00     0.160 HD
BRANCH  14  16
HETATM   16  C13 UNL     1      29.165   7.886  48.679  1.00  0.00     0.029 A 
HETATM   17  C14 UNL     1      30.186   7.303  47.966  1.00  0.00     0.029 A 
HETATM   18  C15 UNL     1      31.332   7.925  47.536  1.00  0.00     0.004 A 
HETATM   19  C16 UNL     1      31.469   9.261  47.852  1.00  0.00     0.019 A 
HETATM   20  C17 UNL     1      30.490   9.908  48.561  1.00  0.00     0.013 A 
HETATM   21 BR1  UNL     1      30.666  11.759  49.006  1.00  0.00    -0.051 Br
HETATM   22  C18 UNL     1      29.379   9.219  48.952  1.00  0.00     0.048 A 
ENDBRANCH  14  16
ENDBRANCH  13  14
ENDBRANCH  12  13
ENDBRANCH   6  11
BRANCH   1  23
HETATM   23  C5  UNL     1      22.744   0.856  52.652  1.00  0.00    -0.025 A 
HETATM   24  C4  UNL     1      22.903  -0.383  53.251  1.00  0.00     0.015 A 
HETATM   25  C3  UNL     1      21.857  -1.162  53.660  1.00  0.00     0.037 A 
HETATM   26  C2  UNL     1      20.555  -0.742  53.491  1.00  0.00     0.068 A 
HETATM   27  C23 UNL     1      20.363   0.483  52.900  1.00  0.00     0.037 A 
HETATM   28  C22 UNL     1      21.448   1.228  52.507  1.00  0.00     0.015 A 
BRANCH  26  29
HETATM   29  O1  UNL     1      19.445  -1.477  53.879  1.00  0.00    -0.356 OA
HETATM   30  C1  UNL     1      18.225  -1.209  53.200  1.00  0.00     0.210 C 
ENDBRANCH  26  29
ENDBRANCH   1  23
TORSDOF 6
ENDMDL
MODEL 7
REMARK VINA RESULT:      -8.3      3.152      4.324
REMARK  6 active torsions:
REMARK  status: ('A' for Active; 'I' for Inactive)
REMARK    1  A    between atoms: O1_2  and  C2_3 
REMARK    2  A    between atoms: C5_6  and  C6_7 
REMARK    3  A    between atoms: C9_12  and  C10_13 
REMARK    4  A    between atoms: C11_14  and  C12_15 
REMARK    5  A    between atoms: C12_15  and  N2_16 
REMARK    6  A    between atoms: N2_16  and  C13_17 
ROOT
HETATM    1  C6  UNL     1      23.529   0.443  52.994  1.00  0.00    -0.009 C 
HETATM    2  C7  UNL     1      22.951   1.253  52.129  1.00  0.00     0.087 C 
HETATM    3  C8  UNL     1      21.562   1.516  51.771  1.00  0.00     0.246 C 
HETATM    4  O2  UNL     1      21.342   2.591  51.154  1.00  0.00    -0.268 OA
HETATM    5  N1  UNL     1      20.434   0.683  52.046  1.00  0.00    -0.323 N 
HETATM    6  C9  UNL     1      20.372  -0.264  53.101  1.00  0.00     0.045 C 
HETATM    7  C19 UNL     1      21.316  -0.757  53.884  1.00  0.00     0.003 A 
HETATM    8  C20 UNL     1      22.301  -1.337  54.775  1.00  0.00     0.028 A 
HETATM    9  C21 UNL     1      22.756  -0.459  53.863  1.00  0.00    -0.011 A 
HETATM   10  H7  UNL     1      19.608   0.815  51.392  1.00  0.00     0.169 HD
ENDROOT
BRANCH   6  11
HETATM   11  C10 UNL     1      19.018  -0.753  53.318  1.00  0.00     0.028 C 
HETATM   12  C11 UNL     1      18.038  -0.558  52.457  1.00  0.00    -0.005 C 
BRANCH  12  13
HETATM   13  C12 UNL     1      16.600  -0.876  52.313  1.00  0.00     0.147 C 
BRANCH  13  14
HETATM   14  N2  UNL     1      15.937   0.150  51.538  1.00  0.00    -0.386 N 
HETATM   15  H12 UNL     1      15.371  -0.188  50.718  1.00  0.00     0.160 HD
BRANCH  14  16
HETATM   16  C13 UNL     1      15.974   1.544  51.770  1.00  0.00     0.029 A 
HETATM   17  C14 UNL     1      16.959   2.405  51.345  1.00  0.00     0.029 A 
HETATM   18  C15 UNL     1      16.998   3.760  51.561  1.00  0.00     0.004 A 
HETATM   19  C16 UNL     1      15.950   4.306  52.271  1.00  0.00     0.019 A 
HETATM   20  C17 UNL     1      14.932   3.509  52.726  1.00  0.00     0.013 A 
HETATM   21 BR1  UNL     1      13.473   4.252  53.712  1.00  0.00    -0.051 Br
HETATM   22  C18 UNL     1      14.965   2.169  52.471  1.00  0.00     0.048 A 
ENDBRANCH  14  16
ENDBRANCH  13  14
ENDBRANCH  12  13
ENDBRANCH   6  11
BRANCH   1  23
HETATM   23  C5  UNL     1      24.972   0.368  53.165  1.00  0.00    -0.025 A 
HETATM   24  C4  UNL     1      25.669   1.508  53.534  1.00  0.00     0.015 A 
HETATM   25  C3  UNL     1      27.022   1.535  53.721  1.00  0.00     0.037 A 
HETATM   26  C2  UNL     1      27.783   0.398  53.546  1.00  0.00     0.068 A 
HETATM   27  C23 UNL     1      27.122  -0.747  53.179  1.00  0.00     0.037 A 
HETATM   28  C22 UNL     1      25.760  -0.723  53.005  1.00  0.00     0.015 A 
BRANCH  26  29
HETATM   29  O1  UNL     1      29.158   0.351  53.716  1.00  0.00    -0.356 OA
HETATM   30  C1  UNL     1      29.782  -0.917  53.564  1.00  0.00     0.210 C 
ENDBRANCH  26  29
ENDBRANCH   1  23
TORSDOF 6
ENDMDL
MODEL 8
REMARK VINA RESULT:      -8.2      6.644      8.736
REMARK  6 active torsions:
REMARK  status: ('A' for Active; 'I' for Inactive)
REMARK    1  A    between atoms: O1_2  and  C2_3 
REMARK    2  A    between atoms: C5_6  and  C6_7 
REMARK    3  A    between atoms: C9_12  and  C10_13 
REMARK    4  A    between atoms: C11_14  and  C12_15 
REMARK    5  A    between atoms: C12_15  and  N2_16 
REMARK    6  A    between atoms: N2_16  and  C13_17 
ROOT
HETATM    1  C6  UNL     1      23.827   2.760  50.412  1.00  0.00    -0.009 C 
HETATM    2  C7  UNL     1      23.093   3.547  49.650  1.00  0.00     0.087 C 
HETATM    3  C8  UNL     1      23.406   4.633  48.729  1.00  0.00     0.246 C 
HETATM    4  O2  UNL     1      22.504   4.942  47.907  1.00  0.00    -0.268 OA
HETATM    5  N1  UNL     1      24.625   5.376  48.665  1.00  0.00    -0.323 N 
HETATM    6  C9  UNL     1      25.882   4.900  49.119  1.00  0.00     0.045 C 
HETATM    7  C19 UNL     1      26.200   3.856  49.863  1.00  0.00     0.003 A 
HETATM    8  C20 UNL     1      26.616   2.728  50.673  1.00  0.00     0.028 A 
HETATM    9  C21 UNL     1      25.294   2.866  50.466  1.00  0.00    -0.011 A 
HETATM   10  H7  UNL     1      24.537   6.346  48.240  1.00  0.00     0.169 HD
ENDROOT
BRANCH   6  11
HETATM   11  C10 UNL     1      26.981   5.743  48.669  1.00  0.00     0.028 C 
HETATM   12  C11 UNL     1      28.215   5.300  48.529  1.00  0.00    -0.005 C 
BRANCH  12  13
HETATM   13  C12 UNL     1      29.543   5.808  48.118  1.00  0.00     0.147 C 
BRANCH  13  14
HETATM   14  N2  UNL     1      30.026   6.776  49.080  1.00  0.00    -0.386 N 
HETATM   15  H12 UNL     1      30.089   6.441  50.075  1.00  0.00     0.160 HD
BRANCH  14  16
HETATM   16  C13 UNL     1      30.416   8.108  48.817  1.00  0.00     0.029 A 
HETATM   17  C14 UNL     1      29.771   9.239  49.262  1.00  0.00     0.029 A 
HETATM   18  C15 UNL     1      30.147  10.536  49.018  1.00  0.00     0.004 A 
HETATM   19  C16 UNL     1      31.280  10.720  48.253  1.00  0.00     0.019 A 
HETATM   20  C17 UNL     1      31.976   9.639  47.775  1.00  0.00     0.013 A 
HETATM   21 BR1  UNL     1      33.548   9.879  46.714  1.00  0.00    -0.051 Br
HETATM   22  C18 UNL     1      31.537   8.379  48.062  1.00  0.00     0.048 A 
ENDBRANCH  14  16
ENDBRANCH  13  14
ENDBRANCH  12  13
ENDBRANCH   6  11
BRANCH   1  23
HETATM   23  C5  UNL     1      23.257   1.726  51.262  1.00  0.00    -0.025 A 
HETATM   24  C4  UNL     1      22.078   1.107  50.877  1.00  0.00     0.015 A 
HETATM   25  C3  UNL     1      21.469   0.126  51.606  1.00  0.00     0.037 A 
HETATM   26  C2  UNL     1      22.013  -0.310  52.796  1.00  0.00     0.068 A 
HETATM   27  C23 UNL     1      23.181   0.283  53.206  1.00  0.00     0.037 A 
HETATM   28  C22 UNL     1      23.754   1.265  52.436  1.00  0.00     0.015 A 
BRANCH  26  29
HETATM   29  O1  UNL     1      21.451  -1.300  53.590  1.00  0.00    -0.356 OA
HETATM   30  C1  UNL     1      22.075  -1.551  54.842  1.00  0.00     0.210 C 
ENDBRANCH  26  29
ENDBRANCH   1  23
TORSDOF 6
ENDMDL
MODEL 9
REMARK VINA RESULT:      -8.2      4.017      5.470
REMARK  6 active torsions:
REMARK  status: ('A' for Active; 'I' for Inactive)
REMARK    1  A    between atoms: O1_2  and  C2_3 
REMARK    2  A    between atoms: C5_6  and  C6_7 
REMARK    3  A    between atoms: C9_12  and  C10_13 
REMARK    4  A    between atoms: C11_14  and  C12_15 
REMARK    5  A    between atoms: C12_15  and  N2_16 
REMARK    6  A    between atoms: N2_16  and  C13_17 
ROOT
HETATM    1  C6  UNL     1      23.618  -0.047  53.297  1.00  0.00    -0.009 C 
HETATM    2  C7  UNL     1      22.890  -0.746  54.145  1.00  0.00     0.087 C 
HETATM    3  C8  UNL     1      21.464  -1.034  54.248  1.00  0.00     0.246 C 
HETATM    4  O2  UNL     1      21.146  -2.012  54.974  1.00  0.00    -0.268 OA
HETATM    5  N1  UNL     1      20.399  -0.325  53.611  1.00  0.00    -0.323 N 
HETATM    6  C9  UNL     1      20.539   0.441  52.424  1.00  0.00     0.045 C 
HETATM    7  C19 UNL     1      21.615   0.862  51.783  1.00  0.00     0.003 A 
HETATM    8  C20 UNL     1      22.752   1.355  51.031  1.00  0.00     0.028 A 
HETATM    9  C21 UNL     1      23.024   0.659  52.150  1.00  0.00    -0.011 A 
HETATM   10  H7  UNL     1      19.456  -0.404  54.093  1.00  0.00     0.169 HD
ENDROOT
BRANCH   6  11
HETATM   11  C10 UNL     1      19.250   0.805  51.854  1.00  0.00     0.028 C 
HETATM   12  C11 UNL     1      18.371  -0.086  51.439  1.00  0.00    -0.005 C 
BRANCH  12  13
HETATM   13  C12 UNL     1      17.021  -0.123  50.834  1.00  0.00     0.147 C 
BRANCH  13  14
HETATM   14  N2  UNL     1      16.078  -0.722  51.754  1.00  0.00    -0.386 N 
HETATM   15  H12 UNL     1      15.759  -0.109  52.548  1.00  0.00     0.160 HD
BRANCH  14  16
HETATM   16  C13 UNL     1      15.549  -2.031  51.692  1.00  0.00     0.029 A 
HETATM   17  C14 UNL     1      14.719  -2.519  50.710  1.00  0.00     0.029 A 
HETATM   18  C15 UNL     1      14.207  -3.790  50.639  1.00  0.00     0.004 A 
HETATM   19  C16 UNL     1      14.561  -4.659  51.651  1.00  0.00     0.019 A 
HETATM   20  C17 UNL     1      15.385  -4.243  52.663  1.00  0.00     0.013 A 
HETATM   21 BR1  UNL     1      15.884  -5.435  54.072  1.00  0.00    -0.051 Br
HETATM   22  C18 UNL     1      15.854  -2.961  52.662  1.00  0.00     0.048 A 
ENDBRANCH  14  16
ENDBRANCH  13  14
ENDBRANCH  12  13
ENDBRANCH   6  11
BRANCH   1  23
HETATM   23  C5  UNL     1      25.061   0.089  53.418  1.00  0.00    -0.025 A 
HETATM   24  C4  UNL     1      25.647  -0.012  54.670  1.00  0.00     0.015 A 
HETATM   25  C3  UNL     1      26.992   0.099  54.883  1.00  0.00     0.037 A 
HETATM   26  C2  UNL     1      27.858   0.323  53.833  1.00  0.00     0.068 A 
HETATM   27  C23 UNL     1      27.309   0.427  52.579  1.00  0.00     0.037 A 
HETATM   28  C22 UNL     1      25.950   0.308  52.418  1.00  0.00     0.015 A 
BRANCH  26  29
HETATM   29  O1  UNL     1      29.232   0.447  53.973  1.00  0.00    -0.356 OA
HETATM   30  C1  UNL     1      30.028  -0.628  53.491  1.00  0.00     0.210 C 
ENDBRANCH  26  29
ENDBRANCH   1  23
TORSDOF 6
ENDMDL
