MODEL 1
REMARK VINA RESULT:      -9.6      0.000      0.000
REMARK  6 active torsions:
REMARK  status: ('A' for Active; 'I' for Inactive)
REMARK    1  A    between atoms: C4_5  and  N2_6 
REMARK    2  A    between atoms: N2_6  and  C5_7 
REMARK    3  A    between atoms: C9_13  and  O1_14 
REMARK    4  A    between atoms: O1_14  and  C10_15 
REMARK    5  A    between atoms: C10_15  and  C11_16 
REMARK    6  A    between atoms: C11_16  and  O2_17 
ROOT
HETATM    1  N1  UNL     1      29.870   2.456  55.032  1.00  0.00    -0.191 NA
HETATM    2  C1  UNL     1      29.208   1.628  54.528  1.00  0.00     0.102 C 
HETATM    3  C2  UNL     1      28.402   0.632  53.893  1.00  0.00     0.085 A 
HETATM    4  C3  UNL     1      27.080   0.883  53.580  1.00  0.00     0.055 A 
HETATM    5  C4  UNL     1      26.219  -0.016  52.947  1.00  0.00     0.035 A 
HETATM    6  C18 UNL     1      26.768  -1.236  52.628  1.00  0.00     0.032 A 
HETATM    7  C19 UNL     1      28.080  -1.509  52.929  1.00  0.00     0.046 A 
HETATM    8  C20 UNL     1      28.919  -0.599  53.559  1.00  0.00     0.137 A 
HETATM    9  F1  UNL     1      30.217  -0.849  53.863  1.00  0.00    -0.204 F 
ENDROOT
BRANCH   5  10
HETATM   10  N2  UNL     1      24.890   0.440  52.705  1.00  0.00    -0.340 N 
HETATM   11  H2  UNL     1      24.716   1.168  51.979  1.00  0.00     0.167 HD
BRANCH  10  12
HETATM   12  C5  UNL     1      23.923  -0.169  53.514  1.00  0.00     0.144 A 
HETATM   13  N3  UNL     1      24.478  -0.772  54.586  1.00  0.00    -0.223 NA
HETATM   14  C6  UNL     1      23.720  -1.443  55.500  1.00  0.00     0.236 A 
HETATM   15  N4  UNL     1      22.379  -1.524  55.355  1.00  0.00    -0.241 NA
HETATM   16  C7  UNL     1      21.768  -0.932  54.290  1.00  0.00     0.077 A 
HETATM   17  C8  UNL     1      20.410  -0.997  54.101  1.00  0.00     0.070 A 
HETATM   18  C14 UNL     1      22.566  -0.267  53.395  1.00  0.00     0.073 A 
HETATM   19  C9  UNL     1      19.821  -0.402  53.024  1.00  0.00     0.082 A 
HETATM   20  C12 UNL     1      20.653   0.274  52.121  1.00  0.00     0.033 A 
HETATM   21  C13 UNL     1      22.043   0.357  52.285  1.00  0.00     0.096 A 
HETATM   22  C17 UNL     1      19.953   0.912  50.942  1.00  0.00     0.212 C 
HETATM   23  O3  UNL     1      22.993   0.998  51.460  1.00  0.00    -0.347 OA
HETATM   24  C15 UNL     1      22.596   1.870  50.407  1.00  0.00     0.201 C 
HETATM   25  C16 UNL     1      21.671   1.290  49.411  1.00  0.00     0.194 C 
HETATM   26  O4  UNL     1      20.678   0.469  49.842  1.00  0.00    -0.384 OA
BRANCH  19  27
HETATM   27  O1  UNL     1      18.513  -0.353  52.662  1.00  0.00    -0.348 OA
BRANCH  27  28
HETATM   28  C10 UNL     1      17.472  -1.233  52.884  1.00  0.00     0.201 C 
BRANCH  28  29
HETATM   29  C11 UNL     1      16.116  -0.814  52.404  1.00  0.00     0.190 C 
BRANCH  29  30
HETATM   30  O2  UNL     1      15.410  -0.268  53.474  1.00  0.00    -0.399 OA
HETATM   31  H9  UNL     1      15.951   0.420  53.943  1.00  0.00     0.209 HD
ENDBRANCH  29  30
ENDBRANCH  28  29
ENDBRANCH  27  28
ENDBRANCH  19  27
ENDBRANCH  10  12
ENDBRANCH   5  10
TORSDOF 6
ENDMDL
MODEL 2
REMARK VINA RESULT:      -8.6      2.320      3.600
REMARK  6 active torsions:
REMARK  status: ('A' for Active; 'I' for Inactive)
REMARK    1  A    between atoms: C4_5  and  N2_6 
REMARK    2  A    between atoms: N2_6  and  C5_7 
REMARK    3  A    between atoms: C9_13  and  O1_14 
REMARK    4  A    between atoms: O1_14  and  C10_15 
REMARK    5  A    between atoms: C10_15  and  C11_16 
REMARK    6  A    between atoms: C11_16  and  O2_17 
ROOT
HETATM    1  N1  UNL     1      29.832   2.439  55.070  1.00  0.00    -0.191 NA
HETATM    2  C1  UNL     1      29.361   1.481  54.580  1.00  0.00     0.102 C 
HETATM    3  C2  UNL     1      28.787   0.326  53.963  1.00  0.00     0.085 A 
HETATM    4  C3  UNL     1      27.453   0.303  53.604  1.00  0.00     0.055 A 
HETATM    5  C4  UNL     1      26.806  -0.768  52.984  1.00  0.00     0.035 A 
HETATM    6  C18 UNL     1      27.594  -1.867  52.729  1.00  0.00     0.032 A 
HETATM    7  C19 UNL     1      28.922  -1.867  53.076  1.00  0.00     0.046 A 
HETATM    8  C20 UNL     1      29.545  -0.791  53.693  1.00  0.00     0.137 A 
HETATM    9  F1  UNL     1      30.855  -0.771  54.043  1.00  0.00    -0.204 F 
ENDROOT
BRANCH   5  10
HETATM   10  N2  UNL     1      25.423  -0.590  52.687  1.00  0.00    -0.340 N 
HETATM   11  H2  UNL     1      24.755  -1.374  52.841  1.00  0.00     0.167 HD
BRANCH  10  12
HETATM   12  C5  UNL     1      25.107   0.682  52.193  1.00  0.00     0.144 A 
HETATM   13  N3  UNL     1      26.180   1.281  51.634  1.00  0.00    -0.223 NA
HETATM   14  C6  UNL     1      26.102   2.535  51.104  1.00  0.00     0.236 A 
HETATM   15  N4  UNL     1      24.938   3.219  51.124  1.00  0.00    -0.241 NA
HETATM   16  C7  UNL     1      23.823   2.661  51.676  1.00  0.00     0.077 A 
HETATM   17  C8  UNL     1      22.623   3.324  51.725  1.00  0.00     0.070 A 
HETATM   18  C14 UNL     1      23.944   1.397  52.198  1.00  0.00     0.073 A 
HETATM   19  C9  UNL     1      21.523   2.747  52.288  1.00  0.00     0.082 A 
HETATM   20  C12 UNL     1      21.665   1.457  52.815  1.00  0.00     0.033 A 
HETATM   21  C13 UNL     1      22.878   0.753  52.783  1.00  0.00     0.096 A 
HETATM   22  C17 UNL     1      20.419   0.863  53.432  1.00  0.00     0.212 C 
HETATM   23  O3  UNL     1      23.162  -0.541  53.272  1.00  0.00    -0.347 OA
HETATM   24  C15 UNL     1      22.125  -1.420  53.697  1.00  0.00     0.201 C 
HETATM   25  C16 UNL     1      21.226  -0.889  54.743  1.00  0.00     0.194 C 
HETATM   26  O4  UNL     1      20.843   0.413  54.676  1.00  0.00    -0.384 OA
BRANCH  19  27
HETATM   27  O1  UNL     1      20.262   3.231  52.433  1.00  0.00    -0.348 OA
BRANCH  27  28
HETATM   28  C10 UNL     1      19.382   3.769  51.514  1.00  0.00     0.201 C 
BRANCH  28  29
HETATM   29  C11 UNL     1      17.986   3.227  51.515  1.00  0.00     0.190 C 
BRANCH  29  30
HETATM   30  O2  UNL     1      17.093   4.286  51.365  1.00  0.00    -0.399 OA
HETATM   31  H9  UNL     1      17.245   4.760  50.506  1.00  0.00     0.209 HD
ENDBRANCH  29  30
ENDBRANCH  28  29
ENDBRANCH  27  28
ENDBRANCH  19  27
ENDBRANCH  10  12
ENDBRANCH   5  10
TORSDOF 6
ENDMDL
MODEL 3
REMARK VINA RESULT:      -8.6      4.575      5.847
REMARK  6 active torsions:
REMARK  status: ('A' for Active; 'I' for Inactive)
REMARK    1  A    between atoms: C4_5  and  N2_6 
REMARK    2  A    between atoms: N2_6  and  C5_7 
REMARK    3  A    between atoms: C9_13  and  O1_14 
REMARK    4  A    between atoms: O1_14  and  C10_15 
REMARK    5  A    between atoms: C10_15  and  C11_16 
REMARK    6  A    between atoms: C11_16  and  O2_17 
ROOT
HETATM    1  N1  UNL     1      29.694   7.267  47.055  1.00  0.00    -0.191 NA
HETATM    2  C1  UNL     1      28.756   6.942  47.681  1.00  0.00     0.102 C 
HETATM    3  C2  UNL     1      27.627   6.538  48.462  1.00  0.00     0.085 A 
HETATM    4  C3  UNL     1      27.296   5.203  48.592  1.00  0.00     0.055 A 
HETATM    5  C4  UNL     1      26.227   4.709  49.342  1.00  0.00     0.035 A 
HETATM    6  C18 UNL     1      25.469   5.659  49.987  1.00  0.00     0.032 A 
HETATM    7  C19 UNL     1      25.779   6.992  49.874  1.00  0.00     0.046 A 
HETATM    8  C20 UNL     1      26.847   7.461  49.121  1.00  0.00     0.137 A 
HETATM    9  F1  UNL     1      27.170   8.773  48.998  1.00  0.00    -0.204 F 
ENDROOT
BRANCH   5  10
HETATM   10  N2  UNL     1      26.059   3.294  49.354  1.00  0.00    -0.340 N 
HETATM   11  H2  UNL     1      26.028   2.768  48.455  1.00  0.00     0.167 HD
BRANCH  10  12
HETATM   12  C5  UNL     1      25.944   2.745  50.637  1.00  0.00     0.144 A 
HETATM   13  N3  UNL     1      27.120   2.774  51.299  1.00  0.00    -0.223 NA
HETATM   14  C6  UNL     1      27.241   2.275  52.562  1.00  0.00     0.236 A 
HETATM   15  N4  UNL     1      26.177   1.731  53.192  1.00  0.00    -0.241 NA
HETATM   16  C7  UNL     1      24.966   1.677  52.569  1.00  0.00     0.077 A 
HETATM   17  C8  UNL     1      23.862   1.126  53.169  1.00  0.00     0.070 A 
HETATM   18  C14 UNL     1      24.887   2.191  51.299  1.00  0.00     0.073 A 
HETATM   19  C9  UNL     1      22.661   1.077  52.523  1.00  0.00     0.082 A 
HETATM   20  C12 UNL     1      22.599   1.608  51.228  1.00  0.00     0.033 A 
HETATM   21  C13 UNL     1      23.709   2.176  50.586  1.00  0.00     0.096 A 
HETATM   22  C17 UNL     1      21.249   1.526  50.553  1.00  0.00     0.212 C 
HETATM   23  O3  UNL     1      23.790   2.742  49.295  1.00  0.00    -0.347 OA
HETATM   24  C15 UNL     1      22.622   3.006  48.525  1.00  0.00     0.201 C 
HETATM   25  C16 UNL     1      21.733   1.847  48.294  1.00  0.00     0.194 C 
HETATM   26  O4  UNL     1      21.528   0.969  49.311  1.00  0.00    -0.384 OA
BRANCH  19  27
HETATM   27  O1  UNL     1      21.467   0.580  52.938  1.00  0.00    -0.348 OA
BRANCH  27  28
HETATM   28  C10 UNL     1      20.977   0.325  54.204  1.00  0.00     0.201 C 
BRANCH  28  29
HETATM   29  C11 UNL     1      21.543  -0.860  54.923  1.00  0.00     0.190 C 
BRANCH  29  30
HETATM   30  O2  UNL     1      20.701  -1.952  54.722  1.00  0.00    -0.399 OA
HETATM   31  H9  UNL     1      20.045  -1.768  54.000  1.00  0.00     0.209 HD
ENDBRANCH  29  30
ENDBRANCH  28  29
ENDBRANCH  27  28
ENDBRANCH  19  27
ENDBRANCH  10  12
ENDBRANCH   5  10
TORSDOF 6
ENDMDL
MODEL 4
REMARK VINA RESULT:      -8.5      1.111      1.572
REMARK  6 active torsions:
REMARK  status: ('A' for Active; 'I' for Inactive)
REMARK    1  A    between atoms: C4_5  and  N2_6 
REMARK    2  A    between atoms: N2_6  and  C5_7 
REMARK    3  A    between atoms: C9_13  and  O1_14 
REMARK    4  A    between atoms: O1_14  and  C10_15 
REMARK    5  A    between atoms: C10_15  and  C11_16 
REMARK    6  A    between atoms: C11_16  and  O2_17 
ROOT
HETATM    1  N1  UNL     1      30.151  -1.510  53.534  1.00  0.00    -0.191 NA
HETATM    2  C1  UNL     1      29.314  -0.687  53.529  1.00  0.00     0.102 C 
HETATM    3  C2  UNL     1      28.283   0.305  53.540  1.00  0.00     0.085 A 
HETATM    4  C3  UNL     1      27.036   0.036  53.009  1.00  0.00     0.055 A 
HETATM    5  C4  UNL     1      25.963   0.930  52.987  1.00  0.00     0.035 A 
HETATM    6  C18 UNL     1      26.208   2.162  53.547  1.00  0.00     0.032 A 
HETATM    7  C19 UNL     1      27.440   2.452  54.081  1.00  0.00     0.046 A 
HETATM    8  C20 UNL     1      28.494   1.548  54.091  1.00  0.00     0.137 A 
HETATM    9  F1  UNL     1      29.716   1.815  54.614  1.00  0.00    -0.204 F 
ENDROOT
BRANCH   5  10
HETATM   10  N2  UNL     1      24.753   0.456  52.400  1.00  0.00    -0.340 N 
HETATM   11  H2  UNL     1      24.582   0.597  51.382  1.00  0.00     0.167 HD
BRANCH  10  12
HETATM   12  C5  UNL     1      23.889  -0.171  53.306  1.00  0.00     0.144 A 
HETATM   13  N3  UNL     1      24.564  -0.747  54.323  1.00  0.00    -0.223 NA
HETATM   14  C6  UNL     1      23.919  -1.429  55.313  1.00  0.00     0.236 A 
HETATM   15  N4  UNL     1      22.574  -1.549  55.302  1.00  0.00    -0.241 NA
HETATM   16  C7  UNL     1      21.844  -0.987  54.297  1.00  0.00     0.077 A 
HETATM   17  C8  UNL     1      20.477  -1.092  54.243  1.00  0.00     0.070 A 
HETATM   18  C14 UNL     1      22.531  -0.309  53.322  1.00  0.00     0.073 A 
HETATM   19  C9  UNL     1      19.767  -0.526  53.225  1.00  0.00     0.082 A 
HETATM   20  C12 UNL     1      20.486   0.163  52.239  1.00  0.00     0.033 A 
HETATM   21  C13 UNL     1      21.882   0.287  52.264  1.00  0.00     0.096 A 
HETATM   22  C17 UNL     1      19.655   0.768  51.130  1.00  0.00     0.212 C 
HETATM   23  O3  UNL     1      22.727   0.946  51.345  1.00  0.00    -0.347 OA
HETATM   24  C15 UNL     1      22.204   1.794  50.329  1.00  0.00     0.201 C 
HETATM   25  C16 UNL     1      21.202   1.177  49.433  1.00  0.00     0.194 C 
HETATM   26  O4  UNL     1      20.281   0.333  49.968  1.00  0.00    -0.384 OA
BRANCH  19  27
HETATM   27  O1  UNL     1      18.429  -0.518  52.994  1.00  0.00    -0.348 OA
BRANCH  27  28
HETATM   28  C10 UNL     1      17.524  -1.550  52.842  1.00  0.00     0.201 C 
BRANCH  28  29
HETATM   29  C11 UNL     1      16.107  -1.169  52.541  1.00  0.00     0.190 C 
BRANCH  29  30
HETATM   30  O2  UNL     1      15.713  -0.170  53.429  1.00  0.00    -0.399 OA
HETATM   31  H9  UNL     1      14.950  -0.471  53.988  1.00  0.00     0.209 HD
ENDBRANCH  29  30
ENDBRANCH  28  29
ENDBRANCH  27  28
ENDBRANCH  19  27
ENDBRANCH  10  12
ENDBRANCH   5  10
TORSDOF 6
ENDMDL
MODEL 5
REMARK VINA RESULT:      -8.5      2.221      3.996
REMARK  6 active torsions:
REMARK  status: ('A' for Active; 'I' for Inactive)
REMARK    1  A    between atoms: C4_5  and  N2_6 
REMARK    2  A    between atoms: N2_6  and  C5_7 
REMARK    3  A    between atoms: C9_13  and  O1_14 
REMARK    4  A    between atoms: O1_14  and  C10_15 
REMARK    5  A    between atoms: C10_15  and  C11_16 
REMARK    6  A    between atoms: C11_16  and  O2_17 
ROOT
HETATM    1  N1  UNL     1      28.620  -3.119  53.058  1.00  0.00    -0.191 NA
HETATM    2  C1  UNL     1      28.456  -1.961  53.163  1.00  0.00     0.102 C 
HETATM    3  C2  UNL     1      28.247  -0.554  53.314  1.00  0.00     0.085 A 
HETATM    4  C3  UNL     1      26.974  -0.020  53.290  1.00  0.00     0.055 A 
HETATM    5  C4  UNL     1      26.667   1.334  53.445  1.00  0.00     0.035 A 
HETATM    6  C18 UNL     1      27.746   2.167  53.633  1.00  0.00     0.032 A 
HETATM    7  C19 UNL     1      29.021   1.658  53.661  1.00  0.00     0.046 A 
HETATM    8  C20 UNL     1      29.303   0.308  53.505  1.00  0.00     0.137 A 
HETATM    9  F1  UNL     1      30.555  -0.213  53.531  1.00  0.00    -0.204 F 
ENDROOT
BRANCH   5  10
HETATM   10  N2  UNL     1      25.285   1.682  53.397  1.00  0.00    -0.340 N 
HETATM   11  H2  UNL     1      24.706   1.624  54.261  1.00  0.00     0.167 HD
BRANCH  10  12
HETATM   12  C5  UNL     1      24.842   2.077  52.128  1.00  0.00     0.144 A 
HETATM   13  N3  UNL     1      25.772   2.807  51.479  1.00  0.00    -0.223 NA
HETATM   14  C6  UNL     1      25.544   3.310  50.232  1.00  0.00     0.236 A 
HETATM   15  N4  UNL     1      24.367   3.090  49.607  1.00  0.00    -0.241 NA
HETATM   16  C7  UNL     1      23.392   2.358  50.218  1.00  0.00     0.077 A 
HETATM   17  C8  UNL     1      22.181   2.117  49.622  1.00  0.00     0.070 A 
HETATM   18  C14 UNL     1      23.663   1.870  51.471  1.00  0.00     0.073 A 
HETATM   19  C9  UNL     1      21.218   1.388  50.255  1.00  0.00     0.082 A 
HETATM   20  C12 UNL     1      21.512   0.896  51.533  1.00  0.00     0.033 A 
HETATM   21  C13 UNL     1      22.740   1.126  52.171  1.00  0.00     0.096 A 
HETATM   22  C17 UNL     1      20.412   0.098  52.195  1.00  0.00     0.212 C 
HETATM   23  O3  UNL     1      23.168   0.696  53.446  1.00  0.00    -0.347 OA
HETATM   24  C15 UNL     1      22.427  -0.261  54.195  1.00  0.00     0.201 C 
HETATM   25  C16 UNL     1      21.011   0.082  54.449  1.00  0.00     0.194 C 
HETATM   26  O4  UNL     1      20.294   0.670  53.456  1.00  0.00    -0.384 OA
BRANCH  19  27
HETATM   27  O1  UNL     1      19.971   1.043  49.841  1.00  0.00    -0.348 OA
BRANCH  27  28
HETATM   28  C10 UNL     1      18.780   1.743  49.856  1.00  0.00     0.201 C 
BRANCH  28  29
HETATM   29  C11 UNL     1      18.788   3.079  50.533  1.00  0.00     0.190 C 
BRANCH  29  30
HETATM   30  O2  UNL     1      18.536   2.896  51.891  1.00  0.00    -0.399 OA
HETATM   31  H9  UNL     1      17.962   2.100  52.043  1.00  0.00     0.209 HD
ENDBRANCH  29  30
ENDBRANCH  28  29
ENDBRANCH  27  28
ENDBRANCH  19  27
ENDBRANCH  10  12
ENDBRANCH   5  10
TORSDOF 6
ENDMDL
MODEL 6
REMARK VINA RESULT:      -8.2      2.576      3.233
REMARK  6 active torsions:
REMARK  status: ('A' for Active; 'I' for Inactive)
REMARK    1  A    between atoms: C4_5  and  N2_6 
REMARK    2  A    between atoms: N2_6  and  C5_7 
REMARK    3  A    between atoms: C9_13  and  O1_14 
REMARK    4  A    between atoms: O1_14  and  C10_15 
REMARK    5  A    between atoms: C10_15  and  C11_16 
REMARK    6  A    between atoms: C11_16  and  O2_17 
ROOT
HETATM    1  N1  UNL     1      28.627  -3.108  53.094  1.00  0.00    -0.191 NA
HETATM    2  C1  UNL     1      28.319  -1.975  53.080  1.00  0.00     0.102 C 
HETATM    3  C2  UNL     1      27.926  -0.600  53.080  1.00  0.00     0.085 A 
HETATM    4  C3  UNL     1      26.788  -0.189  52.414  1.00  0.00     0.055 A 
HETATM    5  C4  UNL     1      26.313   1.124  52.368  1.00  0.00     0.035 A 
HETATM    6  C18 UNL     1      27.068   2.050  53.051  1.00  0.00     0.032 A 
HETATM    7  C19 UNL     1      28.203   1.664  53.721  1.00  0.00     0.046 A 
HETATM    8  C20 UNL     1      28.657   0.352  53.753  1.00  0.00     0.137 A 
HETATM    9  F1  UNL     1      29.774  -0.048  54.409  1.00  0.00    -0.204 F 
ENDROOT
BRANCH   5  10
HETATM   10  N2  UNL     1      25.112   1.341  51.632  1.00  0.00    -0.340 N 
HETATM   11  H2  UNL     1      25.159   1.722  50.663  1.00  0.00     0.167 HD
BRANCH  10  12
HETATM   12  C5  UNL     1      23.947   1.004  52.332  1.00  0.00     0.144 A 
HETATM   13  N3  UNL     1      24.124  -0.093  53.097  1.00  0.00    -0.223 NA
HETATM   14  C6  UNL     1      23.112  -0.608  53.853  1.00  0.00     0.236 A 
HETATM   15  N4  UNL     1      21.892  -0.029  53.855  1.00  0.00    -0.241 NA
HETATM   16  C7  UNL     1      21.659   1.081  53.100  1.00  0.00     0.077 A 
HETATM   17  C8  UNL     1      20.433   1.696  53.067  1.00  0.00     0.070 A 
HETATM   18  C14 UNL     1      22.704   1.568  52.356  1.00  0.00     0.073 A 
HETATM   19  C9  UNL     1      20.221   2.803  52.299  1.00  0.00     0.082 A 
HETATM   20  C12 UNL     1      21.300   3.286  51.546  1.00  0.00     0.033 A 
HETATM   21  C13 UNL     1      22.564   2.680  51.556  1.00  0.00     0.096 A 
HETATM   22  C17 UNL     1      21.014   4.511  50.708  1.00  0.00     0.212 C 
HETATM   23  O3  UNL     1      23.730   3.056  50.853  1.00  0.00    -0.347 OA
HETATM   24  C15 UNL     1      23.816   4.300  50.168  1.00  0.00     0.201 C 
HETATM   25  C16 UNL     1      22.760   4.551  49.163  1.00  0.00     0.194 C 
HETATM   26  O4  UNL     1      21.486   4.172  49.446  1.00  0.00    -0.384 OA
BRANCH  19  27
HETATM   27  O1  UNL     1      19.097   3.546  52.131  1.00  0.00    -0.348 OA
BRANCH  27  28
HETATM   28  C10 UNL     1      17.869   3.231  51.581  1.00  0.00     0.201 C 
BRANCH  28  29
HETATM   29  C11 UNL     1      16.883   4.350  51.439  1.00  0.00     0.190 C 
BRANCH  29  30
HETATM   30  O2  UNL     1      17.010   4.900  50.165  1.00  0.00    -0.399 OA
HETATM   31  H9  UNL     1      17.117   5.886  50.212  1.00  0.00     0.209 HD
ENDBRANCH  29  30
ENDBRANCH  28  29
ENDBRANCH  27  28
ENDBRANCH  19  27
ENDBRANCH  10  12
ENDBRANCH   5  10
TORSDOF 6
ENDMDL
MODEL 7
REMARK VINA RESULT:      -8.1      4.437      8.522
REMARK  6 active torsions:
REMARK  status: ('A' for Active; 'I' for Inactive)
REMARK    1  A    between atoms: C4_5  and  N2_6 
REMARK    2  A    between atoms: N2_6  and  C5_7 
REMARK    3  A    between atoms: C9_13  and  O1_14 
REMARK    4  A    between atoms: O1_14  and  C10_15 
REMARK    5  A    between atoms: C10_15  and  C11_16 
REMARK    6  A    between atoms: C11_16  and  O2_17 
ROOT
HETATM    1  N1  UNL     1      21.486   3.629  44.445  1.00  0.00    -0.191 NA
HETATM    2  C1  UNL     1      21.611   3.954  45.566  1.00  0.00     0.102 C 
HETATM    3  C2  UNL     1      21.787   4.350  46.929  1.00  0.00     0.085 A 
HETATM    4  C3  UNL     1      22.276   3.463  47.868  1.00  0.00     0.055 A 
HETATM    5  C4  UNL     1      22.498   3.758  49.215  1.00  0.00     0.035 A 
HETATM    6  C18 UNL     1      22.193   5.045  49.596  1.00  0.00     0.032 A 
HETATM    7  C19 UNL     1      21.706   5.944  48.680  1.00  0.00     0.046 A 
HETATM    8  C20 UNL     1      21.492   5.629  47.345  1.00  0.00     0.137 A 
HETATM    9  F1  UNL     1      21.013   6.503  46.426  1.00  0.00    -0.204 F 
ENDROOT
BRANCH   5  10
HETATM   10  N2  UNL     1      23.017   2.702  50.020  1.00  0.00    -0.340 N 
HETATM   11  H2  UNL     1      22.387   1.935  50.337  1.00  0.00     0.167 HD
BRANCH  10  12
HETATM   12  C5  UNL     1      24.381   2.827  50.312  1.00  0.00     0.144 A 
HETATM   13  N3  UNL     1      24.999   3.668  49.456  1.00  0.00    -0.223 NA
HETATM   14  C6  UNL     1      26.336   3.923  49.547  1.00  0.00     0.236 A 
HETATM   15  N4  UNL     1      27.085   3.335  50.505  1.00  0.00    -0.241 NA
HETATM   16  C7  UNL     1      26.510   2.478  51.395  1.00  0.00     0.077 A 
HETATM   17  C8  UNL     1      27.236   1.854  52.378  1.00  0.00     0.070 A 
HETATM   18  C14 UNL     1      25.163   2.249  51.270  1.00  0.00     0.073 A 
HETATM   19  C9  UNL     1      26.640   0.995  53.254  1.00  0.00     0.082 A 
HETATM   20  C12 UNL     1      25.264   0.774  53.112  1.00  0.00     0.033 A 
HETATM   21  C13 UNL     1      24.494   1.395  52.117  1.00  0.00     0.096 A 
HETATM   22  C17 UNL     1      24.651  -0.189  54.103  1.00  0.00     0.212 C 
HETATM   23  O3  UNL     1      23.112   1.265  51.860  1.00  0.00    -0.347 OA
HETATM   24  C15 UNL     1      22.244   0.604  52.774  1.00  0.00     0.201 C 
HETATM   25  C16 UNL     1      22.620  -0.783  53.123  1.00  0.00     0.194 C 
HETATM   26  O4  UNL     1      23.934  -1.075  53.310  1.00  0.00    -0.384 OA
BRANCH  19  27
HETATM   27  O1  UNL     1      27.175   0.287  54.283  1.00  0.00    -0.348 OA
BRANCH  27  28
HETATM   28  C10 UNL     1      28.486   0.103  54.677  1.00  0.00     0.201 C 
BRANCH  28  29
HETATM   29  C11 UNL     1      29.319  -0.827  53.848  1.00  0.00     0.190 C 
BRANCH  29  30
HETATM   30  O2  UNL     1      28.530  -1.908  53.458  1.00  0.00    -0.399 OA
HETATM   31  H9  UNL     1      29.005  -2.766  53.607  1.00  0.00     0.209 HD
ENDBRANCH  29  30
ENDBRANCH  28  29
ENDBRANCH  27  28
ENDBRANCH  19  27
ENDBRANCH  10  12
ENDBRANCH   5  10
TORSDOF 6
ENDMDL
MODEL 8
REMARK VINA RESULT:      -7.9      3.680      5.201
REMARK  6 active torsions:
REMARK  status: ('A' for Active; 'I' for Inactive)
REMARK    1  A    between atoms: C4_5  and  N2_6 
REMARK    2  A    between atoms: N2_6  and  C5_7 
REMARK    3  A    between atoms: C9_13  and  O1_14 
REMARK    4  A    between atoms: O1_14  and  C10_15 
REMARK    5  A    between atoms: C10_15  and  C11_16 
REMARK    6  A    between atoms: C11_16  and  O2_17 
ROOT
HETATM    1  N1  UNL     1      27.789   4.851  48.580  1.00  0.00    -0.191 NA
HETATM    2  C1  UNL     1      26.776   4.730  49.163  1.00  0.00     0.102 C 
HETATM    3  C2  UNL     1      25.555   4.572  49.889  1.00  0.00     0.085 A 
HETATM    4  C3  UNL     1      24.936   3.340  49.976  1.00  0.00     0.055 A 
HETATM    5  C4  UNL     1      23.754   3.081  50.673  1.00  0.00     0.035 A 
HETATM    6  C18 UNL     1      23.193   4.165  51.309  1.00  0.00     0.032 A 
HETATM    7  C19 UNL     1      23.791   5.399  51.237  1.00  0.00     0.046 A 
HETATM    8  C20 UNL     1      24.967   5.634  50.538  1.00  0.00     0.137 A 
HETATM    9  F1  UNL     1      25.572   6.845  50.456  1.00  0.00    -0.204 F 
ENDROOT
BRANCH   5  10
HETATM   10  N2  UNL     1      23.281   1.736  50.647  1.00  0.00    -0.340 N 
HETATM   11  H2  UNL     1      23.947   0.950  50.805  1.00  0.00     0.167 HD
BRANCH  10  12
HETATM   12  C5  UNL     1      21.909   1.620  50.393  1.00  0.00     0.144 A 
HETATM   13  N3  UNL     1      21.541   2.328  49.305  1.00  0.00    -0.223 NA
HETATM   14  C6  UNL     1      20.244   2.370  48.885  1.00  0.00     0.236 A 
HETATM   15  N4  UNL     1      19.283   1.699  49.554  1.00  0.00    -0.241 NA
HETATM   16  C7  UNL     1      19.600   0.967  50.660  1.00  0.00     0.077 A 
HETATM   17  C8  UNL     1      18.653   0.276  51.373  1.00  0.00     0.070 A 
HETATM   18  C14 UNL     1      20.916   0.950  51.048  1.00  0.00     0.073 A 
HETATM   19  C9  UNL     1      18.993  -0.444  52.480  1.00  0.00     0.082 A 
HETATM   20  C12 UNL     1      20.342  -0.450  52.861  1.00  0.00     0.033 A 
HETATM   21  C13 UNL     1      21.333   0.246  52.155  1.00  0.00     0.096 A 
HETATM   22  C17 UNL     1      20.667  -1.258  54.096  1.00  0.00     0.212 C 
HETATM   23  O3  UNL     1      22.717   0.328  52.423  1.00  0.00    -0.347 OA
HETATM   24  C15 UNL     1      23.338  -0.515  53.388  1.00  0.00     0.201 C 
HETATM   25  C16 UNL     1      22.761  -0.464  54.748  1.00  0.00     0.194 C 
HETATM   26  O4  UNL     1      21.411  -0.386  54.881  1.00  0.00    -0.384 OA
BRANCH  19  27
HETATM   27  O1  UNL     1      18.216  -1.185  53.311  1.00  0.00    -0.348 OA
BRANCH  27  28
HETATM   28  C10 UNL     1      17.224  -2.110  53.048  1.00  0.00     0.201 C 
BRANCH  28  29
HETATM   29  C11 UNL     1      15.898  -1.573  52.603  1.00  0.00     0.190 C 
BRANCH  29  30
HETATM   30  O2  UNL     1      15.587  -0.453  53.372  1.00  0.00    -0.399 OA
HETATM   31  H9  UNL     1      14.757  -0.601  53.896  1.00  0.00     0.209 HD
ENDBRANCH  29  30
ENDBRANCH  28  29
ENDBRANCH  27  28
ENDBRANCH  19  27
ENDBRANCH  10  12
ENDBRANCH   5  10
TORSDOF 6
ENDMDL
MODEL 9
REMARK VINA RESULT:      -7.7      5.059      8.593
REMARK  6 active torsions:
REMARK  status: ('A' for Active; 'I' for Inactive)
REMARK    1  A    between atoms: C4_5  and  N2_6 
REMARK    2  A    between atoms: N2_6  and  C5_7 
REMARK    3  A    between atoms: C9_13  and  O1_14 
REMARK    4  A    between atoms: O1_14  and  C10_15 
REMARK    5  A    between atoms: C10_15  and  C11_16 
REMARK    6  A    between atoms: C11_16  and  O2_17 
ROOT
HETATM    1  N1  UNL     1      21.523   3.610  44.541  1.00  0.00    -0.191 NA
HETATM    2  C1  UNL     1      21.854   4.400  45.343  1.00  0.00     0.102 C 
HETATM    3  C2  UNL     1      22.281   5.355  46.319  1.00  0.00     0.085 A 
HETATM    4  C3  UNL     1      22.578   4.965  47.610  1.00  0.00     0.055 A 
HETATM    5  C4  UNL     1      23.016   5.817  48.626  1.00  0.00     0.035 A 
HETATM    6  C18 UNL     1      23.148   7.140  48.273  1.00  0.00     0.032 A 
HETATM    7  C19 UNL     1      22.859   7.551  46.995  1.00  0.00     0.046 A 
HETATM    8  C20 UNL     1      22.424   6.687  46.000  1.00  0.00     0.137 A 
HETATM    9  F1  UNL     1      22.134   7.073  44.732  1.00  0.00    -0.204 F 
ENDROOT
BRANCH   5  10
HETATM   10  N2  UNL     1      23.278   5.214  49.892  1.00  0.00    -0.340 N 
HETATM   11  H2  UNL     1      22.575   5.291  50.657  1.00  0.00     0.167 HD
BRANCH  10  12
HETATM   12  C5  UNL     1      24.514   4.561  49.966  1.00  0.00     0.144 A 
HETATM   13  N3  UNL     1      25.456   5.191  49.232  1.00  0.00    -0.223 NA
HETATM   14  C6  UNL     1      26.732   4.716  49.148  1.00  0.00     0.236 A 
HETATM   15  N4  UNL     1      27.091   3.590  49.802  1.00  0.00    -0.241 NA
HETATM   16  C7  UNL     1      26.179   2.915  50.557  1.00  0.00     0.077 A 
HETATM   17  C8  UNL     1      26.500   1.764  51.231  1.00  0.00     0.070 A 
HETATM   18  C14 UNL     1      24.908   3.427  50.616  1.00  0.00     0.073 A 
HETATM   19  C9  UNL     1      25.568   1.102  51.975  1.00  0.00     0.082 A 
HETATM   20  C12 UNL     1      24.275   1.640  52.024  1.00  0.00     0.033 A 
HETATM   21  C13 UNL     1      23.915   2.813  51.347  1.00  0.00     0.096 A 
HETATM   22  C17 UNL     1      23.279   0.867  52.859  1.00  0.00     0.212 C 
HETATM   23  O3  UNL     1      22.661   3.461  51.307  1.00  0.00    -0.347 OA
HETATM   24  C15 UNL     1      21.602   3.085  52.180  1.00  0.00     0.201 C 
HETATM   25  C16 UNL     1      21.209   1.660  52.132  1.00  0.00     0.194 C 
HETATM   26  O4  UNL     1      22.182   0.718  52.018  1.00  0.00    -0.384 OA
BRANCH  19  27
HETATM   27  O1  UNL     1      25.685  -0.037  52.706  1.00  0.00    -0.348 OA
BRANCH  27  28
HETATM   28  C10 UNL     1      26.683  -0.479  53.552  1.00  0.00     0.201 C 
BRANCH  28  29
HETATM   29  C11 UNL     1      26.779   0.184  54.892  1.00  0.00     0.190 C 
BRANCH  29  30
HETATM   30  O2  UNL     1      27.960   0.921  54.944  1.00  0.00    -0.399 OA
HETATM   31  H9  UNL     1      28.465   0.845  54.092  1.00  0.00     0.209 HD
ENDBRANCH  29  30
ENDBRANCH  28  29
ENDBRANCH  27  28
ENDBRANCH  19  27
ENDBRANCH  10  12
ENDBRANCH   5  10
TORSDOF 6
ENDMDL
