MODEL 1
REMARK VINA RESULT:      -6.5      0.000      0.000
REMARK  7 active torsions:
REMARK  status: ('A' for Active; 'I' for Inactive)
REMARK    1  A    between atoms: C3_3  and  C4_4 
REMARK    2  A    between atoms: C4_4  and  C5_5 
REMARK    3  A    between atoms: C5_5  and  O1_6 
REMARK    4  A    between atoms: O1_6  and  C6_7 
REMARK    5  A    between atoms: C6_7  and  C7_8 
REMARK    6  A    between atoms: C11_12  and  N1_13 
REMARK    7  A    between atoms: C16_20  and  N2_21 
ROOT
HETATM    1  C1  UNL     1      26.396   3.162  49.774  1.00  0.00     0.012 C 
HETATM    2  C2  UNL     1      26.636   4.244  49.292  1.00  0.00    -0.117 C 
HETATM    3  C3  UNL     1      26.923   5.556  48.716  1.00  0.00     0.095 C 
ENDROOT
BRANCH   3   4
HETATM    4  C4  UNL     1      26.017   6.625  49.353  1.00  0.00     0.038 C 
BRANCH   4   5
HETATM    5  C5  UNL     1      25.025   7.119  48.354  1.00  0.00     0.169 C 
BRANCH   5   6
HETATM    6  O1  UNL     1      24.127   6.161  47.995  1.00  0.00    -0.385 OA
BRANCH   6   7
HETATM    7  C6  UNL     1      22.930   6.134  48.672  1.00  0.00     0.232 C 
BRANCH   7   8
HETATM    8  C7  UNL     1      22.741   4.684  49.064  1.00  0.00     0.078 C 
HETATM    9  C8  UNL     1      22.891   4.456  50.381  1.00  0.00     0.044 C 
HETATM   10  C9  UNL     1      22.794   3.211  51.176  1.00  0.00    -0.035 C 
HETATM   11  C10 UNL     1      23.511   3.443  52.450  1.00  0.00     0.050 C 
HETATM   12  C11 UNL     1      22.226   2.040  50.957  1.00  0.00     0.039 C 
HETATM   13  C17 UNL     1      21.449   1.500  49.809  1.00  0.00     0.208 C 
HETATM   14  N3  UNL     1      22.170   1.556  48.557  1.00  0.00    -0.272 NA
HETATM   15  C18 UNL     1      22.590   2.493  47.774  1.00  0.00     0.253 C 
HETATM   16  O2  UNL     1      22.445   3.884  47.941  1.00  0.00    -0.307 OA
BRANCH  12  17
HETATM   17  N1  UNL     1      22.390   1.118  52.022  1.00  0.00    -0.332 N 
HETATM   18  C12 UNL     1      23.715   0.659  52.372  1.00  0.00     0.120 A 
HETATM   19  C13 UNL     1      23.916  -0.195  53.363  1.00  0.00     0.087 A 
HETATM   20 CL1  UNL     1      25.552  -0.701  53.725  1.00  0.00    -0.080 Cl
HETATM   21  C14 UNL     1      22.820  -0.733  54.155  1.00  0.00     0.139 A 
HETATM   22  F1  UNL     1      22.979  -1.601  55.172  1.00  0.00    -0.204 F 
HETATM   23  C15 UNL     1      21.614  -0.315  53.821  1.00  0.00     0.063 A 
HETATM   24  C16 UNL     1      21.220   0.636  52.738  1.00  0.00     0.208 A 
BRANCH  24  25
HETATM   25  N2  UNL     1      20.413   1.662  53.320  1.00  0.00    -0.407 N 
HETATM   26  H17 UNL     1      20.630   2.625  53.056  1.00  0.00     0.152 HD
HETATM   27  H18 UNL     1      20.091   1.484  54.274  1.00  0.00     0.152 HD
ENDBRANCH  24  25
ENDBRANCH  12  17
ENDBRANCH   7   8
ENDBRANCH   6   7
ENDBRANCH   5   6
ENDBRANCH   4   5
ENDBRANCH   3   4
TORSDOF 7
ENDMDL
MODEL 2
REMARK VINA RESULT:      -6.4      4.005      6.165
REMARK  7 active torsions:
REMARK  status: ('A' for Active; 'I' for Inactive)
REMARK    1  A    between atoms: C3_3  and  C4_4 
REMARK    2  A    between atoms: C4_4  and  C5_5 
REMARK    3  A    between atoms: C5_5  and  O1_6 
REMARK    4  A    between atoms: O1_6  and  C6_7 
REMARK    5  A    between atoms: C6_7  and  C7_8 
REMARK    6  A    between atoms: C11_12  and  N1_13 
REMARK    7  A    between atoms: C16_20  and  N2_21 
ROOT
HETATM    1  C1  UNL     1      24.229   4.283  50.945  1.00  0.00     0.012 C 
HETATM    2  C2  UNL     1      23.198   4.380  51.569  1.00  0.00    -0.117 C 
HETATM    3  C3  UNL     1      21.948   4.491  52.319  1.00  0.00     0.095 C 
ENDROOT
BRANCH   3   4
HETATM    4  C4  UNL     1      20.774   3.968  51.472  1.00  0.00     0.038 C 
BRANCH   4   5
HETATM    5  C5  UNL     1      19.977   2.979  52.254  1.00  0.00     0.169 C 
BRANCH   5   6
HETATM    6  O1  UNL     1      20.759   2.168  53.018  1.00  0.00    -0.385 OA
BRANCH   6   7
HETATM    7  C6  UNL     1      20.686   0.816  52.778  1.00  0.00     0.232 C 
BRANCH   7   8
HETATM    8  C7  UNL     1      21.971   0.254  53.346  1.00  0.00     0.078 C 
HETATM    9  C8  UNL     1      23.081   0.759  52.778  1.00  0.00     0.044 C 
HETATM   10  C9  UNL     1      24.516   0.492  53.026  1.00  0.00    -0.035 C 
HETATM   11  C10 UNL     1      25.262   0.935  51.827  1.00  0.00     0.050 C 
HETATM   12  C11 UNL     1      25.177  -0.024  54.046  1.00  0.00     0.039 C 
HETATM   13  C17 UNL     1      24.735  -0.550  55.365  1.00  0.00     0.208 C 
HETATM   14  N3  UNL     1      23.766  -1.617  55.257  1.00  0.00    -0.272 NA
HETATM   15  C18 UNL     1      22.541  -1.715  54.859  1.00  0.00     0.253 C 
HETATM   16  O2  UNL     1      21.712  -0.690  54.362  1.00  0.00    -0.307 OA
BRANCH  12  17
HETATM   17  N1  UNL     1      26.579  -0.090  53.842  1.00  0.00    -0.332 N 
HETATM   18  C12 UNL     1      27.440   0.883  54.477  1.00  0.00     0.120 A 
HETATM   19  C13 UNL     1      28.753   0.854  54.321  1.00  0.00     0.087 A 
HETATM   20 CL1  UNL     1      29.726   2.067  55.125  1.00  0.00    -0.080 Cl
HETATM   21  C14 UNL     1      29.414  -0.147  53.498  1.00  0.00     0.139 A 
HETATM   22  F1  UNL     1      30.746  -0.214  53.313  1.00  0.00    -0.204 F 
HETATM   23  C15 UNL     1      28.618  -1.024  52.915  1.00  0.00     0.063 A 
HETATM   24  C16 UNL     1      27.130  -1.128  52.986  1.00  0.00     0.208 A 
BRANCH  24  25
HETATM   25  N2  UNL     1      26.796  -2.462  53.377  1.00  0.00    -0.407 N 
HETATM   26  H17 UNL     1      26.445  -3.083  52.645  1.00  0.00     0.152 HD
HETATM   27  H18 UNL     1      26.416  -2.565  54.321  1.00  0.00     0.152 HD
ENDBRANCH  24  25
ENDBRANCH  12  17
ENDBRANCH   7   8
ENDBRANCH   6   7
ENDBRANCH   5   6
ENDBRANCH   4   5
ENDBRANCH   3   4
TORSDOF 7
ENDMDL
MODEL 3
REMARK VINA RESULT:      -6.1      3.843      7.097
REMARK  7 active torsions:
REMARK  status: ('A' for Active; 'I' for Inactive)
REMARK    1  A    between atoms: C3_3  and  C4_4 
REMARK    2  A    between atoms: C4_4  and  C5_5 
REMARK    3  A    between atoms: C5_5  and  O1_6 
REMARK    4  A    between atoms: O1_6  and  C6_7 
REMARK    5  A    between atoms: C6_7  and  C7_8 
REMARK    6  A    between atoms: C11_12  and  N1_13 
REMARK    7  A    between atoms: C16_20  and  N2_21 
ROOT
HETATM    1  C1  UNL     1      13.413  -1.041  52.677  1.00  0.00     0.012 C 
HETATM    2  C2  UNL     1      14.478  -0.469  52.658  1.00  0.00    -0.117 C 
HETATM    3  C3  UNL     1      15.768   0.218  52.628  1.00  0.00     0.095 C 
ENDROOT
BRANCH   3   4
HETATM    4  C4  UNL     1      16.811  -0.644  51.896  1.00  0.00     0.038 C 
BRANCH   4   5
HETATM    5  C5  UNL     1      18.037  -0.790  52.733  1.00  0.00     0.169 C 
BRANCH   5   6
HETATM    6  O1  UNL     1      19.161  -0.376  52.088  1.00  0.00    -0.385 OA
BRANCH   6   7
HETATM    7  C6  UNL     1      19.226   0.950  51.725  1.00  0.00     0.232 C 
BRANCH   7   8
HETATM    8  C7  UNL     1      20.695   1.301  51.810  1.00  0.00     0.078 C 
HETATM    9  C8  UNL     1      21.428   0.403  52.492  1.00  0.00     0.044 C 
HETATM   10  C9  UNL     1      22.873   0.358  52.809  1.00  0.00    -0.035 C 
HETATM   11  C10 UNL     1      23.045  -0.558  53.960  1.00  0.00     0.050 C 
HETATM   12  C11 UNL     1      23.934   0.941  52.283  1.00  0.00     0.039 C 
HETATM   13  C17 UNL     1      24.098   1.890  51.149  1.00  0.00     0.208 C 
HETATM   14  N3  UNL     1      23.319   3.098  51.300  1.00  0.00    -0.272 NA
HETATM   15  C18 UNL     1      22.061   3.391  51.303  1.00  0.00     0.253 C 
HETATM   16  O2  UNL     1      20.971   2.513  51.143  1.00  0.00    -0.307 OA
BRANCH  12  17
HETATM   17  N1  UNL     1      25.152   0.598  52.924  1.00  0.00    -0.332 N 
HETATM   18  C12 UNL     1      25.826  -0.629  52.566  1.00  0.00     0.120 A 
HETATM   19  C13 UNL     1      26.968  -0.985  53.133  1.00  0.00     0.087 A 
HETATM   20 CL1  UNL     1      27.723  -2.486  52.643  1.00  0.00    -0.080 Cl
HETATM   21  C14 UNL     1      27.611  -0.174  54.155  1.00  0.00     0.139 A 
HETATM   22  F1  UNL     1      28.772  -0.497  54.756  1.00  0.00    -0.204 F 
HETATM   23  C15 UNL     1      26.981   0.940  54.481  1.00  0.00     0.063 A 
HETATM   24  C16 UNL     1      25.697   1.479  53.944  1.00  0.00     0.208 A 
BRANCH  24  25
HETATM   25  N2  UNL     1      25.927   2.822  53.510  1.00  0.00    -0.407 N 
HETATM   26  H17 UNL     1      26.837   3.229  53.731  1.00  0.00     0.152 HD
HETATM   27  H18 UNL     1      25.109   3.436  53.518  1.00  0.00     0.152 HD
ENDBRANCH  24  25
ENDBRANCH  12  17
ENDBRANCH   7   8
ENDBRANCH   6   7
ENDBRANCH   5   6
ENDBRANCH   4   5
ENDBRANCH   3   4
TORSDOF 7
ENDMDL
MODEL 4
REMARK VINA RESULT:      -6.0      4.351      6.775
REMARK  7 active torsions:
REMARK  status: ('A' for Active; 'I' for Inactive)
REMARK    1  A    between atoms: C3_3  and  C4_4 
REMARK    2  A    between atoms: C4_4  and  C5_5 
REMARK    3  A    between atoms: C5_5  and  O1_6 
REMARK    4  A    between atoms: O1_6  and  C6_7 
REMARK    5  A    between atoms: C6_7  and  C7_8 
REMARK    6  A    between atoms: C11_12  and  N1_13 
REMARK    7  A    between atoms: C16_20  and  N2_21 
ROOT
HETATM    1  C1  UNL     1      29.189   0.158  53.930  1.00  0.00     0.012 C 
HETATM    2  C2  UNL     1      28.211   0.082  53.223  1.00  0.00    -0.117 C 
HETATM    3  C3  UNL     1      27.026  -0.014  52.374  1.00  0.00     0.095 C 
ENDROOT
BRANCH   3   4
HETATM    4  C4  UNL     1      26.034  -1.035  52.961  1.00  0.00     0.038 C 
BRANCH   4   5
HETATM    5  C5  UNL     1      25.419  -0.494  54.208  1.00  0.00     0.169 C 
BRANCH   5   6
HETATM    6  O1  UNL     1      24.314   0.260  53.958  1.00  0.00    -0.385 OA
BRANCH   6   7
HETATM    7  C6  UNL     1      23.262  -0.356  53.319  1.00  0.00     0.232 C 
BRANCH   7   8
HETATM    8  C7  UNL     1      22.583   0.749  52.541  1.00  0.00     0.078 C 
HETATM    9  C8  UNL     1      23.371   1.320  51.611  1.00  0.00     0.044 C 
HETATM   10  C9  UNL     1      23.114   2.414  50.649  1.00  0.00    -0.035 C 
HETATM   11  C10 UNL     1      24.427   2.949  50.226  1.00  0.00     0.050 C 
HETATM   12  C11 UNL     1      22.010   2.939  50.150  1.00  0.00     0.039 C 
HETATM   13  C17 UNL     1      20.569   2.637  50.362  1.00  0.00     0.208 C 
HETATM   14  N3  UNL     1      20.167   2.726  51.748  1.00  0.00    -0.272 NA
HETATM   15  C18 UNL     1      20.419   2.063  52.827  1.00  0.00     0.253 C 
HETATM   16  O2  UNL     1      21.253   0.937  52.971  1.00  0.00    -0.307 OA
BRANCH  12  17
HETATM   17  N1  UNL     1      22.245   3.998  49.235  1.00  0.00    -0.332 N 
HETATM   18  C12 UNL     1      22.055   3.775  47.820  1.00  0.00     0.120 A 
HETATM   19  C13 UNL     1      22.254   4.735  46.932  1.00  0.00     0.087 A 
HETATM   20 CL1  UNL     1      22.002   4.384  45.236  1.00  0.00    -0.080 Cl
HETATM   21  C14 UNL     1      22.684   6.070  47.319  1.00  0.00     0.139 A 
HETATM   22  F1  UNL     1      22.898   7.077  46.450  1.00  0.00    -0.204 F 
HETATM   23  C15 UNL     1      22.864   6.261  48.613  1.00  0.00     0.063 A 
HETATM   24  C16 UNL     1      22.686   5.290  49.734  1.00  0.00     0.208 A 
BRANCH  24  25
HETATM   25  N2  UNL     1      21.816   5.884  50.701  1.00  0.00    -0.407 N 
HETATM   26  H17 UNL     1      21.487   5.281  51.457  1.00  0.00     0.152 HD
HETATM   27  H18 UNL     1      21.181   6.601  50.343  1.00  0.00     0.152 HD
ENDBRANCH  24  25
ENDBRANCH  12  17
ENDBRANCH   7   8
ENDBRANCH   6   7
ENDBRANCH   5   6
ENDBRANCH   4   5
ENDBRANCH   3   4
TORSDOF 7
ENDMDL
MODEL 5
REMARK VINA RESULT:      -6.0      5.981      9.379
REMARK  7 active torsions:
REMARK  status: ('A' for Active; 'I' for Inactive)
REMARK    1  A    between atoms: C3_3  and  C4_4 
REMARK    2  A    between atoms: C4_4  and  C5_5 
REMARK    3  A    between atoms: C5_5  and  O1_6 
REMARK    4  A    between atoms: O1_6  and  C6_7 
REMARK    5  A    between atoms: C6_7  and  C7_8 
REMARK    6  A    between atoms: C11_12  and  N1_13 
REMARK    7  A    between atoms: C16_20  and  N2_21 
ROOT
HETATM    1  C1  UNL     1      26.834  -1.957  52.331  1.00  0.00     0.012 C 
HETATM    2  C2  UNL     1      26.443  -0.869  52.684  1.00  0.00    -0.117 C 
HETATM    3  C3  UNL     1      25.967   0.448  53.105  1.00  0.00     0.095 C 
ENDROOT
BRANCH   3   4
HETATM    4  C4  UNL     1      25.556   1.280  51.877  1.00  0.00     0.038 C 
BRANCH   4   5
HETATM    5  C5  UNL     1      26.301   2.572  51.859  1.00  0.00     0.169 C 
BRANCH   5   6
HETATM    6  O1  UNL     1      26.998   2.755  50.705  1.00  0.00    -0.385 OA
BRANCH   6   7
HETATM    7  C6  UNL     1      26.271   2.976  49.558  1.00  0.00     0.232 C 
BRANCH   7   8
HETATM    8  C7  UNL     1      26.289   4.478  49.374  1.00  0.00     0.078 C 
HETATM    9  C8  UNL     1      27.374   4.931  48.718  1.00  0.00     0.044 C 
HETATM   10  C9  UNL     1      27.783   6.299  48.333  1.00  0.00    -0.035 C 
HETATM   11  C10 UNL     1      29.242   6.270  48.080  1.00  0.00     0.050 C 
HETATM   12  C11 UNL     1      27.125   7.434  48.187  1.00  0.00     0.039 C 
HETATM   13  C17 UNL     1      25.690   7.791  48.358  1.00  0.00     0.208 C 
HETATM   14  N3  UNL     1      25.181   7.487  49.677  1.00  0.00    -0.272 NA
HETATM   15  C18 UNL     1      24.947   6.411  50.350  1.00  0.00     0.253 C 
HETATM   16  O2  UNL     1      25.146   5.078  49.941  1.00  0.00    -0.307 OA
BRANCH  12  17
HETATM   17  N1  UNL     1      27.943   8.523  47.793  1.00  0.00    -0.332 N 
HETATM   18  C12 UNL     1      28.933   9.041  48.711  1.00  0.00     0.120 A 
HETATM   19  C13 UNL     1      29.723  10.050  48.383  1.00  0.00     0.087 A 
HETATM   20 CL1  UNL     1      30.898  10.618  49.551  1.00  0.00    -0.080 Cl
HETATM   21  C14 UNL     1      29.642  10.709  47.089  1.00  0.00     0.139 A 
HETATM   22  F1  UNL     1      30.427  11.737  46.713  1.00  0.00    -0.204 F 
HETATM   23  C15 UNL     1      28.728  10.235  46.262  1.00  0.00     0.063 A 
HETATM   24  C16 UNL     1      27.765   9.114  46.477  1.00  0.00     0.208 A 
BRANCH  24  25
HETATM   25  N2  UNL     1      27.902   8.196  45.389  1.00  0.00    -0.407 N 
HETATM   26  H17 UNL     1      27.167   8.208  44.680  1.00  0.00     0.152 HD
HETATM   27  H18 UNL     1      28.337   7.300  45.619  1.00  0.00     0.152 HD
ENDBRANCH  24  25
ENDBRANCH  12  17
ENDBRANCH   7   8
ENDBRANCH   6   7
ENDBRANCH   5   6
ENDBRANCH   4   5
ENDBRANCH   3   4
TORSDOF 7
ENDMDL
MODEL 6
REMARK VINA RESULT:      -5.8      4.209      6.805
REMARK  7 active torsions:
REMARK  status: ('A' for Active; 'I' for Inactive)
REMARK    1  A    between atoms: C3_3  and  C4_4 
REMARK    2  A    between atoms: C4_4  and  C5_5 
REMARK    3  A    between atoms: C5_5  and  O1_6 
REMARK    4  A    between atoms: O1_6  and  C6_7 
REMARK    5  A    between atoms: C6_7  and  C7_8 
REMARK    6  A    between atoms: C11_12  and  N1_13 
REMARK    7  A    between atoms: C16_20  and  N2_21 
ROOT
HETATM    1  C1  UNL     1      12.996   4.550  53.985  1.00  0.00     0.012 C 
HETATM    2  C2  UNL     1      13.500   3.924  53.082  1.00  0.00    -0.117 C 
HETATM    3  C3  UNL     1      14.116   3.167  51.994  1.00  0.00     0.095 C 
ENDROOT
BRANCH   3   4
HETATM    4  C4  UNL     1      15.647   3.316  52.046  1.00  0.00     0.038 C 
BRANCH   4   5
HETATM    5  C5  UNL     1      16.301   2.076  51.534  1.00  0.00     0.169 C 
BRANCH   5   6
HETATM    6  O1  UNL     1      17.659   2.152  51.571  1.00  0.00    -0.385 OA
BRANCH   6   7
HETATM    7  C6  UNL     1      18.363   1.027  51.204  1.00  0.00     0.232 C 
BRANCH   7   8
HETATM    8  C7  UNL     1      19.812   1.461  51.207  1.00  0.00     0.078 C 
HETATM    9  C8  UNL     1      20.579   0.781  52.078  1.00  0.00     0.044 C 
HETATM   10  C9  UNL     1      22.021   0.882  52.398  1.00  0.00    -0.035 C 
HETATM   11  C10 UNL     1      22.223   0.265  53.728  1.00  0.00     0.050 C 
HETATM   12  C11 UNL     1      23.059   1.380  51.751  1.00  0.00     0.039 C 
HETATM   13  C17 UNL     1      23.191   2.049  50.429  1.00  0.00     0.208 C 
HETATM   14  N3  UNL     1      22.352   3.220  50.297  1.00  0.00    -0.272 NA
HETATM   15  C18 UNL     1      21.082   3.443  50.233  1.00  0.00     0.253 C 
HETATM   16  O2  UNL     1      20.038   2.499  50.279  1.00  0.00    -0.307 OA
BRANCH  12  17
HETATM   17  N1  UNL     1      24.284   1.254  52.455  1.00  0.00    -0.332 N 
HETATM   18  C12 UNL     1      25.060   0.042  52.326  1.00  0.00     0.120 A 
HETATM   19  C13 UNL     1      26.212  -0.115  52.957  1.00  0.00     0.087 A 
HETATM   20 CL1  UNL     1      27.093  -1.614  52.748  1.00  0.00    -0.080 Cl
HETATM   21  C14 UNL     1      26.766   0.912  53.827  1.00  0.00     0.139 A 
HETATM   22  F1  UNL     1      27.934   0.794  54.487  1.00  0.00    -0.204 F 
HETATM   23  C15 UNL     1      26.044   2.011  53.945  1.00  0.00     0.063 A 
HETATM   24  C16 UNL     1      24.734   2.342  53.308  1.00  0.00     0.208 A 
BRANCH  24  25
HETATM   25  N2  UNL     1      24.869   3.602  52.645  1.00  0.00    -0.407 N 
HETATM   26  H17 UNL     1      25.642   3.694  51.984  1.00  0.00     0.152 HD
HETATM   27  H18 UNL     1      24.604   4.422  53.196  1.00  0.00     0.152 HD
ENDBRANCH  24  25
ENDBRANCH  12  17
ENDBRANCH   7   8
ENDBRANCH   6   7
ENDBRANCH   5   6
ENDBRANCH   4   5
ENDBRANCH   3   4
TORSDOF 7
ENDMDL
MODEL 7
REMARK VINA RESULT:      -5.7      6.121      9.432
REMARK  7 active torsions:
REMARK  status: ('A' for Active; 'I' for Inactive)
REMARK    1  A    between atoms: C3_3  and  C4_4 
REMARK    2  A    between atoms: C4_4  and  C5_5 
REMARK    3  A    between atoms: C5_5  and  O1_6 
REMARK    4  A    between atoms: O1_6  and  C6_7 
REMARK    5  A    between atoms: C6_7  and  C7_8 
REMARK    6  A    between atoms: C11_12  and  N1_13 
REMARK    7  A    between atoms: C16_20  and  N2_21 
ROOT
HETATM    1  C1  UNL     1      19.695   2.504  50.617  1.00  0.00     0.012 C 
HETATM    2  C2  UNL     1      20.830   2.740  50.961  1.00  0.00    -0.117 C 
HETATM    3  C3  UNL     1      22.204   3.022  51.371  1.00  0.00     0.095 C 
ENDROOT
BRANCH   3   4
HETATM    4  C4  UNL     1      23.147   1.918  50.857  1.00  0.00     0.038 C 
BRANCH   4   5
HETATM    5  C5  UNL     1      24.493   2.058  51.486  1.00  0.00     0.169 C 
BRANCH   5   6
HETATM    6  O1  UNL     1      25.145   3.180  51.075  1.00  0.00    -0.385 OA
BRANCH   6   7
HETATM    7  C6  UNL     1      25.533   3.235  49.757  1.00  0.00     0.232 C 
BRANCH   7   8
HETATM    8  C7  UNL     1      25.992   4.662  49.549  1.00  0.00     0.078 C 
HETATM    9  C8  UNL     1      27.150   4.765  48.871  1.00  0.00     0.044 C 
HETATM   10  C9  UNL     1      27.940   5.946  48.457  1.00  0.00    -0.035 C 
HETATM   11  C10 UNL     1      29.319   5.483  48.185  1.00  0.00     0.050 C 
HETATM   12  C11 UNL     1      27.644   7.224  48.303  1.00  0.00     0.039 C 
HETATM   13  C17 UNL     1      26.384   7.992  48.489  1.00  0.00     0.208 C 
HETATM   14  N3  UNL     1      25.832   7.867  49.819  1.00  0.00    -0.272 NA
HETATM   15  C18 UNL     1      25.301   6.916  50.513  1.00  0.00     0.253 C 
HETATM   16  O2  UNL     1      25.088   5.580  50.123  1.00  0.00    -0.307 OA
BRANCH  12  17
HETATM   17  N1  UNL     1      28.742   8.017  47.881  1.00  0.00    -0.332 N 
HETATM   18  C12 UNL     1      28.922   8.295  46.474  1.00  0.00     0.120 A 
HETATM   19  C13 UNL     1      29.926   9.036  46.035  1.00  0.00     0.087 A 
HETATM   20 CL1  UNL     1      30.074   9.328  44.316  1.00  0.00    -0.080 Cl
HETATM   21  C14 UNL     1      30.916   9.609  46.935  1.00  0.00     0.139 A 
HETATM   22  F1  UNL     1      31.952  10.369  46.532  1.00  0.00    -0.204 F 
HETATM   23  C15 UNL     1      30.748   9.340  48.216  1.00  0.00     0.063 A 
HETATM   24  C16 UNL     1      29.679   8.526  48.868  1.00  0.00     0.208 A 
BRANCH  24  25
HETATM   25  N2  UNL     1      29.085   9.319  49.899  1.00  0.00    -0.407 N 
HETATM   26  H17 UNL     1      28.332   8.887  50.438  1.00  0.00     0.152 HD
HETATM   27  H18 UNL     1      29.027  10.322  49.708  1.00  0.00     0.152 HD
ENDBRANCH  24  25
ENDBRANCH  12  17
ENDBRANCH   7   8
ENDBRANCH   6   7
ENDBRANCH   5   6
ENDBRANCH   4   5
ENDBRANCH   3   4
TORSDOF 7
ENDMDL
MODEL 8
REMARK VINA RESULT:      -5.7      4.264      5.999
REMARK  7 active torsions:
REMARK  status: ('A' for Active; 'I' for Inactive)
REMARK    1  A    between atoms: C3_3  and  C4_4 
REMARK    2  A    between atoms: C4_4  and  C5_5 
REMARK    3  A    between atoms: C5_5  and  O1_6 
REMARK    4  A    between atoms: O1_6  and  C6_7 
REMARK    5  A    between atoms: C6_7  and  C7_8 
REMARK    6  A    between atoms: C11_12  and  N1_13 
REMARK    7  A    between atoms: C16_20  and  N2_21 
ROOT
HETATM    1  C1  UNL     1      29.312  -0.113  53.924  1.00  0.00     0.012 C 
HETATM    2  C2  UNL     1      28.348  -0.492  53.302  1.00  0.00    -0.117 C 
HETATM    3  C3  UNL     1      27.177  -0.947  52.554  1.00  0.00     0.095 C 
ENDROOT
BRANCH   3   4
HETATM    4  C4  UNL     1      25.939  -0.967  53.468  1.00  0.00     0.038 C 
BRANCH   4   5
HETATM    5  C5  UNL     1      25.595   0.420  53.897  1.00  0.00     0.169 C 
BRANCH   5   6
HETATM    6  O1  UNL     1      25.547   1.291  52.853  1.00  0.00    -0.385 OA
BRANCH   6   7
HETATM    7  C6  UNL     1      25.133   2.575  53.122  1.00  0.00     0.232 C 
BRANCH   7   8
HETATM    8  C7  UNL     1      23.973   2.812  52.180  1.00  0.00     0.078 C 
HETATM    9  C8  UNL     1      22.791   2.380  52.657  1.00  0.00     0.044 C 
HETATM   10  C9  UNL     1      21.431   2.412  52.075  1.00  0.00    -0.035 C 
HETATM   11  C10 UNL     1      20.622   1.396  52.786  1.00  0.00     0.050 C 
HETATM   12  C11 UNL     1      20.872   3.131  51.119  1.00  0.00     0.039 C 
HETATM   13  C17 UNL     1      21.396   4.207  50.236  1.00  0.00     0.208 C 
HETATM   14  N3  UNL     1      22.549   3.799  49.465  1.00  0.00    -0.272 NA
HETATM   15  C18 UNL     1      23.773   3.483  49.731  1.00  0.00     0.253 C 
HETATM   16  O2  UNL     1      24.398   3.443  50.992  1.00  0.00    -0.307 OA
BRANCH  12  17
HETATM   17  N1  UNL     1      19.508   2.815  50.890  1.00  0.00    -0.332 N 
HETATM   18  C12 UNL     1      18.477   3.572  51.564  1.00  0.00     0.120 A 
HETATM   19  C13 UNL     1      17.193   3.317  51.375  1.00  0.00     0.087 A 
HETATM   20 CL1  UNL     1      16.005   4.279  52.228  1.00  0.00    -0.080 Cl
HETATM   21  C14 UNL     1      16.736   2.258  50.487  1.00  0.00     0.139 A 
HETATM   22  F1  UNL     1      15.440   1.966  50.264  1.00  0.00    -0.204 F 
HETATM   23  C15 UNL     1      17.686   1.568  49.885  1.00  0.00     0.063 A 
HETATM   24  C16 UNL     1      19.167   1.725  49.991  1.00  0.00     0.208 A 
BRANCH  24  25
HETATM   25  N2  UNL     1      19.696   1.856  48.669  1.00  0.00    -0.407 N 
HETATM   26  H17 UNL     1      20.681   2.116  48.589  1.00  0.00     0.152 HD
HETATM   27  H18 UNL     1      19.044   2.212  47.966  1.00  0.00     0.152 HD
ENDBRANCH  24  25
ENDBRANCH  12  17
ENDBRANCH   7   8
ENDBRANCH   6   7
ENDBRANCH   5   6
ENDBRANCH   4   5
ENDBRANCH   3   4
TORSDOF 7
ENDMDL
MODEL 9
REMARK VINA RESULT:      -5.6      4.425      7.641
REMARK  7 active torsions:
REMARK  status: ('A' for Active; 'I' for Inactive)
REMARK    1  A    between atoms: C3_3  and  C4_4 
REMARK    2  A    between atoms: C4_4  and  C5_5 
REMARK    3  A    between atoms: C5_5  and  O1_6 
REMARK    4  A    between atoms: O1_6  and  C6_7 
REMARK    5  A    between atoms: C6_7  and  C7_8 
REMARK    6  A    between atoms: C11_12  and  N1_13 
REMARK    7  A    between atoms: C16_20  and  N2_21 
ROOT
HETATM    1  C1  UNL     1      15.911  -1.288  48.582  1.00  0.00     0.012 C 
HETATM    2  C2  UNL     1      15.946  -0.379  49.378  1.00  0.00    -0.117 C 
HETATM    3  C3  UNL     1      15.993   0.725  50.335  1.00  0.00     0.095 C 
ENDROOT
BRANCH   3   4
HETATM    4  C4  UNL     1      17.251   1.579  50.098  1.00  0.00     0.038 C 
BRANCH   4   5
HETATM    5  C5  UNL     1      18.248   1.338  51.181  1.00  0.00     0.169 C 
BRANCH   5   6
HETATM    6  O1  UNL     1      19.502   1.127  50.697  1.00  0.00    -0.385 OA
BRANCH   6   7
HETATM    7  C6  UNL     1      20.335   0.319  51.435  1.00  0.00     0.232 C 
BRANCH   7   8
HETATM    8  C7  UNL     1      21.625   1.102  51.555  1.00  0.00     0.078 C 
HETATM    9  C8  UNL     1      21.958   1.770  50.436  1.00  0.00     0.044 C 
HETATM   10  C9  UNL     1      23.114   2.641  50.124  1.00  0.00    -0.035 C 
HETATM   11  C10 UNL     1      23.232   2.708  48.649  1.00  0.00     0.050 C 
HETATM   12  C11 UNL     1      23.973   3.308  50.872  1.00  0.00     0.039 C 
HETATM   13  C17 UNL     1      24.123   3.447  52.346  1.00  0.00     0.208 C 
HETATM   14  N3  UNL     1      24.280   2.181  53.025  1.00  0.00    -0.272 NA
HETATM   15  C18 UNL     1      23.531   1.152  53.244  1.00  0.00     0.253 C 
HETATM   16  O2  UNL     1      22.198   0.953  52.835  1.00  0.00    -0.307 OA
BRANCH  12  17
HETATM   17  N1  UNL     1      24.941   4.028  50.127  1.00  0.00    -0.332 N 
HETATM   18  C12 UNL     1      24.597   5.316  49.566  1.00  0.00     0.120 A 
HETATM   19  C13 UNL     1      25.470   6.026  48.872  1.00  0.00     0.087 A 
HETATM   20 CL1  UNL     1      24.977   7.577  48.227  1.00  0.00    -0.080 Cl
HETATM   21  C14 UNL     1      26.824   5.557  48.618  1.00  0.00     0.139 A 
HETATM   22  F1  UNL     1      27.744   6.246  47.917  1.00  0.00    -0.204 F 
HETATM   23  C15 UNL     1      27.124   4.375  49.125  1.00  0.00     0.063 A 
HETATM   24  C16 UNL     1      26.261   3.454  49.924  1.00  0.00     0.208 A 
BRANCH  24  25
HETATM   25  N2  UNL     1      26.959   3.126  51.128  1.00  0.00    -0.407 N 
HETATM   26  H17 UNL     1      27.977   3.074  51.072  1.00  0.00     0.152 HD
HETATM   27  H18 UNL     1      26.477   2.479  51.757  1.00  0.00     0.152 HD
ENDBRANCH  24  25
ENDBRANCH  12  17
ENDBRANCH   7   8
ENDBRANCH   6   7
ENDBRANCH   5   6
ENDBRANCH   4   5
ENDBRANCH   3   4
TORSDOF 7
ENDMDL
