MODEL 1
REMARK VINA RESULT:      -7.3      0.000      0.000
REMARK  5 active torsions:
REMARK  status: ('A' for Active; 'I' for Inactive)
REMARK    1  A    between atoms: C2_2  and  N1_3 
REMARK    2  A    between atoms: N1_3  and  C3_4 
REMARK    3  A    between atoms: C3_4  and  C4_5 
REMARK    4  A    between atoms: C4_5  and  N2_6 
REMARK    5  A    between atoms: N2_6  and  C5_7 
ROOT
HETATM    1  C5  UNL     1      25.950   1.564  53.754  1.00  0.00     0.160 A 
HETATM    2  N3  UNL     1      25.943   0.407  54.424  1.00  0.00    -0.222 NA
HETATM    3  C6  UNL     1      24.912  -0.480  54.273  1.00  0.00     0.238 A 
HETATM    4  N4  UNL     1      23.877  -0.220  53.450  1.00  0.00    -0.215 NA
HETATM    5  C7  UNL     1      23.821   0.936  52.739  1.00  0.00     0.202 A 
HETATM    6  C8  UNL     1      24.879   1.791  52.926  1.00  0.00     0.129 A 
HETATM    7  N5  UNL     1      25.047   3.058  52.296  1.00  0.00    -0.379 N 
HETATM    8  C9  UNL     1      24.536   3.650  51.096  1.00  0.00     0.161 C 
HETATM    9  C10 UNL     1      23.564   2.828  50.364  1.00  0.00    -0.007 A 
HETATM   10  C11 UNL     1      23.517   3.353  49.068  1.00  0.00     0.011 A 
HETATM   11  C12 UNL     1      22.669   2.779  48.116  1.00  0.00     0.001 A 
HETATM   12  C13 UNL     1      21.875   1.698  48.432  1.00  0.00     0.003 A 
HETATM   13  C14 UNL     1      21.906   1.158  49.717  1.00  0.00     0.038 A 
HETATM   14  C15 UNL     1      22.744   1.734  50.644  1.00  0.00     0.086 A 
HETATM   15  O1  UNL     1      22.698   1.114  51.908  1.00  0.00    -0.289 OA
HETATM   16  H9  UNL     1      25.686   3.734  52.804  1.00  0.00     0.160 HD
ENDROOT
BRANCH   1  17
HETATM   17  N2  UNL     1      27.027   2.469  53.933  1.00  0.00    -0.341 N 
HETATM   18  H7  UNL     1      27.210   3.337  54.449  1.00  0.00     0.167 HD
BRANCH  17  19
HETATM   19  C4  UNL     1      28.265   2.210  53.251  1.00  0.00     0.167 C 
BRANCH  19  20
HETATM   20  C3  UNL     1      28.984   1.173  53.656  1.00  0.00    -0.005 C 
BRANCH  20  21
HETATM   21  N1  UNL     1      29.761   0.306  54.201  1.00  0.00    -0.247 NA
BRANCH  21  22
HETATM   22  C2  UNL     1      29.843  -0.997  53.567  1.00  0.00     0.155 C 
HETATM   23  C1  UNL     1      28.498  -1.405  53.082  1.00  0.00     0.029 C 
ENDBRANCH  21  22
ENDBRANCH  20  21
ENDBRANCH  19  20
ENDBRANCH  17  19
ENDBRANCH   1  17
TORSDOF 5
ENDMDL
MODEL 2
REMARK VINA RESULT:      -7.2      2.434      5.810
REMARK  5 active torsions:
REMARK  status: ('A' for Active; 'I' for Inactive)
REMARK    1  A    between atoms: C2_2  and  N1_3 
REMARK    2  A    between atoms: N1_3  and  C3_4 
REMARK    3  A    between atoms: C3_4  and  C4_5 
REMARK    4  A    between atoms: C4_5  and  N2_6 
REMARK    5  A    between atoms: N2_6  and  C5_7 
ROOT
HETATM    1  C5  UNL     1      24.129   2.479  53.082  1.00  0.00     0.160 A 
HETATM    2  N3  UNL     1      22.943   1.869  53.186  1.00  0.00    -0.222 NA
HETATM    3  C6  UNL     1      22.836   0.518  52.999  1.00  0.00     0.238 A 
HETATM    4  N4  UNL     1      23.913  -0.239  52.707  1.00  0.00    -0.215 NA
HETATM    5  C7  UNL     1      25.147   0.316  52.588  1.00  0.00     0.202 A 
HETATM    6  C8  UNL     1      25.201   1.674  52.786  1.00  0.00     0.129 A 
HETATM    7  N5  UNL     1      26.374   2.479  52.714  1.00  0.00    -0.379 N 
HETATM    8  C9  UNL     1      27.775   2.214  52.848  1.00  0.00     0.161 C 
HETATM    9  C10 UNL     1      28.124   0.798  53.025  1.00  0.00    -0.007 A 
HETATM   10  C11 UNL     1      29.421   0.787  53.550  1.00  0.00     0.011 A 
HETATM   11  C12 UNL     1      30.044  -0.433  53.833  1.00  0.00     0.001 A 
HETATM   12  C13 UNL     1      29.402  -1.629  53.602  1.00  0.00     0.003 A 
HETATM   13  C14 UNL     1      28.109  -1.642  53.079  1.00  0.00     0.038 A 
HETATM   14  C15 UNL     1      27.509  -0.435  52.806  1.00  0.00     0.086 A 
HETATM   15  O1  UNL     1      26.207  -0.558  52.281  1.00  0.00    -0.289 OA
HETATM   16  H9  UNL     1      26.204   3.508  52.521  1.00  0.00     0.160 HD
ENDROOT
BRANCH   1  17
HETATM   17  N2  UNL     1      24.214   3.881  53.275  1.00  0.00    -0.341 N 
HETATM   18  H7  UNL     1      24.684   4.531  53.915  1.00  0.00     0.167 HD
BRANCH  17  19
HETATM   19  C4  UNL     1      23.481   4.744  52.390  1.00  0.00     0.167 C 
BRANCH  19  20
HETATM   20  C3  UNL     1      23.956   4.914  51.164  1.00  0.00    -0.005 C 
BRANCH  20  21
HETATM   21  N1  UNL     1      24.281   4.915  49.921  1.00  0.00    -0.247 NA
BRANCH  21  22
HETATM   22  C2  UNL     1      25.666   5.210  49.601  1.00  0.00     0.155 C 
HETATM   23  C1  UNL     1      26.418   3.943  49.404  1.00  0.00     0.029 C 
ENDBRANCH  21  22
ENDBRANCH  20  21
ENDBRANCH  19  20
ENDBRANCH  17  19
ENDBRANCH   1  17
TORSDOF 5
ENDMDL
MODEL 3
REMARK VINA RESULT:      -7.2      2.460      6.395
REMARK  5 active torsions:
REMARK  status: ('A' for Active; 'I' for Inactive)
REMARK    1  A    between atoms: C2_2  and  N1_3 
REMARK    2  A    between atoms: N1_3  and  C3_4 
REMARK    3  A    between atoms: C3_4  and  C4_5 
REMARK    4  A    between atoms: C4_5  and  N2_6 
REMARK    5  A    between atoms: N2_6  and  C5_7 
ROOT
HETATM    1  C5  UNL     1      23.293   1.562  52.133  1.00  0.00     0.160 A 
HETATM    2  N3  UNL     1      22.974   2.858  52.048  1.00  0.00    -0.222 NA
HETATM    3  C6  UNL     1      23.750   3.807  52.657  1.00  0.00     0.238 A 
HETATM    4  N4  UNL     1      24.853   3.471  53.356  1.00  0.00    -0.215 NA
HETATM    5  C7  UNL     1      25.234   2.172  53.481  1.00  0.00     0.202 A 
HETATM    6  C8  UNL     1      24.422   1.260  52.852  1.00  0.00     0.129 A 
HETATM    7  N5  UNL     1      24.612  -0.152  52.839  1.00  0.00    -0.379 N 
HETATM    8  C9  UNL     1      25.744  -1.007  53.031  1.00  0.00     0.161 C 
HETATM    9  C10 UNL     1      26.988  -0.318  53.398  1.00  0.00    -0.007 A 
HETATM   10  C11 UNL     1      28.021  -1.221  53.124  1.00  0.00     0.011 A 
HETATM   11  C12 UNL     1      29.347  -0.854  53.372  1.00  0.00     0.001 A 
HETATM   12  C13 UNL     1      29.658   0.387  53.882  1.00  0.00     0.003 A 
HETATM   13  C14 UNL     1      28.644   1.304  54.161  1.00  0.00     0.038 A 
HETATM   14  C15 UNL     1      27.344   0.929  53.914  1.00  0.00     0.086 A 
HETATM   15  O1  UNL     1      26.399   1.925  54.231  1.00  0.00    -0.289 OA
HETATM   16  H9  UNL     1      23.739  -0.723  52.647  1.00  0.00     0.160 HD
ENDROOT
BRANCH   1  17
HETATM   17  N2  UNL     1      22.470   0.597  51.499  1.00  0.00    -0.341 N 
HETATM   18  H7  UNL     1      22.589  -0.208  50.872  1.00  0.00     0.167 HD
BRANCH  17  19
HETATM   19  C4  UNL     1      21.050   0.653  51.713  1.00  0.00     0.167 C 
BRANCH  19  20
HETATM   20  C3  UNL     1      20.605   0.437  52.943  1.00  0.00    -0.005 C 
BRANCH  20  21
HETATM   21  N1  UNL     1      20.378   0.155  54.177  1.00  0.00    -0.247 NA
BRANCH  21  22
HETATM   22  C2  UNL     1      21.476  -0.417  54.935  1.00  0.00     0.155 C 
HETATM   23  C1  UNL     1      21.756  -1.794  54.454  1.00  0.00     0.029 C 
ENDBRANCH  21  22
ENDBRANCH  20  21
ENDBRANCH  19  20
ENDBRANCH  17  19
ENDBRANCH   1  17
TORSDOF 5
ENDMDL
MODEL 4
REMARK VINA RESULT:      -7.2      2.924      6.418
REMARK  5 active torsions:
REMARK  status: ('A' for Active; 'I' for Inactive)
REMARK    1  A    between atoms: C2_2  and  N1_3 
REMARK    2  A    between atoms: N1_3  and  C3_4 
REMARK    3  A    between atoms: C3_4  and  C4_5 
REMARK    4  A    between atoms: C4_5  and  N2_6 
REMARK    5  A    between atoms: N2_6  and  C5_7 
ROOT
HETATM    1  C5  UNL     1      22.683  -0.027  53.445  1.00  0.00     0.160 A 
HETATM    2  N3  UNL     1      22.087  -0.719  54.421  1.00  0.00    -0.222 NA
HETATM    3  C6  UNL     1      22.830  -1.408  55.341  1.00  0.00     0.238 A 
HETATM    4  N4  UNL     1      24.177  -1.413  55.295  1.00  0.00    -0.215 NA
HETATM    5  C7  UNL     1      24.847  -0.731  54.329  1.00  0.00     0.202 A 
HETATM    6  C8  UNL     1      24.055  -0.056  53.432  1.00  0.00     0.129 A 
HETATM    7  N5  UNL     1      24.521   0.727  52.336  1.00  0.00    -0.379 N 
HETATM    8  C9  UNL     1      25.753   1.393  52.040  1.00  0.00     0.161 C 
HETATM    9  C10 UNL     1      26.823   1.188  53.026  1.00  0.00    -0.007 A 
HETATM   10  C11 UNL     1      27.748   2.214  52.806  1.00  0.00     0.011 A 
HETATM   11  C12 UNL     1      28.898   2.293  53.598  1.00  0.00     0.001 A 
HETATM   12  C13 UNL     1      29.138   1.375  54.596  1.00  0.00     0.003 A 
HETATM   13  C14 UNL     1      28.229   0.344  54.833  1.00  0.00     0.038 A 
HETATM   14  C15 UNL     1      27.103   0.278  54.046  1.00  0.00     0.086 A 
HETATM   15  O1  UNL     1      26.252  -0.799  54.366  1.00  0.00    -0.289 OA
HETATM   16  H9  UNL     1      23.823   0.862  51.550  1.00  0.00     0.160 HD
ENDROOT
BRANCH   1  17
HETATM   17  N2  UNL     1      21.892   0.674  52.500  1.00  0.00    -0.341 N 
HETATM   18  H7  UNL     1      21.996   1.041  51.547  1.00  0.00     0.167 HD
BRANCH  17  19
HETATM   19  C4  UNL     1      20.546   1.030  52.857  1.00  0.00     0.167 C 
BRANCH  19  20
HETATM   20  C3  UNL     1      20.152   2.271  52.606  1.00  0.00    -0.005 C 
BRANCH  20  21
HETATM   21  N1  UNL     1      19.984   3.522  52.365  1.00  0.00    -0.247 NA
BRANCH  21  22
HETATM   22  C2  UNL     1      20.965   4.166  51.511  1.00  0.00     0.155 C 
HETATM   23  C1  UNL     1      22.240   4.343  52.254  1.00  0.00     0.029 C 
ENDBRANCH  21  22
ENDBRANCH  20  21
ENDBRANCH  19  20
ENDBRANCH  17  19
ENDBRANCH   1  17
TORSDOF 5
ENDMDL
MODEL 5
REMARK VINA RESULT:      -7.2      2.168      3.694
REMARK  5 active torsions:
REMARK  status: ('A' for Active; 'I' for Inactive)
REMARK    1  A    between atoms: C2_2  and  N1_3 
REMARK    2  A    between atoms: N1_3  and  C3_4 
REMARK    3  A    between atoms: C3_4  and  C4_5 
REMARK    4  A    between atoms: C4_5  and  N2_6 
REMARK    5  A    between atoms: N2_6  and  C5_7 
ROOT
HETATM    1  C5  UNL     1      25.043   2.613  51.811  1.00  0.00     0.160 A 
HETATM    2  N3  UNL     1      25.171   3.571  50.886  1.00  0.00    -0.222 NA
HETATM    3  C6  UNL     1      24.275   3.669  49.857  1.00  0.00     0.238 A 
HETATM    4  N4  UNL     1      23.241   2.811  49.741  1.00  0.00    -0.215 NA
HETATM    5  C7  UNL     1      23.052   1.816  50.646  1.00  0.00     0.202 A 
HETATM    6  C8  UNL     1      23.978   1.761  51.658  1.00  0.00     0.129 A 
HETATM    7  N5  UNL     1      23.993   0.812  52.721  1.00  0.00    -0.379 N 
HETATM    8  C9  UNL     1      22.999  -0.019  53.330  1.00  0.00     0.161 C 
HETATM    9  C10 UNL     1      21.673   0.036  52.699  1.00  0.00    -0.007 A 
HETATM   10  C11 UNL     1      20.777  -0.472  53.646  1.00  0.00     0.011 A 
HETATM   11  C12 UNL     1      19.415  -0.552  53.340  1.00  0.00     0.001 A 
HETATM   12  C13 UNL     1      18.936  -0.137  52.117  1.00  0.00     0.003 A 
HETATM   13  C14 UNL     1      19.811   0.373  51.158  1.00  0.00     0.038 A 
HETATM   14  C15 UNL     1      21.149   0.445  51.472  1.00  0.00     0.086 A 
HETATM   15  O1  UNL     1      21.944   0.973  50.437  1.00  0.00    -0.289 OA
HETATM   16  H9  UNL     1      24.937   0.667  53.184  1.00  0.00     0.160 HD
ENDROOT
BRANCH   1  17
HETATM   17  N2  UNL     1      25.988   2.528  52.865  1.00  0.00    -0.341 N 
HETATM   18  H7  UNL     1      25.999   2.645  53.885  1.00  0.00     0.167 HD
BRANCH  17  19
HETATM   19  C4  UNL     1      27.348   2.191  52.546  1.00  0.00     0.167 C 
BRANCH  19  20
HETATM   20  C3  UNL     1      28.153   1.869  53.549  1.00  0.00    -0.005 C 
BRANCH  20  21
HETATM   21  N1  UNL     1      28.769   1.424  54.586  1.00  0.00    -0.247 NA
BRANCH  21  22
HETATM   22  C2  UNL     1      28.852  -0.017  54.735  1.00  0.00     0.155 C 
HETATM   23  C1  UNL     1      29.669  -0.590  53.634  1.00  0.00     0.029 C 
ENDBRANCH  21  22
ENDBRANCH  20  21
ENDBRANCH  19  20
ENDBRANCH  17  19
ENDBRANCH   1  17
TORSDOF 5
ENDMDL
MODEL 6
REMARK VINA RESULT:      -7.1      2.745      3.554
REMARK  5 active torsions:
REMARK  status: ('A' for Active; 'I' for Inactive)
REMARK    1  A    between atoms: C2_2  and  N1_3 
REMARK    2  A    between atoms: N1_3  and  C3_4 
REMARK    3  A    between atoms: C3_4  and  C4_5 
REMARK    4  A    between atoms: C4_5  and  N2_6 
REMARK    5  A    between atoms: N2_6  and  C5_7 
ROOT
HETATM    1  C5  UNL     1      24.320  -0.003  53.635  1.00  0.00     0.160 A 
HETATM    2  N3  UNL     1      24.780  -0.823  54.586  1.00  0.00    -0.222 NA
HETATM    3  C6  UNL     1      23.916  -1.456  55.437  1.00  0.00     0.238 A 
HETATM    4  N4  UNL     1      22.583  -1.278  55.347  1.00  0.00    -0.215 NA
HETATM    5  C7  UNL     1      22.048  -0.459  54.403  1.00  0.00     0.202 A 
HETATM    6  C8  UNL     1      22.957   0.152  53.575  1.00  0.00     0.129 A 
HETATM    7  N5  UNL     1      22.643   1.050  52.514  1.00  0.00    -0.379 N 
HETATM    8  C9  UNL     1      21.475   1.284  51.719  1.00  0.00     0.161 C 
HETATM    9  C10 UNL     1      20.297   0.494  52.099  1.00  0.00    -0.007 A 
HETATM   10  C11 UNL     1      19.438   0.533  50.996  1.00  0.00     0.011 A 
HETATM   11  C12 UNL     1      18.211  -0.136  51.048  1.00  0.00     0.001 A 
HETATM   12  C13 UNL     1      17.830  -0.835  52.172  1.00  0.00     0.003 A 
HETATM   13  C14 UNL     1      18.670  -0.887  53.284  1.00  0.00     0.038 A 
HETATM   14  C15 UNL     1      19.874  -0.224  53.218  1.00  0.00     0.086 A 
HETATM   15  O1  UNL     1      20.646  -0.339  54.392  1.00  0.00    -0.289 OA
HETATM   16  H9  UNL     1      23.429   1.702  52.227  1.00  0.00     0.160 HD
ENDROOT
BRANCH   1  17
HETATM   17  N2  UNL     1      25.235   0.647  52.769  1.00  0.00    -0.341 N 
HETATM   18  H7  UNL     1      25.634   0.494  51.835  1.00  0.00     0.167 HD
BRANCH  17  19
HETATM   19  C4  UNL     1      25.845   1.872  53.204  1.00  0.00     0.167 C 
BRANCH  19  20
HETATM   20  C3  UNL     1      27.070   1.805  53.707  1.00  0.00    -0.005 C 
BRANCH  20  21
HETATM   21  N1  UNL     1      28.190   1.548  54.282  1.00  0.00    -0.247 NA
BRANCH  21  22
HETATM   22  C2  UNL     1      28.383   0.197  54.777  1.00  0.00     0.155 C 
HETATM   23  C1  UNL     1      28.825  -0.686  53.666  1.00  0.00     0.029 C 
ENDBRANCH  21  22
ENDBRANCH  20  21
ENDBRANCH  19  20
ENDBRANCH  17  19
ENDBRANCH   1  17
TORSDOF 5
ENDMDL
MODEL 7
REMARK VINA RESULT:      -7.1      2.853      4.821
REMARK  5 active torsions:
REMARK  status: ('A' for Active; 'I' for Inactive)
REMARK    1  A    between atoms: C2_2  and  N1_3 
REMARK    2  A    between atoms: N1_3  and  C3_4 
REMARK    3  A    between atoms: C3_4  and  C4_5 
REMARK    4  A    between atoms: C4_5  and  N2_6 
REMARK    5  A    between atoms: N2_6  and  C5_7 
ROOT
HETATM    1  C5  UNL     1      26.430   1.432  52.460  1.00  0.00     0.160 A 
HETATM    2  N3  UNL     1      27.495   0.625  52.510  1.00  0.00    -0.222 NA
HETATM    3  C6  UNL     1      27.443  -0.555  53.202  1.00  0.00     0.238 A 
HETATM    4  N4  UNL     1      26.325  -0.941  53.850  1.00  0.00    -0.215 NA
HETATM    5  C7  UNL     1      25.207  -0.169  53.838  1.00  0.00     0.202 A 
HETATM    6  C8  UNL     1      25.312   1.004  53.131  1.00  0.00     0.129 A 
HETATM    7  N5  UNL     1      24.281   1.975  52.973  1.00  0.00    -0.379 N 
HETATM    8  C9  UNL     1      22.853   1.936  53.064  1.00  0.00     0.161 C 
HETATM    9  C10 UNL     1      22.292   0.645  53.483  1.00  0.00    -0.007 A 
HETATM   10  C11 UNL     1      20.945   0.673  53.107  1.00  0.00     0.011 A 
HETATM   11  C12 UNL     1      20.127  -0.430  53.374  1.00  0.00     0.001 A 
HETATM   12  C13 UNL     1      20.627  -1.549  54.003  1.00  0.00     0.003 A 
HETATM   13  C14 UNL     1      21.967  -1.599  54.386  1.00  0.00     0.038 A 
HETATM   14  C15 UNL     1      22.759  -0.506  54.118  1.00  0.00     0.086 A 
HETATM   15  O1  UNL     1      24.093  -0.659  54.545  1.00  0.00    -0.289 OA
HETATM   16  H9  UNL     1      24.616   2.953  52.735  1.00  0.00     0.160 HD
ENDROOT
BRANCH   1  17
HETATM   17  N2  UNL     1      26.511   2.652  51.742  1.00  0.00    -0.341 N 
HETATM   18  H7  UNL     1      26.591   3.653  51.955  1.00  0.00     0.167 HD
BRANCH  17  19
HETATM   19  C4  UNL     1      26.482   2.610  50.306  1.00  0.00     0.167 C 
BRANCH  19  20
HETATM   20  C3  UNL     1      26.475   3.767  49.658  1.00  0.00    -0.005 C 
BRANCH  20  21
HETATM   21  N1  UNL     1      26.687   4.879  49.048  1.00  0.00    -0.247 NA
BRANCH  21  22
HETATM   22  C2  UNL     1      28.018   5.091  48.510  1.00  0.00     0.155 C 
HETATM   23  C1  UNL     1      28.177   6.514  48.112  1.00  0.00     0.029 C 
ENDBRANCH  21  22
ENDBRANCH  20  21
ENDBRANCH  19  20
ENDBRANCH  17  19
ENDBRANCH   1  17
TORSDOF 5
ENDMDL
MODEL 8
REMARK VINA RESULT:      -7.1      2.293      6.234
REMARK  5 active torsions:
REMARK  status: ('A' for Active; 'I' for Inactive)
REMARK    1  A    between atoms: C2_2  and  N1_3 
REMARK    2  A    between atoms: N1_3  and  C3_4 
REMARK    3  A    between atoms: C3_4  and  C4_5 
REMARK    4  A    between atoms: C4_5  and  N2_6 
REMARK    5  A    between atoms: N2_6  and  C5_7 
ROOT
HETATM    1  C5  UNL     1      22.523   0.363  53.238  1.00  0.00     0.160 A 
HETATM    2  N3  UNL     1      21.839  -0.329  54.155  1.00  0.00    -0.222 NA
HETATM    3  C6  UNL     1      22.490  -1.132  55.052  1.00  0.00     0.238 A 
HETATM    4  N4  UNL     1      23.833  -1.250  55.042  1.00  0.00    -0.215 NA
HETATM    5  C7  UNL     1      24.590  -0.574  54.138  1.00  0.00     0.202 A 
HETATM    6  C8  UNL     1      23.887   0.216  53.261  1.00  0.00     0.129 A 
HETATM    7  N5  UNL     1      24.453   1.018  52.227  1.00  0.00    -0.379 N 
HETATM    8  C9  UNL     1      25.746   1.591  52.005  1.00  0.00     0.161 C 
HETATM    9  C10 UNL     1      26.762   1.238  53.006  1.00  0.00    -0.007 A 
HETATM   10  C11 UNL     1      27.777   2.192  52.873  1.00  0.00     0.011 A 
HETATM   11  C12 UNL     1      28.903   2.126  53.699  1.00  0.00     0.001 A 
HETATM   12  C13 UNL     1      29.032   1.134  54.647  1.00  0.00     0.003 A 
HETATM   13  C14 UNL     1      28.032   0.173  54.797  1.00  0.00     0.038 A 
HETATM   14  C15 UNL     1      26.930   0.250  53.976  1.00  0.00     0.086 A 
HETATM   15  O1  UNL     1      25.982  -0.765  54.209  1.00  0.00    -0.289 OA
HETATM   16  H9  UNL     1      23.794   1.258  51.432  1.00  0.00     0.160 HD
ENDROOT
BRANCH   1  17
HETATM   17  N2  UNL     1      21.824   1.183  52.316  1.00  0.00    -0.341 N 
HETATM   18  H7  UNL     1      21.694   2.186  52.141  1.00  0.00     0.167 HD
BRANCH  17  19
HETATM   19  C4  UNL     1      21.039   0.553  51.291  1.00  0.00     0.167 C 
BRANCH  19  20
HETATM   20  C3  UNL     1      21.356   0.811  50.029  1.00  0.00    -0.005 C 
BRANCH  20  21
HETATM   21  N1  UNL     1      21.523   0.897  48.758  1.00  0.00    -0.247 NA
BRANCH  21  22
HETATM   22  C2  UNL     1      21.853   2.206  48.224  1.00  0.00     0.155 C 
HETATM   23  C1  UNL     1      23.068   2.733  48.899  1.00  0.00     0.029 C 
ENDBRANCH  21  22
ENDBRANCH  20  21
ENDBRANCH  19  20
ENDBRANCH  17  19
ENDBRANCH   1  17
TORSDOF 5
ENDMDL
MODEL 9
REMARK VINA RESULT:      -6.8      2.298      4.843
REMARK  5 active torsions:
REMARK  status: ('A' for Active; 'I' for Inactive)
REMARK    1  A    between atoms: C2_2  and  N1_3 
REMARK    2  A    between atoms: N1_3  and  C3_4 
REMARK    3  A    between atoms: C3_4  and  C4_5 
REMARK    4  A    between atoms: C4_5  and  N2_6 
REMARK    5  A    between atoms: N2_6  and  C5_7 
ROOT
HETATM    1  C5  UNL     1      26.360   1.505  52.509  1.00  0.00     0.160 A 
HETATM    2  N3  UNL     1      27.430   0.702  52.532  1.00  0.00    -0.222 NA
HETATM    3  C6  UNL     1      27.382  -0.504  53.176  1.00  0.00     0.238 A 
HETATM    4  N4  UNL     1      26.264  -0.922  53.803  1.00  0.00    -0.215 NA
HETATM    5  C7  UNL     1      25.141  -0.157  53.818  1.00  0.00     0.202 A 
HETATM    6  C8  UNL     1      25.242   1.044  53.158  1.00  0.00     0.129 A 
HETATM    7  N5  UNL     1      24.206   2.015  53.035  1.00  0.00    -0.379 N 
HETATM    8  C9  UNL     1      22.778   1.964  53.119  1.00  0.00     0.161 C 
HETATM    9  C10 UNL     1      22.223   0.654  53.484  1.00  0.00    -0.007 A 
HETATM   10  C11 UNL     1      20.877   0.689  53.104  1.00  0.00     0.011 A 
HETATM   11  C12 UNL     1      20.065  -0.428  53.323  1.00  0.00     0.001 A 
HETATM   12  C13 UNL     1      20.568  -1.569  53.909  1.00  0.00     0.003 A 
HETATM   13  C14 UNL     1      21.907  -1.626  54.295  1.00  0.00     0.038 A 
HETATM   14  C15 UNL     1      22.694  -0.519  54.074  1.00  0.00     0.086 A 
HETATM   15  O1  UNL     1      24.027  -0.681  54.500  1.00  0.00    -0.289 OA
HETATM   16  H9  UNL     1      24.535   3.003  52.838  1.00  0.00     0.160 HD
ENDROOT
BRANCH   1  17
HETATM   17  N2  UNL     1      26.436   2.753  51.841  1.00  0.00    -0.341 N 
HETATM   18  H7  UNL     1      26.477   3.747  52.094  1.00  0.00     0.167 HD
BRANCH  17  19
HETATM   19  C4  UNL     1      26.472   2.765  50.405  1.00  0.00     0.167 C 
BRANCH  19  20
HETATM   20  C3  UNL     1      25.400   3.214  49.767  1.00  0.00    -0.005 C 
BRANCH  20  21
HETATM   21  N1  UNL     1      24.280   3.687  49.350  1.00  0.00    -0.247 NA
BRANCH  21  22
HETATM   22  C2  UNL     1      23.119   2.822  49.457  1.00  0.00     0.155 C 
HETATM   23  C1  UNL     1      22.668   2.417  48.100  1.00  0.00     0.029 C 
ENDBRANCH  21  22
ENDBRANCH  20  21
ENDBRANCH  19  20
ENDBRANCH  17  19
ENDBRANCH   1  17
TORSDOF 5
ENDMDL
