MODEL 1
REMARK VINA RESULT:      -6.4      0.000      0.000
REMARK  8 active torsions:
REMARK  status: ('A' for Active; 'I' for Inactive)
REMARK    1  A    between atoms: C3_3  and  C4_4 
REMARK    2  A    between atoms: C4_4  and  S1_6 
REMARK    3  A    between atoms: S1_6  and  C5_7 
REMARK    4  A    between atoms: C8_12  and  N3_13 
REMARK    5  A    between atoms: N3_13  and  C9_14 
REMARK    6  A    between atoms: C12_17  and  O2_18 
REMARK    7  A    between atoms: O2_18  and  C13_19 
REMARK    8  A    between atoms: C13_19  and  C14_20 
ROOT
HETATM    1  C1  UNL     1      28.372   5.107  48.396  1.00  0.00     0.112 C 
HETATM    2  C2  UNL     1      27.866   6.473  48.211  1.00  0.00    -0.102 C 
HETATM    3  C3  UNL     1      27.446   7.615  48.034  1.00  0.00    -0.017 C 
ENDROOT
BRANCH   3   4
HETATM    4  C4  UNL     1      26.930   8.958  47.811  1.00  0.00     0.267 C 
HETATM    5  O1  UNL     1      26.388   9.287  46.733  1.00  0.00    -0.270 OA
BRANCH   4   6
HETATM    6  S1  UNL     1      27.171  10.034  49.255  1.00  0.00    -0.034 SA
BRANCH   6   7
HETATM    7  C5  UNL     1      27.517  11.664  48.554  1.00  0.00     0.072 A 
HETATM    8  C6  UNL     1      26.763  12.668  47.995  1.00  0.00     0.140 A 
HETATM    9  N1  UNL     1      27.413  13.766  47.584  1.00  0.00    -0.253 NA
HETATM   10  C7  UNL     1      28.721  13.936  47.688  1.00  0.00     0.235 A 
HETATM   11  N2  UNL     1      29.507  12.986  48.228  1.00  0.00    -0.223 NA
HETATM   12  C8  UNL     1      28.904  11.848  48.662  1.00  0.00     0.148 A 
BRANCH  12  13
HETATM   13  N3  UNL     1      29.961  11.031  49.222  1.00  0.00    -0.340 N 
HETATM   14  H6  UNL     1      30.386  11.384  50.101  1.00  0.00     0.167 HD
BRANCH  13  15
HETATM   15  C9  UNL     1      30.412   9.803  48.614  1.00  0.00     0.035 A 
HETATM   16  C10 UNL     1      30.455   9.762  47.217  1.00  0.00     0.032 A 
HETATM   17  C11 UNL     1      30.924   8.589  46.610  1.00  0.00     0.041 A 
HETATM   18  C12 UNL     1      31.315   7.545  47.385  1.00  0.00     0.090 A 
HETATM   19  C19 UNL     1      31.283   7.553  48.786  1.00  0.00     0.069 A 
HETATM   20 CL1  UNL     1      31.786   6.203  49.762  1.00  0.00    -0.081 Cl
HETATM   21  C20 UNL     1      30.813   8.729  49.380  1.00  0.00     0.056 A 
BRANCH  18  22
HETATM   22  O2  UNL     1      31.776   6.404  46.751  1.00  0.00    -0.345 OA
BRANCH  22  23
HETATM   23  C13 UNL     1      33.130   6.127  46.524  1.00  0.00     0.213 C 
BRANCH  23  24
HETATM   24  C14 UNL     1      33.452   4.740  47.017  1.00  0.00    -0.019 A 
HETATM   25  C15 UNL     1      32.554   3.783  47.090  1.00  0.00     0.008 A 
HETATM   26  C16 UNL     1      33.207   2.577  47.607  1.00  0.00    -0.001 A 
HETATM   27  C17 UNL     1      34.489   2.841  47.832  1.00  0.00     0.014 A 
HETATM   28  C18 UNL     1      34.772   4.272  47.469  1.00  0.00     0.224 A 
HETATM   29  F1  UNL     1      35.188   4.914  48.622  1.00  0.00    -0.240 F 
ENDBRANCH  23  24
ENDBRANCH  22  23
ENDBRANCH  18  22
ENDBRANCH  13  15
ENDBRANCH  12  13
ENDBRANCH   6   7
ENDBRANCH   4   6
ENDBRANCH   3   4
TORSDOF 8
ENDMDL
MODEL 2
REMARK VINA RESULT:      -6.4      5.960      8.468
REMARK  8 active torsions:
REMARK  status: ('A' for Active; 'I' for Inactive)
REMARK    1  A    between atoms: C3_3  and  C4_4 
REMARK    2  A    between atoms: C4_4  and  S1_6 
REMARK    3  A    between atoms: S1_6  and  C5_7 
REMARK    4  A    between atoms: C8_12  and  N3_13 
REMARK    5  A    between atoms: N3_13  and  C9_14 
REMARK    6  A    between atoms: C12_17  and  O2_18 
REMARK    7  A    between atoms: O2_18  and  C13_19 
REMARK    8  A    between atoms: C13_19  and  C14_20 
ROOT
HETATM    1  C1  UNL     1      21.083  -0.630  53.284  1.00  0.00     0.112 C 
HETATM    2  C2  UNL     1      21.585   0.282  52.250  1.00  0.00    -0.102 C 
HETATM    3  C3  UNL     1      22.022   1.031  51.378  1.00  0.00    -0.017 C 
ENDROOT
BRANCH   3   4
HETATM    4  C4  UNL     1      22.530   1.902  50.328  1.00  0.00     0.267 C 
HETATM    5  O1  UNL     1      22.414   1.614  49.116  1.00  0.00    -0.270 OA
BRANCH   4   6
HETATM    6  S1  UNL     1      23.317   3.397  50.996  1.00  0.00    -0.034 SA
BRANCH   6   7
HETATM    7  C5  UNL     1      24.774   2.788  51.875  1.00  0.00     0.072 A 
HETATM    8  C6  UNL     1      25.009   2.227  53.108  1.00  0.00     0.140 A 
HETATM    9  N1  UNL     1      26.274   1.892  53.398  1.00  0.00    -0.253 NA
HETATM   10  C7  UNL     1      27.294   2.066  52.573  1.00  0.00     0.235 A 
HETATM   11  N2  UNL     1      27.122   2.609  51.353  1.00  0.00    -0.223 NA
HETATM   12  C8  UNL     1      25.859   2.970  51.004  1.00  0.00     0.148 A 
BRANCH  12  13
HETATM   13  N3  UNL     1      25.956   3.481  49.652  1.00  0.00    -0.340 N 
HETATM   14  H6  UNL     1      25.666   2.826  48.901  1.00  0.00     0.167 HD
BRANCH  13  15
HETATM   15  C9  UNL     1      26.423   4.811  49.345  1.00  0.00     0.035 A 
HETATM   16  C10 UNL     1      27.614   4.916  48.621  1.00  0.00     0.032 A 
HETATM   17  C11 UNL     1      28.065   6.201  48.283  1.00  0.00     0.041 A 
HETATM   18  C12 UNL     1      27.341   7.285  48.665  1.00  0.00     0.090 A 
HETATM   19  C19 UNL     1      26.145   7.214  49.391  1.00  0.00     0.069 A 
HETATM   20 CL1  UNL     1      25.234   8.616  49.873  1.00  0.00    -0.081 Cl
HETATM   21  C20 UNL     1      25.706   5.928  49.722  1.00  0.00     0.056 A 
BRANCH  18  22
HETATM   22  O2  UNL     1      27.814   8.536  48.311  1.00  0.00    -0.345 OA
BRANCH  22  23
HETATM   23  C13 UNL     1      28.664   9.307  49.113  1.00  0.00     0.213 C 
BRANCH  23  24
HETATM   24  C14 UNL     1      29.822   9.809  48.288  1.00  0.00    -0.019 A 
HETATM   25  C15 UNL     1      30.854  10.431  48.813  1.00  0.00     0.008 A 
HETATM   26  C16 UNL     1      31.782  10.776  47.732  1.00  0.00    -0.001 A 
HETATM   27  C17 UNL     1      31.283  10.347  46.579  1.00  0.00     0.014 A 
HETATM   28  C18 UNL     1      29.961   9.677  46.829  1.00  0.00     0.224 A 
HETATM   29  F1  UNL     1      28.998  10.397  46.145  1.00  0.00    -0.240 F 
ENDBRANCH  23  24
ENDBRANCH  22  23
ENDBRANCH  18  22
ENDBRANCH  13  15
ENDBRANCH  12  13
ENDBRANCH   6   7
ENDBRANCH   4   6
ENDBRANCH   3   4
TORSDOF 8
ENDMDL
MODEL 3
REMARK VINA RESULT:      -6.3      4.191      7.739
REMARK  8 active torsions:
REMARK  status: ('A' for Active; 'I' for Inactive)
REMARK    1  A    between atoms: C3_3  and  C4_4 
REMARK    2  A    between atoms: C4_4  and  S1_6 
REMARK    3  A    between atoms: S1_6  and  C5_7 
REMARK    4  A    between atoms: C8_12  and  N3_13 
REMARK    5  A    between atoms: N3_13  and  C9_14 
REMARK    6  A    between atoms: C12_17  and  O2_18 
REMARK    7  A    between atoms: O2_18  and  C13_19 
REMARK    8  A    between atoms: C13_19  and  C14_20 
ROOT
HETATM    1  C1  UNL     1      27.078   4.726  48.849  1.00  0.00     0.112 C 
HETATM    2  C2  UNL     1      28.392   5.261  48.470  1.00  0.00    -0.102 C 
HETATM    3  C3  UNL     1      29.489   5.725  48.167  1.00  0.00    -0.017 C 
ENDROOT
BRANCH   3   4
HETATM    4  C4  UNL     1      30.797   6.270  47.831  1.00  0.00     0.267 C 
HETATM    5  O1  UNL     1      31.329   6.072  46.717  1.00  0.00    -0.270 OA
BRANCH   4   6
HETATM    6  S1  UNL     1      31.510   7.234  49.196  1.00  0.00    -0.034 SA
BRANCH   6   7
HETATM    7  C5  UNL     1      31.757   8.886  48.505  1.00  0.00     0.072 A 
HETATM    8  C6  UNL     1      32.665   9.461  47.648  1.00  0.00     0.140 A 
HETATM    9  N1  UNL     1      32.501  10.761  47.364  1.00  0.00    -0.253 NA
HETATM   10  C7  UNL     1      31.526  11.509  47.854  1.00  0.00     0.235 A 
HETATM   11  N2  UNL     1      30.608  10.997  48.696  1.00  0.00    -0.223 NA
HETATM   12  C8  UNL     1      30.724   9.683  49.021  1.00  0.00     0.148 A 
BRANCH  12  13
HETATM   13  N3  UNL     1      29.605   9.394  49.894  1.00  0.00    -0.340 N 
HETATM   14  H6  UNL     1      29.819   9.370  50.909  1.00  0.00     0.167 HD
BRANCH  13  15
HETATM   15  C9  UNL     1      28.269   9.152  49.406  1.00  0.00     0.035 A 
HETATM   16  C10 UNL     1      27.233   9.187  50.344  1.00  0.00     0.032 A 
HETATM   17  C11 UNL     1      25.923   8.990  49.883  1.00  0.00     0.041 A 
HETATM   18  C12 UNL     1      25.707   8.772  48.560  1.00  0.00     0.090 A 
HETATM   19  C19 UNL     1      26.722   8.728  47.595  1.00  0.00     0.069 A 
HETATM   20 CL1  UNL     1      26.424   8.445  45.904  1.00  0.00    -0.081 Cl
HETATM   21  C20 UNL     1      28.023   8.927  48.068  1.00  0.00     0.056 A 
BRANCH  18  22
HETATM   22  O2  UNL     1      24.401   8.584  48.140  1.00  0.00    -0.345 OA
BRANCH  22  23
HETATM   23  C13 UNL     1      23.421   9.583  48.161  1.00  0.00     0.213 C 
BRANCH  23  24
HETATM   24  C14 UNL     1      22.222   9.100  48.935  1.00  0.00    -0.019 A 
HETATM   25  C15 UNL     1      21.067   9.728  48.925  1.00  0.00     0.008 A 
HETATM   26  C16 UNL     1      20.133   8.989  49.780  1.00  0.00    -0.001 A 
HETATM   27  C17 UNL     1      20.754   7.928  50.283  1.00  0.00     0.014 A 
HETATM   28  C18 UNL     1      22.171   7.898  49.782  1.00  0.00     0.224 A 
HETATM   29  F1  UNL     1      23.000   8.001  50.885  1.00  0.00    -0.240 F 
ENDBRANCH  23  24
ENDBRANCH  22  23
ENDBRANCH  18  22
ENDBRANCH  13  15
ENDBRANCH  12  13
ENDBRANCH   6   7
ENDBRANCH   4   6
ENDBRANCH   3   4
TORSDOF 8
ENDMDL
MODEL 4
REMARK VINA RESULT:      -6.3      4.836      7.783
REMARK  8 active torsions:
REMARK  status: ('A' for Active; 'I' for Inactive)
REMARK    1  A    between atoms: C3_3  and  C4_4 
REMARK    2  A    between atoms: C4_4  and  S1_6 
REMARK    3  A    between atoms: S1_6  and  C5_7 
REMARK    4  A    between atoms: C8_12  and  N3_13 
REMARK    5  A    between atoms: N3_13  and  C9_14 
REMARK    6  A    between atoms: C12_17  and  O2_18 
REMARK    7  A    between atoms: O2_18  and  C13_19 
REMARK    8  A    between atoms: C13_19  and  C14_20 
ROOT
HETATM    1  C1  UNL     1      31.849   8.272  43.675  1.00  0.00     0.112 C 
HETATM    2  C2  UNL     1      32.078   7.358  44.802  1.00  0.00    -0.102 C 
HETATM    3  C3  UNL     1      32.291   6.597  45.744  1.00  0.00    -0.017 C 
ENDROOT
BRANCH   3   4
HETATM    4  C4  UNL     1      32.549   5.717  46.874  1.00  0.00     0.267 C 
HETATM    5  O1  UNL     1      33.661   5.168  47.043  1.00  0.00    -0.270 OA
BRANCH   4   6
HETATM    6  S1  UNL     1      31.098   5.539  47.952  1.00  0.00    -0.034 SA
BRANCH   6   7
HETATM    7  C5  UNL     1      30.814   7.200  48.607  1.00  0.00     0.072 A 
HETATM    8  C6  UNL     1      31.580   8.139  49.256  1.00  0.00     0.140 A 
HETATM    9  N1  UNL     1      30.985   9.294  49.585  1.00  0.00    -0.253 NA
HETATM   10  C7  UNL     1      29.719   9.577  49.322  1.00  0.00     0.235 A 
HETATM   11  N2  UNL     1      28.924   8.695  48.687  1.00  0.00    -0.223 NA
HETATM   12  C8  UNL     1      29.473   7.504  48.330  1.00  0.00     0.148 A 
BRANCH  12  13
HETATM   13  N3  UNL     1      28.424   6.778  47.644  1.00  0.00    -0.340 N 
HETATM   14  H6  UNL     1      28.491   6.760  46.608  1.00  0.00     0.167 HD
BRANCH  13  15
HETATM   15  C9  UNL     1      27.345   6.114  48.334  1.00  0.00     0.035 A 
HETATM   16  C10 UNL     1      26.177   6.850  48.548  1.00  0.00     0.032 A 
HETATM   17  C11 UNL     1      25.105   6.209  49.186  1.00  0.00     0.041 A 
HETATM   18  C12 UNL     1      25.235   4.914  49.571  1.00  0.00     0.090 A 
HETATM   19  C19 UNL     1      26.392   4.148  49.373  1.00  0.00     0.069 A 
HETATM   20 CL1  UNL     1      26.539   2.489  49.877  1.00  0.00    -0.081 Cl
HETATM   21  C20 UNL     1      27.453   4.799  48.736  1.00  0.00     0.056 A 
BRANCH  18  22
HETATM   22  O2  UNL     1      24.156   4.312  50.195  1.00  0.00    -0.345 OA
BRANCH  22  23
HETATM   23  C13 UNL     1      23.883   4.421  51.564  1.00  0.00     0.213 C 
BRANCH  23  24
HETATM   24  C14 UNL     1      23.947   3.057  52.203  1.00  0.00    -0.019 A 
HETATM   25  C15 UNL     1      24.939   2.679  52.978  1.00  0.00     0.008 A 
HETATM   26  C16 UNL     1      24.680   1.307  53.422  1.00  0.00    -0.001 A 
HETATM   27  C17 UNL     1      23.531   0.893  52.901  1.00  0.00     0.014 A 
HETATM   28  C18 UNL     1      22.944   1.991  52.060  1.00  0.00     0.224 A 
HETATM   29  F1  UNL     1      22.866   1.518  50.761  1.00  0.00    -0.240 F 
ENDBRANCH  23  24
ENDBRANCH  22  23
ENDBRANCH  18  22
ENDBRANCH  13  15
ENDBRANCH  12  13
ENDBRANCH   6   7
ENDBRANCH   4   6
ENDBRANCH   3   4
TORSDOF 8
ENDMDL
MODEL 5
REMARK VINA RESULT:      -6.1      5.605      8.302
REMARK  8 active torsions:
REMARK  status: ('A' for Active; 'I' for Inactive)
REMARK    1  A    between atoms: C3_3  and  C4_4 
REMARK    2  A    between atoms: C4_4  and  S1_6 
REMARK    3  A    between atoms: S1_6  and  C5_7 
REMARK    4  A    between atoms: C8_12  and  N3_13 
REMARK    5  A    between atoms: N3_13  and  C9_14 
REMARK    6  A    between atoms: C12_17  and  O2_18 
REMARK    7  A    between atoms: O2_18  and  C13_19 
REMARK    8  A    between atoms: C13_19  and  C14_20 
ROOT
HETATM    1  C1  UNL     1      20.773   4.905  48.495  1.00  0.00     0.112 C 
HETATM    2  C2  UNL     1      21.566   4.454  49.645  1.00  0.00    -0.102 C 
HETATM    3  C3  UNL     1      22.222   4.056  50.606  1.00  0.00    -0.017 C 
ENDROOT
BRANCH   3   4
HETATM    4  C4  UNL     1      23.014   3.571  51.727  1.00  0.00     0.267 C 
HETATM    5  O1  UNL     1      23.129   4.225  52.787  1.00  0.00    -0.270 OA
BRANCH   4   6
HETATM    6  S1  UNL     1      23.773   1.956  51.384  1.00  0.00    -0.034 SA
BRANCH   6   7
HETATM    7  C5  UNL     1      25.309   1.964  52.336  1.00  0.00     0.072 A 
HETATM    8  C6  UNL     1      25.667   1.614  53.616  1.00  0.00     0.140 A 
HETATM    9  N1  UNL     1      26.955   1.767  53.955  1.00  0.00    -0.253 NA
HETATM   10  C7  UNL     1      27.887   2.227  53.137  1.00  0.00     0.235 A 
HETATM   11  N2  UNL     1      27.592   2.584  51.873  1.00  0.00    -0.223 NA
HETATM   12  C8  UNL     1      26.301   2.452  51.472  1.00  0.00     0.148 A 
BRANCH  12  13
HETATM   13  N3  UNL     1      26.275   2.864  50.083  1.00  0.00    -0.340 N 
HETATM   14  H6  UNL     1      26.111   2.108  49.392  1.00  0.00     0.167 HD
BRANCH  13  15
HETATM   15  C9  UNL     1      26.464   4.232  49.665  1.00  0.00     0.035 A 
HETATM   16  C10 UNL     1      27.565   4.501  48.848  1.00  0.00     0.032 A 
HETATM   17  C11 UNL     1      27.744   5.819  48.402  1.00  0.00     0.041 A 
HETATM   18  C12 UNL     1      26.857   6.777  48.774  1.00  0.00     0.090 A 
HETATM   19  C19 UNL     1      25.744   6.540  49.593  1.00  0.00     0.069 A 
HETATM   20 CL1  UNL     1      24.619   7.783  50.060  1.00  0.00    -0.081 Cl
HETATM   21  C20 UNL     1      25.577   5.223  50.030  1.00  0.00     0.056 A 
BRANCH  18  22
HETATM   22  O2  UNL     1      27.063   8.065  48.313  1.00  0.00    -0.345 OA
BRANCH  22  23
HETATM   23  C13 UNL     1      27.727   9.060  49.041  1.00  0.00     0.213 C 
BRANCH  23  24
HETATM   24  C14 UNL     1      28.965   9.491  48.297  1.00  0.00    -0.019 A 
HETATM   25  C15 UNL     1      29.002   9.620  46.990  1.00  0.00     0.008 A 
HETATM   26  C16 UNL     1      30.350  10.049  46.607  1.00  0.00    -0.001 A 
HETATM   27  C17 UNL     1      31.093  10.169  47.701  1.00  0.00     0.014 A 
HETATM   28  C18 UNL     1      30.265   9.819  48.904  1.00  0.00     0.224 A 
HETATM   29  F1  UNL     1      30.854   8.719  49.504  1.00  0.00    -0.240 F 
ENDBRANCH  23  24
ENDBRANCH  22  23
ENDBRANCH  18  22
ENDBRANCH  13  15
ENDBRANCH  12  13
ENDBRANCH   6   7
ENDBRANCH   4   6
ENDBRANCH   3   4
TORSDOF 8
ENDMDL
MODEL 6
REMARK VINA RESULT:      -6.1      5.432      7.412
REMARK  8 active torsions:
REMARK  status: ('A' for Active; 'I' for Inactive)
REMARK    1  A    between atoms: C3_3  and  C4_4 
REMARK    2  A    between atoms: C4_4  and  S1_6 
REMARK    3  A    between atoms: S1_6  and  C5_7 
REMARK    4  A    between atoms: C8_12  and  N3_13 
REMARK    5  A    between atoms: N3_13  and  C9_14 
REMARK    6  A    between atoms: C12_17  and  O2_18 
REMARK    7  A    between atoms: O2_18  and  C13_19 
REMARK    8  A    between atoms: C13_19  and  C14_20 
ROOT
HETATM    1  C1  UNL     1      25.117  10.751  41.588  1.00  0.00     0.112 C 
HETATM    2  C2  UNL     1      25.684  10.084  42.766  1.00  0.00    -0.102 C 
HETATM    3  C3  UNL     1      26.143   9.509  43.751  1.00  0.00    -0.017 C 
ENDROOT
BRANCH   3   4
HETATM    4  C4  UNL     1      26.695   8.809  44.903  1.00  0.00     0.267 C 
HETATM    5  O1  UNL     1      27.875   8.395  44.921  1.00  0.00    -0.270 OA
BRANCH   4   6
HETATM    6  S1  UNL     1      25.483   8.634  46.245  1.00  0.00    -0.034 SA
BRANCH   6   7
HETATM    7  C5  UNL     1      26.313   9.317  47.698  1.00  0.00     0.072 A 
HETATM    8  C6  UNL     1      26.341  10.541  48.322  1.00  0.00     0.140 A 
HETATM    9  N1  UNL     1      27.103  10.651  49.420  1.00  0.00    -0.253 NA
HETATM   10  C7  UNL     1      27.816   9.661  49.930  1.00  0.00     0.235 A 
HETATM   11  N2  UNL     1      27.824   8.441  49.360  1.00  0.00    -0.223 NA
HETATM   12  C8  UNL     1      27.071   8.269  48.242  1.00  0.00     0.148 A 
BRANCH  12  13
HETATM   13  N3  UNL     1      27.232   6.879  47.869  1.00  0.00    -0.340 N 
HETATM   14  H6  UNL     1      27.863   6.699  47.064  1.00  0.00     0.167 HD
BRANCH  13  15
HETATM   15  C9  UNL     1      26.570   5.797  48.557  1.00  0.00     0.035 A 
HETATM   16  C10 UNL     1      27.332   4.659  48.835  1.00  0.00     0.032 A 
HETATM   17  C11 UNL     1      26.715   3.612  49.535  1.00  0.00     0.041 A 
HETATM   18  C12 UNL     1      25.417   3.735  49.913  1.00  0.00     0.090 A 
HETATM   19  C19 UNL     1      24.626   4.861  49.649  1.00  0.00     0.069 A 
HETATM   20 CL1  UNL     1      22.962   4.998  50.141  1.00  0.00    -0.081 Cl
HETATM   21  C20 UNL     1      25.253   5.898  48.951  1.00  0.00     0.056 A 
BRANCH  18  22
HETATM   22  O2  UNL     1      24.842   2.683  50.605  1.00  0.00    -0.345 OA
BRANCH  22  23
HETATM   23  C13 UNL     1      24.898   2.538  51.997  1.00  0.00     0.213 C 
BRANCH  23  24
HETATM   24  C14 UNL     1      25.420   1.167  52.343  1.00  0.00    -0.019 A 
HETATM   25  C15 UNL     1      26.540   0.686  51.851  1.00  0.00     0.008 A 
HETATM   26  C16 UNL     1      26.741  -0.660  52.394  1.00  0.00    -0.001 A 
HETATM   27  C17 UNL     1      25.731  -0.956  53.204  1.00  0.00     0.014 A 
HETATM   28  C18 UNL     1      24.776   0.204  53.250  1.00  0.00     0.224 A 
HETATM   29  F1  UNL     1      23.562  -0.243  52.760  1.00  0.00    -0.240 F 
ENDBRANCH  23  24
ENDBRANCH  22  23
ENDBRANCH  18  22
ENDBRANCH  13  15
ENDBRANCH  12  13
ENDBRANCH   6   7
ENDBRANCH   4   6
ENDBRANCH   3   4
TORSDOF 8
ENDMDL
MODEL 7
REMARK VINA RESULT:      -6.1      4.257      8.133
REMARK  8 active torsions:
REMARK  status: ('A' for Active; 'I' for Inactive)
REMARK    1  A    between atoms: C3_3  and  C4_4 
REMARK    2  A    between atoms: C4_4  and  S1_6 
REMARK    3  A    between atoms: S1_6  and  C5_7 
REMARK    4  A    between atoms: C8_12  and  N3_13 
REMARK    5  A    between atoms: N3_13  and  C9_14 
REMARK    6  A    between atoms: C12_17  and  O2_18 
REMARK    7  A    between atoms: O2_18  and  C13_19 
REMARK    8  A    between atoms: C13_19  and  C14_20 
ROOT
HETATM    1  C1  UNL     1      32.807   8.569  45.574  1.00  0.00     0.112 C 
HETATM    2  C2  UNL     1      33.822   8.131  46.541  1.00  0.00    -0.102 C 
HETATM    3  C3  UNL     1      34.671   7.785  47.360  1.00  0.00    -0.017 C 
ENDROOT
BRANCH   3   4
HETATM    4  C4  UNL     1      35.658   7.374  48.349  1.00  0.00     0.267 C 
HETATM    5  O1  UNL     1      36.720   8.010  48.525  1.00  0.00    -0.270 OA
BRANCH   4   6
HETATM    6  S1  UNL     1      35.148   5.880  49.247  1.00  0.00    -0.034 SA
BRANCH   6   7
HETATM    7  C5  UNL     1      34.469   4.793  47.972  1.00  0.00     0.072 A 
HETATM    8  C6  UNL     1      34.993   4.043  46.946  1.00  0.00     0.140 A 
HETATM    9  N1  UNL     1      34.130   3.342  46.198  1.00  0.00    -0.253 NA
HETATM   10  C7  UNL     1      32.820   3.331  46.390  1.00  0.00     0.235 A 
HETATM   11  N2  UNL     1      32.254   4.046  47.380  1.00  0.00    -0.223 NA
HETATM   12  C8  UNL     1      33.080   4.778  48.173  1.00  0.00     0.148 A 
BRANCH  12  13
HETATM   13  N3  UNL     1      32.225   5.405  49.159  1.00  0.00    -0.340 N 
HETATM   14  H6  UNL     1      32.203   4.950  50.092  1.00  0.00     0.167 HD
BRANCH  13  15
HETATM   15  C9  UNL     1      31.444   6.587  48.886  1.00  0.00     0.035 A 
HETATM   16  C10 UNL     1      31.755   7.738  49.617  1.00  0.00     0.032 A 
HETATM   17  C11 UNL     1      31.031   8.906  49.339  1.00  0.00     0.041 A 
HETATM   18  C12 UNL     1      30.064   8.882  48.386  1.00  0.00     0.090 A 
HETATM   19  C19 UNL     1      29.727   7.747  47.638  1.00  0.00     0.069 A 
HETATM   20 CL1  UNL     1      28.482   7.737  46.422  1.00  0.00    -0.081 Cl
HETATM   21  C20 UNL     1      30.457   6.588  47.924  1.00  0.00     0.056 A 
BRANCH  18  22
HETATM   22  O2  UNL     1      29.371  10.055  48.137  1.00  0.00    -0.345 OA
BRANCH  22  23
HETATM   23  C13 UNL     1      28.583  10.715  49.087  1.00  0.00     0.213 C 
BRANCH  23  24
HETATM   24  C14 UNL     1      27.255  10.014  49.219  1.00  0.00    -0.019 A 
HETATM   25  C15 UNL     1      27.030   9.079  50.114  1.00  0.00     0.008 A 
HETATM   26  C16 UNL     1      25.646   8.619  49.962  1.00  0.00    -0.001 A 
HETATM   27  C17 UNL     1      25.072   9.295  48.974  1.00  0.00     0.014 A 
HETATM   28  C18 UNL     1      26.062  10.268  48.397  1.00  0.00     0.224 A 
HETATM   29  F1  UNL     1      26.257   9.920  47.072  1.00  0.00    -0.240 F 
ENDBRANCH  23  24
ENDBRANCH  22  23
ENDBRANCH  18  22
ENDBRANCH  13  15
ENDBRANCH  12  13
ENDBRANCH   6   7
ENDBRANCH   4   6
ENDBRANCH   3   4
TORSDOF 8
ENDMDL
MODEL 8
REMARK VINA RESULT:      -6.0      6.650      8.409
REMARK  8 active torsions:
REMARK  status: ('A' for Active; 'I' for Inactive)
REMARK    1  A    between atoms: C3_3  and  C4_4 
REMARK    2  A    between atoms: C4_4  and  S1_6 
REMARK    3  A    between atoms: S1_6  and  C5_7 
REMARK    4  A    between atoms: C8_12  and  N3_13 
REMARK    5  A    between atoms: N3_13  and  C9_14 
REMARK    6  A    between atoms: C12_17  and  O2_18 
REMARK    7  A    between atoms: O2_18  and  C13_19 
REMARK    8  A    between atoms: C13_19  and  C14_20 
ROOT
HETATM    1  C1  UNL     1      23.448   8.045  44.731  1.00  0.00     0.112 C 
HETATM    2  C2  UNL     1      24.438   7.991  45.814  1.00  0.00    -0.102 C 
HETATM    3  C3  UNL     1      25.282   7.954  46.707  1.00  0.00    -0.017 C 
ENDROOT
BRANCH   3   4
HETATM    4  C4  UNL     1      26.283   7.936  47.765  1.00  0.00     0.267 C 
HETATM    5  O1  UNL     1      27.252   8.726  47.771  1.00  0.00    -0.270 OA
BRANCH   4   6
HETATM    6  S1  UNL     1      25.937   6.663  49.014  1.00  0.00    -0.034 SA
BRANCH   6   7
HETATM    7  C5  UNL     1      24.240   6.992  49.540  1.00  0.00     0.072 A 
HETATM    8  C6  UNL     1      23.523   8.113  49.885  1.00  0.00     0.140 A 
HETATM    9  N1  UNL     1      22.238   7.939  50.223  1.00  0.00    -0.253 NA
HETATM   10  C7  UNL     1      21.629   6.764  50.241  1.00  0.00     0.235 A 
HETATM   11  N2  UNL     1      22.282   5.634  49.910  1.00  0.00    -0.223 NA
HETATM   12  C8  UNL     1      23.590   5.749  49.559  1.00  0.00     0.148 A 
BRANCH  12  13
HETATM   13  N3  UNL     1      24.025   4.409  49.222  1.00  0.00    -0.340 N 
HETATM   14  H6  UNL     1      24.006   4.169  48.213  1.00  0.00     0.167 HD
BRANCH  13  15
HETATM   15  C9  UNL     1      24.463   3.452  50.210  1.00  0.00     0.035 A 
HETATM   16  C10 UNL     1      25.835   3.393  50.474  1.00  0.00     0.032 A 
HETATM   17  C11 UNL     1      26.275   2.494  51.457  1.00  0.00     0.041 A 
HETATM   18  C12 UNL     1      25.369   1.721  52.109  1.00  0.00     0.090 A 
HETATM   19  C19 UNL     1      23.989   1.755  51.867  1.00  0.00     0.069 A 
HETATM   20 CL1  UNL     1      22.845   0.753  52.712  1.00  0.00    -0.081 Cl
HETATM   21  C20 UNL     1      23.563   2.655  50.885  1.00  0.00     0.056 A 
BRANCH  18  22
HETATM   22  O2  UNL     1      25.839   0.848  53.075  1.00  0.00    -0.345 OA
BRANCH  22  23
HETATM   23  C13 UNL     1      26.974   1.086  53.859  1.00  0.00     0.213 C 
BRANCH  23  24
HETATM   24  C14 UNL     1      27.974  -0.023  53.652  1.00  0.00    -0.019 A 
HETATM   25  C15 UNL     1      29.257   0.120  53.899  1.00  0.00     0.008 A 
HETATM   26  C16 UNL     1      29.929  -1.145  53.589  1.00  0.00    -0.001 A 
HETATM   27  C17 UNL     1      29.027  -2.022  53.162  1.00  0.00     0.014 A 
HETATM   28  C18 UNL     1      27.670  -1.377  53.163  1.00  0.00     0.224 A 
HETATM   29  F1  UNL     1      27.216  -1.371  51.856  1.00  0.00    -0.240 F 
ENDBRANCH  23  24
ENDBRANCH  22  23
ENDBRANCH  18  22
ENDBRANCH  13  15
ENDBRANCH  12  13
ENDBRANCH   6   7
ENDBRANCH   4   6
ENDBRANCH   3   4
TORSDOF 8
ENDMDL
MODEL 9
REMARK VINA RESULT:      -6.0      8.320     11.339
REMARK  8 active torsions:
REMARK  status: ('A' for Active; 'I' for Inactive)
REMARK    1  A    between atoms: C3_3  and  C4_4 
REMARK    2  A    between atoms: C4_4  and  S1_6 
REMARK    3  A    between atoms: S1_6  and  C5_7 
REMARK    4  A    between atoms: C8_12  and  N3_13 
REMARK    5  A    between atoms: N3_13  and  C9_14 
REMARK    6  A    between atoms: C12_17  and  O2_18 
REMARK    7  A    between atoms: O2_18  and  C13_19 
REMARK    8  A    between atoms: C13_19  and  C14_20 
ROOT
HETATM    1  C1  UNL     1      26.765   3.937  49.326  1.00  0.00     0.112 C 
HETATM    2  C2  UNL     1      25.956   3.439  50.446  1.00  0.00    -0.102 C 
HETATM    3  C3  UNL     1      25.269   3.007  51.370  1.00  0.00    -0.017 C 
ENDROOT
BRANCH   3   4
HETATM    4  C4  UNL     1      24.470   2.474  52.463  1.00  0.00     0.267 C 
HETATM    5  O1  UNL     1      24.058   3.199  53.395  1.00  0.00    -0.270 OA
BRANCH   4   6
HETATM    6  S1  UNL     1      24.169   0.691  52.288  1.00  0.00    -0.034 SA
BRANCH   6   7
HETATM    7  C5  UNL     1      22.459   0.464  52.828  1.00  0.00     0.072 A 
HETATM    8  C6  UNL     1      21.838   0.219  54.031  1.00  0.00     0.140 A 
HETATM    9  N1  UNL     1      20.502   0.118  54.020  1.00  0.00    -0.253 NA
HETATM   10  C7  UNL     1      19.757   0.241  52.933  1.00  0.00     0.235 A 
HETATM   11  N2  UNL     1      20.312   0.483  51.730  1.00  0.00    -0.223 NA
HETATM   12  C8  UNL     1      21.666   0.594  51.679  1.00  0.00     0.148 A 
BRANCH  12  13
HETATM   13  N3  UNL     1      21.984   0.886  50.296  1.00  0.00    -0.340 N 
HETATM   14  H6  UNL     1      22.256   0.070  49.714  1.00  0.00     0.167 HD
BRANCH  13  15
HETATM   15  C9  UNL     1      21.931   2.216  49.740  1.00  0.00     0.035 A 
HETATM   16  C10 UNL     1      22.880   2.536  48.764  1.00  0.00     0.032 A 
HETATM   17  C11 UNL     1      22.822   3.812  48.187  1.00  0.00     0.041 A 
HETATM   18  C12 UNL     1      21.861   4.684  48.589  1.00  0.00     0.090 A 
HETATM   19  C19 UNL     1      20.898   4.396  49.564  1.00  0.00     0.069 A 
HETATM   20 CL1  UNL     1      19.676   5.529  50.067  1.00  0.00    -0.081 Cl
HETATM   21  C20 UNL     1      20.966   3.120  50.131  1.00  0.00     0.056 A 
BRANCH  18  22
HETATM   22  O2  UNL     1      21.832   5.934  47.995  1.00  0.00    -0.345 OA
BRANCH  22  23
HETATM   23  C13 UNL     1      22.049   7.134  48.684  1.00  0.00     0.213 C 
BRANCH  23  24
HETATM   24  C14 UNL     1      23.469   7.180  49.187  1.00  0.00    -0.019 A 
HETATM   25  C15 UNL     1      24.503   7.311  48.388  1.00  0.00     0.008 A 
HETATM   26  C16 UNL     1      25.720   7.318  49.206  1.00  0.00    -0.001 A 
HETATM   27  C17 UNL     1      25.383   7.191  50.484  1.00  0.00     0.014 A 
HETATM   28  C18 UNL     1      23.887   7.090  50.595  1.00  0.00     0.224 A 
HETATM   29  F1  UNL     1      23.597   5.855  51.148  1.00  0.00    -0.240 F 
ENDBRANCH  23  24
ENDBRANCH  22  23
ENDBRANCH  18  22
ENDBRANCH  13  15
ENDBRANCH  12  13
ENDBRANCH   6   7
ENDBRANCH   4   6
ENDBRANCH   3   4
TORSDOF 8
ENDMDL
