MODEL 1
REMARK VINA RESULT:      -6.5      0.000      0.000
REMARK  6 active torsions:
REMARK  status: ('A' for Active; 'I' for Inactive)
REMARK    1  A    between atoms: C2_2  and  C3_3 
REMARK    2  A    between atoms: C3_3  and  C4_4 
REMARK    3  A    between atoms: C4_4  and  O1_5 
REMARK    4  A    between atoms: O1_5  and  C5_6 
REMARK    5  A    between atoms: C7_8  and  N1_9 
REMARK    6  A    between atoms: C16_21  and  O2_22 
ROOT
HETATM    1  C5  UNL     1      23.764   0.920  52.852  1.00  0.00     0.103 A 
HETATM    2  C6  UNL     1      23.516   2.146  52.473  1.00  0.00     0.073 A 
HETATM    3  C7  UNL     1      22.155   2.091  52.123  1.00  0.00     0.182 A 
HETATM    4  N2  UNL     1      21.182   3.129  52.308  1.00  0.00    -0.242 NA
HETATM    5  C13 UNL     1      19.927   2.635  52.302  1.00  0.00     0.230 C 
HETATM    6  N3  UNL     1      19.329   1.324  52.205  1.00  0.00    -0.254 NA
HETATM    7  C14 UNL     1      20.160   0.300  52.175  1.00  0.00     0.132 C 
HETATM    8  C15 UNL     1      21.511   0.809  52.335  1.00  0.00     0.050 A 
HETATM    9  C16 UNL     1      22.555   0.072  52.781  1.00  0.00     0.111 A 
ENDROOT
BRANCH   3  10
HETATM   10  N1  UNL     1      22.208   2.186  50.532  1.00  0.00    -0.350 N 
HETATM   11  C8  UNL     1      22.702   3.440  50.141  1.00  0.00     0.113 A 
HETATM   12  C9  UNL     1      22.832   3.741  48.862  1.00  0.00     0.049 A 
HETATM   13 CL1  UNL     1      23.424   5.242  48.214  1.00  0.00    -0.083 Cl
HETATM   14  C10 UNL     1      22.456   2.751  47.859  1.00  0.00     0.023 A 
HETATM   15  C11 UNL     1      22.000   1.592  48.272  1.00  0.00    -0.005 A 
HETATM   16  C12 UNL     1      21.798   1.114  49.652  1.00  0.00     0.153 A 
ENDBRANCH   3  10
BRANCH   1  17
HETATM   17  O1  UNL     1      25.031   0.541  53.271  1.00  0.00    -0.347 OA
BRANCH  17  18
HETATM   18  C4  UNL     1      26.031   0.242  52.309  1.00  0.00     0.193 C 
BRANCH  18  19
HETATM   19  C3  UNL     1      26.762  -0.974  52.725  1.00  0.00     0.093 C 
BRANCH  19  20
HETATM   20  C2  UNL     1      28.027  -0.880  53.106  1.00  0.00    -0.174 C 
HETATM   21  C1  UNL     1      29.273  -1.062  53.518  1.00  0.00     0.091 C 
ENDBRANCH  19  20
ENDBRANCH  18  19
ENDBRANCH  17  18
ENDBRANCH   1  17
BRANCH   9  22
HETATM   22  O2  UNL     1      22.621  -1.286  53.154  1.00  0.00    -0.357 OA
HETATM   23  H14 UNL     1      22.355  -1.985  52.452  1.00  0.00     0.217 HD
ENDBRANCH   9  22
TORSDOF 6
ENDMDL
MODEL 2
REMARK VINA RESULT:      -6.5      9.794     11.907
REMARK  6 active torsions:
REMARK  status: ('A' for Active; 'I' for Inactive)
REMARK    1  A    between atoms: C2_2  and  C3_3 
REMARK    2  A    between atoms: C3_3  and  C4_4 
REMARK    3  A    between atoms: C4_4  and  O1_5 
REMARK    4  A    between atoms: O1_5  and  C5_6 
REMARK    5  A    between atoms: C7_8  and  N1_9 
REMARK    6  A    between atoms: C16_21  and  O2_22 
ROOT
HETATM    1  C5  UNL     1      30.837   5.119  48.156  1.00  0.00     0.103 A 
HETATM    2  C6  UNL     1      31.323   4.366  47.205  1.00  0.00     0.073 A 
HETATM    3  C7  UNL     1      32.709   4.561  47.336  1.00  0.00     0.182 A 
HETATM    4  N2  UNL     1      33.735   3.582  47.118  1.00  0.00    -0.242 NA
HETATM    5  C13 UNL     1      34.882   3.922  47.743  1.00  0.00     0.230 C 
HETATM    6  N3  UNL     1      35.312   4.993  48.610  1.00  0.00    -0.254 NA
HETATM    7  C14 UNL     1      34.388   5.861  48.975  1.00  0.00     0.132 C 
HETATM    8  C15 UNL     1      33.115   5.420  48.432  1.00  0.00     0.050 A 
HETATM    9  C16 UNL     1      31.909   5.781  48.930  1.00  0.00     0.111 A 
ENDROOT
BRANCH   3  10
HETATM   10  N1  UNL     1      33.050   5.454  46.060  1.00  0.00    -0.350 N 
HETATM   11  C8  UNL     1      33.003   4.670  44.897  1.00  0.00     0.113 A 
HETATM   12  C9  UNL     1      33.252   5.205  43.716  1.00  0.00     0.049 A 
HETATM   13 CL1  UNL     1      33.236   4.376  42.187  1.00  0.00    -0.083 Cl
HETATM   14  C10 UNL     1      33.578   6.624  43.635  1.00  0.00     0.023 A 
HETATM   15  C11 UNL     1      33.610   7.318  44.749  1.00  0.00    -0.005 A 
HETATM   16  C12 UNL     1      33.358   6.866  46.130  1.00  0.00     0.153 A 
ENDBRANCH   3  10
BRANCH   1  17
HETATM   17  O1  UNL     1      29.469   5.222  48.360  1.00  0.00    -0.347 OA
BRANCH  17  18
HETATM   18  C4  UNL     1      28.787   6.409  47.986  1.00  0.00     0.193 C 
BRANCH  18  19
HETATM   19  C3  UNL     1      27.344   6.256  48.268  1.00  0.00     0.093 C 
BRANCH  19  20
HETATM   20  C2  UNL     1      26.913   5.185  48.918  1.00  0.00    -0.174 C 
HETATM   21  C1  UNL     1      26.321   4.079  49.343  1.00  0.00     0.091 C 
ENDBRANCH  19  20
ENDBRANCH  18  19
ENDBRANCH  17  18
ENDBRANCH   1  17
BRANCH   9  22
HETATM   22  O2  UNL     1      31.582   6.635  50.003  1.00  0.00    -0.357 OA
HETATM   23  H14 UNL     1      31.578   6.233  50.946  1.00  0.00     0.217 HD
ENDBRANCH   9  22
TORSDOF 6
ENDMDL
MODEL 3
REMARK VINA RESULT:      -6.2      2.882      4.248
REMARK  6 active torsions:
REMARK  status: ('A' for Active; 'I' for Inactive)
REMARK    1  A    between atoms: C2_2  and  C3_3 
REMARK    2  A    between atoms: C3_3  and  C4_4 
REMARK    3  A    between atoms: C4_4  and  O1_5 
REMARK    4  A    between atoms: O1_5  and  C5_6 
REMARK    5  A    between atoms: C7_8  and  N1_9 
REMARK    6  A    between atoms: C16_21  and  O2_22 
ROOT
HETATM    1  C5  UNL     1      24.873   2.240  52.563  1.00  0.00     0.103 A 
HETATM    2  C6  UNL     1      24.390   1.260  51.847  1.00  0.00     0.073 A 
HETATM    3  C7  UNL     1      23.078   1.690  51.580  1.00  0.00     0.182 A 
HETATM    4  N2  UNL     1      22.333   1.466  50.374  1.00  0.00    -0.242 NA
HETATM    5  C13 UNL     1      21.327   2.355  50.243  1.00  0.00     0.230 C 
HETATM    6  N3  UNL     1      20.851   3.498  50.986  1.00  0.00    -0.254 NA
HETATM    7  C14 UNL     1      21.567   3.859  52.033  1.00  0.00     0.132 C 
HETATM    8  C15 UNL     1      22.738   3.002  52.096  1.00  0.00     0.050 A 
HETATM    9  C16 UNL     1      23.886   3.328  52.735  1.00  0.00     0.111 A 
ENDROOT
BRANCH   3  10
HETATM   10  N1  UNL     1      22.208   0.725  52.503  1.00  0.00    -0.350 N 
HETATM   11  C8  UNL     1      23.018   0.142  53.489  1.00  0.00     0.113 A 
HETATM   12  C9  UNL     1      22.505  -0.697  54.370  1.00  0.00     0.049 A 
HETATM   13 CL1  UNL     1      23.367  -1.500  55.649  1.00  0.00    -0.083 Cl
HETATM   14  C10 UNL     1      21.082  -1.011  54.304  1.00  0.00     0.023 A 
HETATM   15  C11 UNL     1      20.364  -0.443  53.364  1.00  0.00    -0.005 A 
HETATM   16  C12 UNL     1      20.790   0.505  52.318  1.00  0.00     0.153 A 
ENDBRANCH   3  10
BRANCH   1  17
HETATM   17  O1  UNL     1      26.170   2.199  53.055  1.00  0.00    -0.347 OA
BRANCH  17  18
HETATM   18  C4  UNL     1      26.484   1.344  54.143  1.00  0.00     0.193 C 
BRANCH  18  19
HETATM   19  C3  UNL     1      27.538   0.393  53.731  1.00  0.00     0.093 C 
BRANCH  19  20
HETATM   20  C2  UNL     1      27.199  -0.774  53.206  1.00  0.00    -0.174 C 
HETATM   21  C1  UNL     1      26.799  -1.790  52.455  1.00  0.00     0.091 C 
ENDBRANCH  19  20
ENDBRANCH  18  19
ENDBRANCH  17  18
ENDBRANCH   1  17
BRANCH   9  22
HETATM   22  O2  UNL     1      24.223   4.478  53.478  1.00  0.00    -0.357 OA
HETATM   23  H14 UNL     1      24.063   4.454  54.491  1.00  0.00     0.217 HD
ENDBRANCH   9  22
TORSDOF 6
ENDMDL
MODEL 4
REMARK VINA RESULT:      -6.2      2.734      4.568
REMARK  6 active torsions:
REMARK  status: ('A' for Active; 'I' for Inactive)
REMARK    1  A    between atoms: C2_2  and  C3_3 
REMARK    2  A    between atoms: C3_3  and  C4_4 
REMARK    3  A    between atoms: C4_4  and  O1_5 
REMARK    4  A    between atoms: O1_5  and  C5_6 
REMARK    5  A    between atoms: C7_8  and  N1_9 
REMARK    6  A    between atoms: C16_21  and  O2_22 
ROOT
HETATM    1  C5  UNL     1      23.832   1.434  52.589  1.00  0.00     0.103 A 
HETATM    2  C6  UNL     1      23.114   1.029  51.575  1.00  0.00     0.073 A 
HETATM    3  C7  UNL     1      22.896   2.219  50.858  1.00  0.00     0.182 A 
HETATM    4  N2  UNL     1      22.824   2.356  49.431  1.00  0.00    -0.242 NA
HETATM    5  C13 UNL     1      23.059   3.628  49.046  1.00  0.00     0.230 C 
HETATM    6  N3  UNL     1      23.411   4.862  49.706  1.00  0.00    -0.254 NA
HETATM    7  C14 UNL     1      23.637   4.792  51.004  1.00  0.00     0.132 C 
HETATM    8  C15 UNL     1      23.536   3.400  51.405  1.00  0.00     0.050 A 
HETATM    9  C16 UNL     1      24.110   2.884  52.517  1.00  0.00     0.111 A 
ENDROOT
BRANCH   3  10
HETATM   10  N1  UNL     1      21.353   2.507  51.137  1.00  0.00    -0.350 N 
HETATM   11  C8  UNL     1      20.567   1.469  50.614  1.00  0.00     0.113 A 
HETATM   12  C9  UNL     1      19.252   1.498  50.731  1.00  0.00     0.049 A 
HETATM   13 CL1  UNL     1      18.140   0.298  50.141  1.00  0.00    -0.083 Cl
HETATM   14  C10 UNL     1      18.626   2.625  51.412  1.00  0.00     0.023 A 
HETATM   15  C11 UNL     1      19.402   3.573  51.885  1.00  0.00    -0.005 A 
HETATM   16  C12 UNL     1      20.871   3.680  51.832  1.00  0.00     0.153 A 
ENDBRANCH   3  10
BRANCH   1  17
HETATM   17  O1  UNL     1      24.255   0.546  53.568  1.00  0.00    -0.347 OA
BRANCH  17  18
HETATM   18  C4  UNL     1      23.758  -0.783  53.577  1.00  0.00     0.193 C 
BRANCH  18  19
HETATM   19  C3  UNL     1      22.774  -0.932  54.671  1.00  0.00     0.093 C 
BRANCH  19  20
HETATM   20  C2  UNL     1      21.574  -0.385  54.552  1.00  0.00    -0.174 C 
HETATM   21  C1  UNL     1      20.506   0.349  54.273  1.00  0.00     0.091 C 
ENDBRANCH  19  20
ENDBRANCH  18  19
ENDBRANCH  17  18
ENDBRANCH   1  17
BRANCH   9  22
HETATM   22  O2  UNL     1      24.875   3.509  53.523  1.00  0.00    -0.357 OA
HETATM   23  H14 UNL     1      25.233   2.920  54.283  1.00  0.00     0.217 HD
ENDBRANCH   9  22
TORSDOF 6
ENDMDL
MODEL 5
REMARK VINA RESULT:      -6.2      2.949      5.128
REMARK  6 active torsions:
REMARK  status: ('A' for Active; 'I' for Inactive)
REMARK    1  A    between atoms: C2_2  and  C3_3 
REMARK    2  A    between atoms: C3_3  and  C4_4 
REMARK    3  A    between atoms: C4_4  and  O1_5 
REMARK    4  A    between atoms: O1_5  and  C5_6 
REMARK    5  A    between atoms: C7_8  and  N1_9 
REMARK    6  A    between atoms: C16_21  and  O2_22 
ROOT
HETATM    1  C5  UNL     1      21.931   1.051  51.646  1.00  0.00     0.103 A 
HETATM    2  C6  UNL     1      22.507   1.709  52.616  1.00  0.00     0.073 A 
HETATM    3  C7  UNL     1      23.199   2.724  51.931  1.00  0.00     0.182 A 
HETATM    4  N2  UNL     1      23.407   4.071  52.381  1.00  0.00    -0.242 NA
HETATM    5  C13 UNL     1      23.689   4.896  51.352  1.00  0.00     0.230 C 
HETATM    6  N3  UNL     1      23.784   4.769  49.917  1.00  0.00    -0.254 NA
HETATM    7  C14 UNL     1      23.467   3.593  49.408  1.00  0.00     0.132 C 
HETATM    8  C15 UNL     1      23.015   2.740  50.493  1.00  0.00     0.050 A 
HETATM    9  C16 UNL     1      22.220   1.656  50.328  1.00  0.00     0.111 A 
ENDROOT
BRANCH   3  10
HETATM   10  N1  UNL     1      24.717   2.258  52.075  1.00  0.00    -0.350 N 
HETATM   11  C8  UNL     1      24.911   1.622  53.310  1.00  0.00     0.113 A 
HETATM   12  C9  UNL     1      26.098   1.151  53.644  1.00  0.00     0.049 A 
HETATM   13 CL1  UNL     1      26.503   0.342  55.129  1.00  0.00    -0.083 Cl
HETATM   14  C10 UNL     1      27.208   1.303  52.711  1.00  0.00     0.023 A 
HETATM   15  C11 UNL     1      26.980   1.905  51.568  1.00  0.00    -0.005 A 
HETATM   16  C12 UNL     1      25.721   2.479  51.057  1.00  0.00     0.153 A 
ENDBRANCH   3  10
BRANCH   1  17
HETATM   17  O1  UNL     1      21.146  -0.064  51.903  1.00  0.00    -0.347 OA
BRANCH  17  18
HETATM   18  C4  UNL     1      20.143  -0.005  52.905  1.00  0.00     0.193 C 
BRANCH  18  19
HETATM   19  C3  UNL     1      20.326  -1.129  53.848  1.00  0.00     0.093 C 
BRANCH  19  20
HETATM   20  C2  UNL     1      21.507  -1.326  54.411  1.00  0.00    -0.174 C 
HETATM   21  C1  UNL     1      22.630  -1.290  55.115  1.00  0.00     0.091 C 
ENDBRANCH  19  20
ENDBRANCH  18  19
ENDBRANCH  17  18
ENDBRANCH   1  17
BRANCH   9  22
HETATM   22  O2  UNL     1      21.683   1.087  49.155  1.00  0.00    -0.357 OA
HETATM   23  H14 UNL     1      21.014   1.648  48.618  1.00  0.00     0.217 HD
ENDBRANCH   9  22
TORSDOF 6
ENDMDL
MODEL 6
REMARK VINA RESULT:      -6.1      3.855      5.940
REMARK  6 active torsions:
REMARK  status: ('A' for Active; 'I' for Inactive)
REMARK    1  A    between atoms: C2_2  and  C3_3 
REMARK    2  A    between atoms: C3_3  and  C4_4 
REMARK    3  A    between atoms: C4_4  and  O1_5 
REMARK    4  A    between atoms: O1_5  and  C5_6 
REMARK    5  A    between atoms: C7_8  and  N1_9 
REMARK    6  A    between atoms: C16_21  and  O2_22 
ROOT
HETATM    1  C5  UNL     1      25.039   5.012  50.316  1.00  0.00     0.103 A 
HETATM    2  C6  UNL     1      25.119   3.729  50.083  1.00  0.00     0.073 A 
HETATM    3  C7  UNL     1      24.031   3.215  50.811  1.00  0.00     0.182 A 
HETATM    4  N2  UNL     1      23.200   2.107  50.439  1.00  0.00    -0.242 NA
HETATM    5  C13 UNL     1      22.012   2.144  51.077  1.00  0.00     0.230 C 
HETATM    6  N3  UNL     1      21.358   3.044  51.996  1.00  0.00    -0.254 NA
HETATM    7  C14 UNL     1      21.998   4.163  52.281  1.00  0.00     0.132 C 
HETATM    8  C15 UNL     1      23.210   4.205  51.481  1.00  0.00     0.050 A 
HETATM    9  C16 UNL     1      23.878   5.341  51.171  1.00  0.00     0.111 A 
ENDROOT
BRANCH   3  10
HETATM   10  N1  UNL     1      24.752   2.488  52.033  1.00  0.00    -0.350 N 
HETATM   11  C8  UNL     1      25.318   1.276  51.607  1.00  0.00     0.113 A 
HETATM   12  C9  UNL     1      25.968   0.503  52.456  1.00  0.00     0.049 A 
HETATM   13 CL1  UNL     1      26.723  -1.020  52.090  1.00  0.00    -0.083 Cl
HETATM   14  C10 UNL     1      26.092   0.925  53.847  1.00  0.00     0.023 A 
HETATM   15  C11 UNL     1      25.547   2.065  54.200  1.00  0.00    -0.005 A 
HETATM   16  C12 UNL     1      24.795   3.029  53.374  1.00  0.00     0.153 A 
ENDBRANCH   3  10
BRANCH   1  17
HETATM   17  O1  UNL     1      25.962   5.898  49.780  1.00  0.00    -0.347 OA
BRANCH  17  18
HETATM   18  C4  UNL     1      25.678   6.557  48.556  1.00  0.00     0.193 C 
BRANCH  18  19
HETATM   19  C3  UNL     1      26.940   7.032  47.950  1.00  0.00     0.093 C 
BRANCH  19  20
HETATM   20  C2  UNL     1      28.065   6.371  48.174  1.00  0.00    -0.174 C 
HETATM   21  C1  UNL     1      29.110   5.556  48.180  1.00  0.00     0.091 C 
ENDBRANCH  19  20
ENDBRANCH  18  19
ENDBRANCH  17  18
ENDBRANCH   1  17
BRANCH   9  22
HETATM   22  O2  UNL     1      23.621   6.679  51.531  1.00  0.00    -0.357 OA
HETATM   23  H14 UNL     1      22.644   6.953  51.679  1.00  0.00     0.217 HD
ENDBRANCH   9  22
TORSDOF 6
ENDMDL
MODEL 7
REMARK VINA RESULT:      -6.1      9.744     11.792
REMARK  6 active torsions:
REMARK  status: ('A' for Active; 'I' for Inactive)
REMARK    1  A    between atoms: C2_2  and  C3_3 
REMARK    2  A    between atoms: C3_3  and  C4_4 
REMARK    3  A    between atoms: C4_4  and  O1_5 
REMARK    4  A    between atoms: O1_5  and  C5_6 
REMARK    5  A    between atoms: C7_8  and  N1_9 
REMARK    6  A    between atoms: C16_21  and  O2_22 
ROOT
HETATM    1  C5  UNL     1      30.612   5.635  48.365  1.00  0.00     0.103 A 
HETATM    2  C6  UNL     1      30.970   5.819  47.122  1.00  0.00     0.073 A 
HETATM    3  C7  UNL     1      32.356   6.029  47.228  1.00  0.00     0.182 A 
HETATM    4  N2  UNL     1      33.359   5.606  46.293  1.00  0.00    -0.242 NA
HETATM    5  C13 UNL     1      34.577   5.548  46.870  1.00  0.00     0.230 C 
HETATM    6  N3  UNL     1      35.107   5.757  48.196  1.00  0.00    -0.254 NA
HETATM    7  C14 UNL     1      34.229   6.011  49.148  1.00  0.00     0.132 C 
HETATM    8  C15 UNL     1      32.899   5.926  48.568  1.00  0.00     0.050 A 
HETATM    9  C16 UNL     1      31.772   5.694  49.281  1.00  0.00     0.111 A 
ENDROOT
BRANCH   3  10
HETATM   10  N1  UNL     1      32.487   7.589  46.927  1.00  0.00    -0.350 N 
HETATM   11  C8  UNL     1      32.256   7.839  45.565  1.00  0.00     0.113 A 
HETATM   12  C9  UNL     1      32.313   9.068  45.089  1.00  0.00     0.049 A 
HETATM   13 CL1  UNL     1      32.053   9.544  43.436  1.00  0.00    -0.083 Cl
HETATM   14  C10 UNL     1      32.620  10.167  45.997  1.00  0.00     0.023 A 
HETATM   15  C11 UNL     1      32.830   9.886  47.262  1.00  0.00    -0.005 A 
HETATM   16  C12 UNL     1      32.802   8.575  47.937  1.00  0.00     0.153 A 
ENDBRANCH   3  10
BRANCH   1  17
HETATM   17  O1  UNL     1      29.287   5.405  48.704  1.00  0.00    -0.347 OA
BRANCH  17  18
HETATM   18  C4  UNL     1      28.289   6.340  48.323  1.00  0.00     0.193 C 
BRANCH  18  19
HETATM   19  C3  UNL     1      26.953   5.772  48.601  1.00  0.00     0.093 C 
BRANCH  19  20
HETATM   20  C2  UNL     1      26.850   4.538  49.072  1.00  0.00    -0.174 C 
HETATM   21  C1  UNL     1      26.486   3.381  49.604  1.00  0.00     0.091 C 
ENDBRANCH  19  20
ENDBRANCH  18  19
ENDBRANCH  17  18
ENDBRANCH   1  17
BRANCH   9  22
HETATM   22  O2  UNL     1      31.588   5.516  50.667  1.00  0.00    -0.357 OA
HETATM   23  H14 UNL     1      32.400   5.225  51.221  1.00  0.00     0.217 HD
ENDBRANCH   9  22
TORSDOF 6
ENDMDL
MODEL 8
REMARK VINA RESULT:      -6.0      2.662      3.530
REMARK  6 active torsions:
REMARK  status: ('A' for Active; 'I' for Inactive)
REMARK    1  A    between atoms: C2_2  and  C3_3 
REMARK    2  A    between atoms: C3_3  and  C4_4 
REMARK    3  A    between atoms: C4_4  and  O1_5 
REMARK    4  A    between atoms: O1_5  and  C5_6 
REMARK    5  A    between atoms: C7_8  and  N1_9 
REMARK    6  A    between atoms: C16_21  and  O2_22 
ROOT
HETATM    1  C5  UNL     1      25.918   2.473  51.395  1.00  0.00     0.103 A 
HETATM    2  C6  UNL     1      25.665   2.789  50.153  1.00  0.00     0.073 A 
HETATM    3  C7  UNL     1      24.545   3.632  50.271  1.00  0.00     0.182 A 
HETATM    4  N2  UNL     1      24.249   4.780  49.462  1.00  0.00    -0.242 NA
HETATM    5  C13 UNL     1      23.391   5.614  50.085  1.00  0.00     0.230 C 
HETATM    6  N3  UNL     1      22.742   5.661  51.374  1.00  0.00    -0.254 NA
HETATM    7  C14 UNL     1      23.072   4.716  52.233  1.00  0.00     0.132 C 
HETATM    8  C15 UNL     1      24.110   3.898  51.629  1.00  0.00     0.050 A 
HETATM    9  C16 UNL     1      24.983   3.137  52.329  1.00  0.00     0.111 A 
ENDROOT
BRANCH   3  10
HETATM   10  N1  UNL     1      23.368   2.716  49.709  1.00  0.00    -0.350 N 
HETATM   11  C8  UNL     1      22.827   1.938  50.744  1.00  0.00     0.113 A 
HETATM   12  C9  UNL     1      21.834   1.101  50.506  1.00  0.00     0.049 A 
HETATM   13 CL1  UNL     1      21.056   0.071  51.671  1.00  0.00    -0.083 Cl
HETATM   14  C10 UNL     1      21.306   0.995  49.151  1.00  0.00     0.023 A 
HETATM   15  C11 UNL     1      21.843   1.742  48.215  1.00  0.00    -0.005 A 
HETATM   16  C12 UNL     1      22.947   2.714  48.325  1.00  0.00     0.153 A 
ENDBRANCH   3  10
BRANCH   1  17
HETATM   17  O1  UNL     1      26.964   1.622  51.719  1.00  0.00    -0.347 OA
BRANCH  17  18
HETATM   18  C4  UNL     1      26.709   0.244  51.941  1.00  0.00     0.193 C 
BRANCH  18  19
HETATM   19  C3  UNL     1      27.221  -0.142  53.274  1.00  0.00     0.093 C 
BRANCH  19  20
HETATM   20  C2  UNL     1      28.460  -0.593  53.394  1.00  0.00    -0.174 C 
HETATM   21  C1  UNL     1      29.768  -0.774  53.503  1.00  0.00     0.091 C 
ENDBRANCH  19  20
ENDBRANCH  18  19
ENDBRANCH  17  18
ENDBRANCH   1  17
BRANCH   9  22
HETATM   22  O2  UNL     1      25.098   2.921  53.717  1.00  0.00    -0.357 OA
HETATM   23  H14 UNL     1      24.261   2.610  54.221  1.00  0.00     0.217 HD
ENDBRANCH   9  22
TORSDOF 6
ENDMDL
MODEL 9
REMARK VINA RESULT:      -6.0      9.136     11.245
REMARK  6 active torsions:
REMARK  status: ('A' for Active; 'I' for Inactive)
REMARK    1  A    between atoms: C2_2  and  C3_3 
REMARK    2  A    between atoms: C3_3  and  C4_4 
REMARK    3  A    between atoms: C4_4  and  O1_5 
REMARK    4  A    between atoms: O1_5  and  C5_6 
REMARK    5  A    between atoms: C7_8  and  N1_9 
REMARK    6  A    between atoms: C16_21  and  O2_22 
ROOT
HETATM    1  C5  UNL     1      30.079   5.951  48.273  1.00  0.00     0.103 A 
HETATM    2  C6  UNL     1      30.011   6.744  47.237  1.00  0.00     0.073 A 
HETATM    3  C7  UNL     1      31.200   7.488  47.340  1.00  0.00     0.182 A 
HETATM    4  N2  UNL     1      32.011   7.958  46.254  1.00  0.00    -0.242 NA
HETATM    5  C13 UNL     1      33.270   8.226  46.659  1.00  0.00     0.230 C 
HETATM    6  N3  UNL     1      34.009   8.110  47.893  1.00  0.00    -0.254 NA
HETATM    7  C14 UNL     1      33.375   7.552  48.907  1.00  0.00     0.132 C 
HETATM    8  C15 UNL     1      32.069   7.120  48.441  1.00  0.00     0.050 A 
HETATM    9  C16 UNL     1      31.330   6.154  49.035  1.00  0.00     0.111 A 
ENDROOT
BRANCH   3  10
HETATM   10  N1  UNL     1      30.668   8.921  47.790  1.00  0.00    -0.350 N 
HETATM   11  C8  UNL     1      29.996   9.542  46.726  1.00  0.00     0.113 A 
HETATM   12  C9  UNL     1      29.469  10.743  46.874  1.00  0.00     0.049 A 
HETATM   13 CL1  UNL     1      28.611  11.646  45.660  1.00  0.00    -0.083 Cl
HETATM   14  C10 UNL     1      29.594  11.419  48.160  1.00  0.00     0.023 A 
HETATM   15  C11 UNL     1      30.231  10.800  49.127  1.00  0.00    -0.005 A 
HETATM   16  C12 UNL     1      30.868   9.470  49.114  1.00  0.00     0.153 A 
ENDBRANCH   3  10
BRANCH   1  17
HETATM   17  O1  UNL     1      29.066   5.044  48.550  1.00  0.00    -0.347 OA
BRANCH  17  18
HETATM   18  C4  UNL     1      27.712   5.466  48.508  1.00  0.00     0.193 C 
BRANCH  18  19
HETATM   19  C3  UNL     1      26.857   4.435  49.134  1.00  0.00     0.093 C 
BRANCH  19  20
HETATM   20  C2  UNL     1      25.557   4.649  49.259  1.00  0.00    -0.174 C 
HETATM   21  C1  UNL     1      24.256   4.850  49.105  1.00  0.00     0.091 C 
ENDBRANCH  19  20
ENDBRANCH  18  19
ENDBRANCH  17  18
ENDBRANCH   1  17
BRANCH   9  22
HETATM   22  O2  UNL     1      31.588   5.386  50.189  1.00  0.00    -0.357 OA
HETATM   23  H14 UNL     1      31.290   4.405  50.184  1.00  0.00     0.217 HD
ENDBRANCH   9  22
TORSDOF 6
ENDMDL
