MODEL 1
REMARK VINA RESULT:      -8.3      0.000      0.000
REMARK  5 active torsions:
REMARK  status: ('A' for Active; 'I' for Inactive)
REMARK    1  A    between atoms: C5_5  and  C6_6 
REMARK    2  A    between atoms: N1_7  and  N2_8 
REMARK    3  A    between atoms: N2_8  and  C7_9 
REMARK    4  A    between atoms: N2_8  and  C13_15 
REMARK    5  A    between atoms: C14_17  and  O1_18 
ROOT
HETATM    1  N2  UNL     1      25.676   1.912  52.780  1.00  0.00    -0.210 N 
ENDROOT
BRANCH   1   2
HETATM    2  N1  UNL     1      24.444   1.419  53.159  1.00  0.00    -0.177 NA
HETATM    3  C6  UNL     1      24.102   0.211  52.932  1.00  0.00     0.150 C 
BRANCH   3   4
HETATM    4  C5  UNL     1      22.738  -0.081  53.431  1.00  0.00    -0.020 A 
HETATM    5  C4  UNL     1      22.430  -1.265  54.252  1.00  0.00     0.009 A 
HETATM    6  C3  UNL     1      21.128  -1.326  54.582  1.00  0.00    -0.018 A 
HETATM    7  C2  UNL     1      20.449  -0.143  53.982  1.00  0.00     0.027 A 
HETATM    8  C1  UNL     1      19.329  -0.517  53.071  1.00  0.00     0.018 C 
HETATM    9  C16 UNL     1      21.578   0.537  53.299  1.00  0.00    -0.006 A 
ENDBRANCH   3   4
ENDBRANCH   1   2
BRANCH   1  10
HETATM   10  C7  UNL     1      25.603   2.753  51.612  1.00  0.00     0.061 A 
HETATM   11  C8  UNL     1      26.604   2.851  50.673  1.00  0.00     0.031 A 
HETATM   12  C9  UNL     1      26.588   3.622  49.537  1.00  0.00     0.002 A 
HETATM   13  C10 UNL     1      25.438   4.369  49.336  1.00  0.00     0.000 A 
HETATM   14  C11 UNL     1      24.364   4.341  50.232  1.00  0.00     0.002 A 
HETATM   15  C12 UNL     1      24.511   3.523  51.331  1.00  0.00     0.031 A 
ENDBRANCH   1  10
BRANCH   1  16
HETATM   16  C13 UNL     1      27.010   1.737  53.351  1.00  0.00     0.196 A 
HETATM   17  N3  UNL     1      27.947   2.371  53.979  1.00  0.00    -0.198 NA
HETATM   18  C14 UNL     1      29.042   1.688  54.254  1.00  0.00     0.171 A 
HETATM   19  C15 UNL     1      29.246   0.348  53.914  1.00  0.00     0.111 A 
HETATM   20  S1  UNL     1      27.682  -0.040  53.081  1.00  0.00    -0.058 SA
BRANCH  18  21
HETATM   21  O1  UNL     1      29.990   2.482  54.942  1.00  0.00    -0.344 OA
HETATM   22  H13 UNL     1      30.547   2.096  55.705  1.00  0.00     0.219 HD
ENDBRANCH  18  21
ENDBRANCH   1  16
TORSDOF 5
ENDMDL
MODEL 2
REMARK VINA RESULT:      -8.2      2.144      5.813
REMARK  5 active torsions:
REMARK  status: ('A' for Active; 'I' for Inactive)
REMARK    1  A    between atoms: C5_5  and  C6_6 
REMARK    2  A    between atoms: N1_7  and  N2_8 
REMARK    3  A    between atoms: N2_8  and  C7_9 
REMARK    4  A    between atoms: N2_8  and  C13_15 
REMARK    5  A    between atoms: C14_17  and  O1_18 
ROOT
HETATM    1  N2  UNL     1      25.623   0.246  52.780  1.00  0.00    -0.210 N 
ENDROOT
BRANCH   1   2
HETATM    2  N1  UNL     1      25.473   1.410  52.053  1.00  0.00    -0.177 NA
HETATM    3  C6  UNL     1      26.352   1.799  51.215  1.00  0.00     0.150 C 
BRANCH   3   4
HETATM    4  C5  UNL     1      25.969   3.072  50.560  1.00  0.00    -0.020 A 
HETATM    5  C4  UNL     1      26.805   3.722  49.537  1.00  0.00     0.009 A 
HETATM    6  C3  UNL     1      26.259   4.867  49.091  1.00  0.00    -0.018 A 
HETATM    7  C2  UNL     1      24.971   5.070  49.812  1.00  0.00     0.027 A 
HETATM    8  C1  UNL     1      24.917   6.364  50.552  1.00  0.00     0.018 C 
HETATM    9  C16 UNL     1      24.926   3.873  50.689  1.00  0.00    -0.006 A 
ENDBRANCH   3   4
ENDBRANCH   1   2
BRANCH   1  10
HETATM   10  C7  UNL     1      24.418  -0.134  53.475  1.00  0.00     0.061 A 
HETATM   11  C8  UNL     1      24.403  -0.862  54.642  1.00  0.00     0.031 A 
HETATM   12  C9  UNL     1      23.293  -1.243  55.355  1.00  0.00     0.002 A 
HETATM   13  C10 UNL     1      22.075  -0.843  54.827  1.00  0.00     0.000 A 
HETATM   14  C11 UNL     1      21.983  -0.101  53.645  1.00  0.00     0.002 A 
HETATM   15  C12 UNL     1      23.175   0.215  53.030  1.00  0.00     0.031 A 
ENDBRANCH   1  10
BRANCH   1  16
HETATM   16  C13 UNL     1      26.764  -0.649  52.957  1.00  0.00     0.196 A 
HETATM   17  N3  UNL     1      27.116  -1.891  52.865  1.00  0.00    -0.198 NA
HETATM   18  C14 UNL     1      28.362  -2.179  53.191  1.00  0.00     0.171 A 
HETATM   19  C15 UNL     1      29.305  -1.241  53.620  1.00  0.00     0.111 A 
HETATM   20  S1  UNL     1      28.324   0.284  53.569  1.00  0.00    -0.058 SA
BRANCH  18  21
HETATM   21  O1  UNL     1      28.629  -3.561  53.050  1.00  0.00    -0.344 OA
HETATM   22  H13 UNL     1      28.491  -4.207  53.829  1.00  0.00     0.219 HD
ENDBRANCH  18  21
ENDBRANCH   1  16
TORSDOF 5
ENDMDL
MODEL 3
REMARK VINA RESULT:      -7.9      2.189      4.181
REMARK  5 active torsions:
REMARK  status: ('A' for Active; 'I' for Inactive)
REMARK    1  A    between atoms: C5_5  and  C6_6 
REMARK    2  A    between atoms: N1_7  and  N2_8 
REMARK    3  A    between atoms: N2_8  and  C7_9 
REMARK    4  A    between atoms: N2_8  and  C13_15 
REMARK    5  A    between atoms: C14_17  and  O1_18 
ROOT
HETATM    1  N2  UNL     1      25.903   1.942  52.248  1.00  0.00    -0.210 N 
ENDROOT
BRANCH   1   2
HETATM    2  N1  UNL     1      24.736   1.488  52.827  1.00  0.00    -0.177 NA
HETATM    3  C6  UNL     1      23.978   0.642  52.245  1.00  0.00     0.150 C 
BRANCH   3   4
HETATM    4  C5  UNL     1      22.788   0.309  53.063  1.00  0.00    -0.020 A 
HETATM    5  C4  UNL     1      22.828  -0.672  54.160  1.00  0.00     0.009 A 
HETATM    6  C3  UNL     1      21.630  -0.814  54.754  1.00  0.00    -0.018 A 
HETATM    7  C2  UNL     1      20.670   0.096  54.070  1.00  0.00     0.027 A 
HETATM    8  C1  UNL     1      19.490  -0.622  53.506  1.00  0.00     0.018 C 
HETATM    9  C16 UNL     1      21.536   0.729  53.043  1.00  0.00    -0.006 A 
ENDBRANCH   3   4
ENDBRANCH   1   2
BRANCH   1  10
HETATM   10  C7  UNL     1      27.081   1.383  52.863  1.00  0.00     0.061 A 
HETATM   11  C8  UNL     1      27.410   0.048  52.819  1.00  0.00     0.031 A 
HETATM   12  C9  UNL     1      28.521  -0.540  53.373  1.00  0.00     0.002 A 
HETATM   13  C10 UNL     1      29.384   0.316  54.039  1.00  0.00     0.000 A 
HETATM   14  C11 UNL     1      29.139   1.689  54.141  1.00  0.00     0.002 A 
HETATM   15  C12 UNL     1      27.988   2.149  53.539  1.00  0.00     0.031 A 
ENDBRANCH   1  10
BRANCH   1  16
HETATM   16  C13 UNL     1      26.144   2.865  51.142  1.00  0.00     0.196 A 
HETATM   17  N3  UNL     1      27.046   3.226  50.286  1.00  0.00    -0.198 NA
HETATM   18  C14 UNL     1      26.720   4.203  49.460  1.00  0.00     0.171 A 
HETATM   19  C15 UNL     1      25.485   4.857  49.454  1.00  0.00     0.111 A 
HETATM   20  S1  UNL     1      24.629   3.992  50.800  1.00  0.00    -0.058 SA
BRANCH  18  21
HETATM   21  O1  UNL     1      27.781   4.508  48.575  1.00  0.00    -0.344 OA
HETATM   22  H13 UNL     1      27.727   5.309  47.945  1.00  0.00     0.219 HD
ENDBRANCH  18  21
ENDBRANCH   1  16
TORSDOF 5
ENDMDL
MODEL 4
REMARK VINA RESULT:      -7.8      3.015      6.709
REMARK  5 active torsions:
REMARK  status: ('A' for Active; 'I' for Inactive)
REMARK    1  A    between atoms: C5_5  and  C6_6 
REMARK    2  A    between atoms: N1_7  and  N2_8 
REMARK    3  A    between atoms: N2_8  and  C7_9 
REMARK    4  A    between atoms: N2_8  and  C13_15 
REMARK    5  A    between atoms: C14_17  and  O1_18 
ROOT
HETATM    1  N2  UNL     1      23.663   1.650  52.914  1.00  0.00    -0.210 N 
ENDROOT
BRANCH   1   2
HETATM    2  N1  UNL     1      24.943   1.258  53.250  1.00  0.00    -0.177 NA
HETATM    3  C6  UNL     1      25.876   2.104  53.454  1.00  0.00     0.150 C 
BRANCH   3   4
HETATM    4  C5  UNL     1      27.156   1.444  53.800  1.00  0.00    -0.020 A 
HETATM    5  C4  UNL     1      28.452   2.141  53.733  1.00  0.00     0.009 A 
HETATM    6  C3  UNL     1      29.474   1.342  54.086  1.00  0.00    -0.018 A 
HETATM    7  C2  UNL     1      28.913   0.005  54.426  1.00  0.00     0.027 A 
HETATM    8  C1  UNL     1      29.492  -1.095  53.602  1.00  0.00     0.018 C 
HETATM    9  C16 UNL     1      27.461   0.223  54.203  1.00  0.00    -0.006 A 
ENDBRANCH   3   4
ENDBRANCH   1   2
BRANCH   1  10
HETATM   10  C7  UNL     1      22.664   0.697  53.329  1.00  0.00     0.061 A 
HETATM   11  C8  UNL     1      22.954  -0.505  53.931  1.00  0.00     0.031 A 
HETATM   12  C9  UNL     1      22.049  -1.446  54.359  1.00  0.00     0.002 A 
HETATM   13  C10 UNL     1      20.714  -1.132  54.152  1.00  0.00     0.000 A 
HETATM   14  C11 UNL     1      20.316   0.065  53.547  1.00  0.00     0.002 A 
HETATM   15  C12 UNL     1      21.326   0.920  53.166  1.00  0.00     0.031 A 
ENDBRANCH   1  10
BRANCH   1  16
HETATM   16  C13 UNL     1      23.159   2.839  52.231  1.00  0.00     0.196 A 
HETATM   17  N3  UNL     1      22.727   4.040  52.448  1.00  0.00    -0.198 NA
HETATM   18  C14 UNL     1      22.347   4.732  51.391  1.00  0.00     0.171 A 
HETATM   19  C15 UNL     1      22.383   4.256  50.078  1.00  0.00     0.111 A 
HETATM   20  S1  UNL     1      23.045   2.586  50.333  1.00  0.00    -0.058 SA
BRANCH  18  21
HETATM   21  O1  UNL     1      21.899   6.025  51.752  1.00  0.00    -0.344 OA
HETATM   22  H13 UNL     1      21.843   6.775  51.061  1.00  0.00     0.219 HD
ENDBRANCH  18  21
ENDBRANCH   1  16
TORSDOF 5
ENDMDL
MODEL 5
REMARK VINA RESULT:      -7.5      3.103      6.294
REMARK  5 active torsions:
REMARK  status: ('A' for Active; 'I' for Inactive)
REMARK    1  A    between atoms: C5_5  and  C6_6 
REMARK    2  A    between atoms: N1_7  and  N2_8 
REMARK    3  A    between atoms: N2_8  and  C7_9 
REMARK    4  A    between atoms: N2_8  and  C13_15 
REMARK    5  A    between atoms: C14_17  and  O1_18 
ROOT
HETATM    1  N2  UNL     1      24.452   2.965  51.744  1.00  0.00    -0.210 N 
ENDROOT
BRANCH   1   2
HETATM    2  N1  UNL     1      25.487   2.347  52.416  1.00  0.00    -0.177 NA
HETATM    3  C6  UNL     1      26.593   2.072  51.844  1.00  0.00     0.150 C 
BRANCH   3   4
HETATM    4  C5  UNL     1      27.545   1.412  52.768  1.00  0.00    -0.020 A 
HETATM    5  C4  UNL     1      28.509   2.168  53.587  1.00  0.00     0.009 A 
HETATM    6  C3  UNL     1      29.273   1.359  54.342  1.00  0.00    -0.018 A 
HETATM    7  C2  UNL     1      28.858  -0.046  54.071  1.00  0.00     0.027 A 
HETATM    8  C1  UNL     1      29.980  -0.900  53.585  1.00  0.00     0.018 C 
HETATM    9  C16 UNL     1      27.775   0.148  53.075  1.00  0.00    -0.006 A 
ENDBRANCH   3   4
ENDBRANCH   1   2
BRANCH   1  10
HETATM   10  C7  UNL     1      23.371   2.063  51.437  1.00  0.00     0.061 A 
HETATM   11  C8  UNL     1      22.874   1.132  52.320  1.00  0.00     0.031 A 
HETATM   12  C9  UNL     1      21.842   0.256  52.091  1.00  0.00     0.002 A 
HETATM   13  C10 UNL     1      21.257   0.333  50.837  1.00  0.00     0.000 A 
HETATM   14  C11 UNL     1      21.690   1.243  49.868  1.00  0.00     0.002 A 
HETATM   15  C12 UNL     1      22.734   2.065  50.229  1.00  0.00     0.031 A 
ENDBRANCH   1  10
BRANCH   1  16
HETATM   16  C13 UNL     1      24.266   4.347  51.306  1.00  0.00     0.196 A 
HETATM   17  N3  UNL     1      23.625   5.435  51.591  1.00  0.00    -0.198 NA
HETATM   18  C14 UNL     1      23.823   6.465  50.790  1.00  0.00     0.171 A 
HETATM   19  C15 UNL     1      24.666   6.452  49.676  1.00  0.00     0.111 A 
HETATM   20  S1  UNL     1      25.290   4.749  49.734  1.00  0.00    -0.058 SA
BRANCH  18  21
HETATM   21  O1  UNL     1      23.074   7.593  51.202  1.00  0.00    -0.344 OA
HETATM   22  H13 UNL     1      23.537   8.455  51.493  1.00  0.00     0.219 HD
ENDBRANCH  18  21
ENDBRANCH   1  16
TORSDOF 5
ENDMDL
MODEL 6
REMARK VINA RESULT:      -7.3      1.588      5.226
REMARK  5 active torsions:
REMARK  status: ('A' for Active; 'I' for Inactive)
REMARK    1  A    between atoms: C5_5  and  C6_6 
REMARK    2  A    between atoms: N1_7  and  N2_8 
REMARK    3  A    between atoms: N2_8  and  C7_9 
REMARK    4  A    between atoms: N2_8  and  C13_15 
REMARK    5  A    between atoms: C14_17  and  O1_18 
ROOT
HETATM    1  N2  UNL     1      24.851   0.740  52.779  1.00  0.00    -0.210 N 
ENDROOT
BRANCH   1   2
HETATM    2  N1  UNL     1      24.415   1.426  51.663  1.00  0.00    -0.177 NA
HETATM    3  C6  UNL     1      24.282   2.694  51.659  1.00  0.00     0.150 C 
BRANCH   3   4
HETATM    4  C5  UNL     1      23.803   3.197  50.351  1.00  0.00    -0.020 A 
HETATM    5  C4  UNL     1      24.198   4.510  49.813  1.00  0.00     0.009 A 
HETATM    6  C3  UNL     1      23.637   4.755  48.616  1.00  0.00    -0.018 A 
HETATM    7  C2  UNL     1      22.795   3.579  48.257  1.00  0.00     0.027 A 
HETATM    8  C1  UNL     1      21.368   3.938  48.014  1.00  0.00     0.018 C 
HETATM    9  C16 UNL     1      23.001   2.694  49.430  1.00  0.00    -0.006 A 
ENDBRANCH   3   4
ENDBRANCH   1   2
BRANCH   1  10
HETATM   10  C7  UNL     1      23.789   0.027  53.443  1.00  0.00     0.061 A 
HETATM   11  C8  UNL     1      22.493  -0.023  52.982  1.00  0.00     0.031 A 
HETATM   12  C9  UNL     1      21.444  -0.693  53.561  1.00  0.00     0.002 A 
HETATM   13  C10 UNL     1      21.742  -1.381  54.727  1.00  0.00     0.000 A 
HETATM   14  C11 UNL     1      23.027  -1.392  55.278  1.00  0.00     0.002 A 
HETATM   15  C12 UNL     1      23.988  -0.679  54.595  1.00  0.00     0.031 A 
ENDBRANCH   1  10
BRANCH   1  16
HETATM   16  C13 UNL     1      26.174   0.613  53.385  1.00  0.00     0.196 A 
HETATM   17  N3  UNL     1      26.979   1.188  54.220  1.00  0.00    -0.198 NA
HETATM   18  C14 UNL     1      28.156   0.617  54.397  1.00  0.00     0.171 A 
HETATM   19  C15 UNL     1      28.575  -0.549  53.751  1.00  0.00     0.111 A 
HETATM   20  S1  UNL     1      27.120  -0.924  52.734  1.00  0.00    -0.058 SA
BRANCH  18  21
HETATM   21  O1  UNL     1      28.944   1.332  55.329  1.00  0.00    -0.344 OA
HETATM   22  H13 UNL     1      28.794   2.329  55.489  1.00  0.00     0.219 HD
ENDBRANCH  18  21
ENDBRANCH   1  16
TORSDOF 5
ENDMDL
MODEL 7
REMARK VINA RESULT:      -7.2      4.034      5.944
REMARK  5 active torsions:
REMARK  status: ('A' for Active; 'I' for Inactive)
REMARK    1  A    between atoms: C5_5  and  C6_6 
REMARK    2  A    between atoms: N1_7  and  N2_8 
REMARK    3  A    between atoms: N2_8  and  C7_9 
REMARK    4  A    between atoms: N2_8  and  C13_15 
REMARK    5  A    between atoms: C14_17  and  O1_18 
ROOT
HETATM    1  N2  UNL     1      24.901   3.454  50.635  1.00  0.00    -0.210 N 
ENDROOT
BRANCH   1   2
HETATM    2  N1  UNL     1      25.647   2.593  51.413  1.00  0.00    -0.177 NA
HETATM    3  C6  UNL     1      25.125   1.586  51.997  1.00  0.00     0.150 C 
BRANCH   3   4
HETATM    4  C5  UNL     1      26.124   0.815  52.771  1.00  0.00    -0.020 A 
HETATM    5  C4  UNL     1      26.298   0.975  54.225  1.00  0.00     0.009 A 
HETATM    6  C3  UNL     1      27.266   0.177  54.710  1.00  0.00    -0.018 A 
HETATM    7  C2  UNL     1      27.828  -0.601  53.571  1.00  0.00     0.027 A 
HETATM    8  C1  UNL     1      29.297  -0.403  53.400  1.00  0.00     0.018 C 
HETATM    9  C16 UNL     1      27.018  -0.098  52.434  1.00  0.00    -0.006 A 
ENDBRANCH   3   4
ENDBRANCH   1   2
BRANCH   1  10
HETATM   10  C7  UNL     1      25.719   4.360  49.868  1.00  0.00     0.061 A 
HETATM   11  C8  UNL     1      25.383   5.671  49.616  1.00  0.00     0.031 A 
HETATM   12  C9  UNL     1      26.123   6.584  48.906  1.00  0.00     0.002 A 
HETATM   13  C10 UNL     1      27.326   6.117  48.400  1.00  0.00     0.000 A 
HETATM   14  C11 UNL     1      27.757   4.801  48.600  1.00  0.00     0.002 A 
HETATM   15  C12 UNL     1      26.918   3.990  49.332  1.00  0.00     0.031 A 
ENDBRANCH   1  10
BRANCH   1  16
HETATM   16  C13 UNL     1      23.458   3.597  50.454  1.00  0.00     0.196 A 
HETATM   17  N3  UNL     1      22.392   4.045  51.034  1.00  0.00    -0.198 NA
HETATM   18  C14 UNL     1      21.253   3.885  50.386  1.00  0.00     0.171 A 
HETATM   19  C15 UNL     1      21.133   3.273  49.136  1.00  0.00     0.111 A 
HETATM   20  S1  UNL     1      22.862   2.847  48.791  1.00  0.00    -0.058 SA
BRANCH  18  21
HETATM   21  O1  UNL     1      20.163   4.415  51.116  1.00  0.00    -0.344 OA
HETATM   22  H13 UNL     1      19.213   4.073  50.965  1.00  0.00     0.219 HD
ENDBRANCH  18  21
ENDBRANCH   1  16
TORSDOF 5
ENDMDL
MODEL 8
REMARK VINA RESULT:      -6.9      2.154      2.525
REMARK  5 active torsions:
REMARK  status: ('A' for Active; 'I' for Inactive)
REMARK    1  A    between atoms: C5_5  and  C6_6 
REMARK    2  A    between atoms: N1_7  and  N2_8 
REMARK    3  A    between atoms: N2_8  and  C7_9 
REMARK    4  A    between atoms: N2_8  and  C13_15 
REMARK    5  A    between atoms: C14_17  and  O1_18 
ROOT
HETATM    1  N2  UNL     1      24.736   1.708  51.576  1.00  0.00    -0.210 N 
ENDROOT
BRANCH   1   2
HETATM    2  N1  UNL     1      23.373   1.520  51.475  1.00  0.00    -0.177 NA
HETATM    3  C6  UNL     1      22.622   1.456  52.504  1.00  0.00     0.150 C 
BRANCH   3   4
HETATM    4  C5  UNL     1      21.200   1.252  52.142  1.00  0.00    -0.020 A 
HETATM    5  C4  UNL     1      20.175   2.292  52.335  1.00  0.00     0.009 A 
HETATM    6  C3  UNL     1      18.957   1.880  51.940  1.00  0.00    -0.018 A 
HETATM    7  C2  UNL     1      19.088   0.484  51.437  1.00  0.00     0.027 A 
HETATM    8  C1  UNL     1      18.210  -0.480  52.162  1.00  0.00     0.018 C 
HETATM    9  C16 UNL     1      20.539   0.232  51.624  1.00  0.00    -0.006 A 
ENDBRANCH   3   4
ENDBRANCH   1   2
BRANCH   1  10
HETATM   10  C7  UNL     1      25.198   2.847  50.824  1.00  0.00     0.061 A 
HETATM   11  C8  UNL     1      26.355   2.857  50.081  1.00  0.00     0.031 A 
HETATM   12  C9  UNL     1      26.840   3.904  49.336  1.00  0.00     0.002 A 
HETATM   13  C10 UNL     1      26.071   5.057  49.350  1.00  0.00     0.000 A 
HETATM   14  C11 UNL     1      24.879   5.149  50.075  1.00  0.00     0.002 A 
HETATM   15  C12 UNL     1      24.507   4.024  50.779  1.00  0.00     0.031 A 
ENDBRANCH   1  10
BRANCH   1  16
HETATM   16  C13 UNL     1      25.767   0.970  52.303  1.00  0.00     0.196 A 
HETATM   17  N3  UNL     1      26.419  -0.148  52.303  1.00  0.00    -0.198 NA
HETATM   18  C14 UNL     1      27.290  -0.326  53.279  1.00  0.00     0.171 A 
HETATM   19  C15 UNL     1      27.545   0.603  54.291  1.00  0.00     0.111 A 
HETATM   20  S1  UNL     1      26.405   1.938  53.832  1.00  0.00    -0.058 SA
BRANCH  18  21
HETATM   21  O1  UNL     1      27.940  -1.578  53.173  1.00  0.00    -0.344 OA
HETATM   22  H13 UNL     1      28.516  -1.805  52.362  1.00  0.00     0.219 HD
ENDBRANCH  18  21
ENDBRANCH   1  16
TORSDOF 5
ENDMDL
MODEL 9
REMARK VINA RESULT:      -6.8      6.577     10.125
REMARK  5 active torsions:
REMARK  status: ('A' for Active; 'I' for Inactive)
REMARK    1  A    between atoms: C5_5  and  C6_6 
REMARK    2  A    between atoms: N1_7  and  N2_8 
REMARK    3  A    between atoms: N2_8  and  C7_9 
REMARK    4  A    between atoms: N2_8  and  C13_15 
REMARK    5  A    between atoms: C14_17  and  O1_18 
ROOT
HETATM    1  N2  UNL     1      28.621   6.607  48.228  1.00  0.00    -0.210 N 
ENDROOT
BRANCH   1   2
HETATM    2  N1  UNL     1      29.686   5.810  47.859  1.00  0.00    -0.177 NA
HETATM    3  C6  UNL     1      30.882   6.251  47.837  1.00  0.00     0.150 C 
BRANCH   3   4
HETATM    4  C5  UNL     1      31.848   5.211  47.411  1.00  0.00    -0.020 A 
HETATM    5  C4  UNL     1      31.433   3.851  47.030  1.00  0.00     0.009 A 
HETATM    6  C3  UNL     1      32.480   3.080  46.686  1.00  0.00    -0.018 A 
HETATM    7  C2  UNL     1      33.715   3.904  46.818  1.00  0.00     0.027 A 
HETATM    8  C1  UNL     1      34.713   3.309  47.754  1.00  0.00     0.018 C 
HETATM    9  C16 UNL     1      33.162   5.203  47.275  1.00  0.00    -0.006 A 
ENDBRANCH   3   4
ENDBRANCH   1   2
BRANCH   1  10
HETATM   10  C7  UNL     1      27.456   5.842  48.598  1.00  0.00     0.061 A 
HETATM   11  C8  UNL     1      26.178   6.349  48.610  1.00  0.00     0.031 A 
HETATM   12  C9  UNL     1      25.031   5.670  48.940  1.00  0.00     0.002 A 
HETATM   13  C10 UNL     1      25.202   4.341  49.294  1.00  0.00     0.000 A 
HETATM   14  C11 UNL     1      26.460   3.731  49.314  1.00  0.00     0.002 A 
HETATM   15  C12 UNL     1      27.527   4.527  48.960  1.00  0.00     0.031 A 
ENDBRANCH   1  10
BRANCH   1  16
HETATM   16  C13 UNL     1      28.477   8.058  48.312  1.00  0.00     0.196 A 
HETATM   17  N3  UNL     1      28.436   9.037  49.157  1.00  0.00    -0.198 NA
HETATM   18  C14 UNL     1      28.248  10.244  48.657  1.00  0.00     0.171 A 
HETATM   19  C15 UNL     1      28.095  10.523  47.297  1.00  0.00     0.111 A 
HETATM   20  S1  UNL     1      28.229   8.859  46.586  1.00  0.00    -0.058 SA
BRANCH  18  21
HETATM   21  O1  UNL     1      28.224  11.228  49.674  1.00  0.00    -0.344 OA
HETATM   22  H13 UNL     1      28.713  12.116  49.559  1.00  0.00     0.219 HD
ENDBRANCH  18  21
ENDBRANCH   1  16
TORSDOF 5
ENDMDL
