MODEL 1
REMARK VINA RESULT:      -7.9      0.000      0.000
REMARK  3 active torsions:
REMARK  status: ('A' for Active; 'I' for Inactive)
REMARK    1  A    between atoms: C11_14  and  N4_15 
REMARK    2  A    between atoms: N4_15  and  C12_16 
REMARK    3  A    between atoms: C13_17  and  C14_18 
ROOT
HETATM    1  C1  UNL     1      19.296   0.147  52.524  1.00  0.00     0.046 C 
HETATM    2  C2  UNL     1      20.432   0.749  52.710  1.00  0.00     0.068 C 
HETATM    3  C3  UNL     1      20.210   2.077  52.184  1.00  0.00     0.143 C 
HETATM    4  N1  UNL     1      19.793   3.148  51.682  1.00  0.00    -0.280 NA
HETATM    5  C4  UNL     1      20.652   4.353  51.554  1.00  0.00     0.267 C 
HETATM    6  N2  UNL     1      21.993   3.878  51.310  1.00  0.00    -0.395 N 
HETATM    7  C5  UNL     1      22.197   2.998  50.256  1.00  0.00     0.120 C 
HETATM    8  C6  UNL     1      23.386   2.124  50.346  1.00  0.00     0.047 C 
HETATM    9  C7  UNL     1      23.887   1.947  51.745  1.00  0.00     0.113 C 
HETATM   10  C8  UNL     1      24.153   3.327  52.318  1.00  0.00     0.047 C 
HETATM   11  C9  UNL     1      23.013   4.278  52.167  1.00  0.00     0.120 C 
HETATM   12  N3  UNL     1      23.067   1.135  52.485  1.00  0.00    -0.263 NA
HETATM   13  C10 UNL     1      22.987   0.272  53.322  1.00  0.00     0.193 A 
HETATM   14  C11 UNL     1      23.949  -0.459  54.097  1.00  0.00     0.176 A 
HETATM   15  N5  UNL     1      23.464  -1.331  54.905  1.00  0.00    -0.219 NA
HETATM   16  C16 UNL     1      22.045  -1.443  54.911  1.00  0.00     0.258 A 
HETATM   17  N6  UNL     1      21.305  -0.739  54.179  1.00  0.00    -0.159 NA
HETATM   18  N7  UNL     1      21.592   0.199  53.294  1.00  0.00    -0.211 N 
ENDROOT
BRANCH  14  19
HETATM   19  N4  UNL     1      25.308  -0.139  53.913  1.00  0.00    -0.348 N 
HETATM   20  H15 UNL     1      25.678   0.653  54.482  1.00  0.00     0.167 HD
BRANCH  19  21
HETATM   21  C12 UNL     1      26.020  -0.946  52.970  1.00  0.00     0.089 C 
HETATM   22  C13 UNL     1      27.144  -0.416  52.581  1.00  0.00     0.014 C 
BRANCH  22  23
HETATM   23  C14 UNL     1      27.591   0.879  53.084  1.00  0.00    -0.008 C 
HETATM   24  C15 UNL     1      28.790   1.075  53.625  1.00  0.00     0.206 C 
HETATM   25 BR1  UNL     1      29.739  -0.595  53.603  1.00  0.00    -0.193 Br
ENDBRANCH  22  23
ENDBRANCH  19  21
ENDBRANCH  14  19
TORSDOF 3
ENDMDL
MODEL 2
REMARK VINA RESULT:      -7.7      2.980      6.586
REMARK  3 active torsions:
REMARK  status: ('A' for Active; 'I' for Inactive)
REMARK    1  A    between atoms: C11_14  and  N4_15 
REMARK    2  A    between atoms: N4_15  and  C12_16 
REMARK    3  A    between atoms: C13_17  and  C14_18 
ROOT
HETATM    1  C1  UNL     1      26.677   3.326  50.354  1.00  0.00     0.046 C 
HETATM    2  C2  UNL     1      26.133   2.593  51.279  1.00  0.00     0.068 C 
HETATM    3  C3  UNL     1      27.217   2.337  52.199  1.00  0.00     0.143 C 
HETATM    4  N1  UNL     1      28.289   2.251  52.846  1.00  0.00    -0.280 NA
HETATM    5  C4  UNL     1      28.394   1.481  54.110  1.00  0.00     0.267 C 
HETATM    6  N2  UNL     1      27.499   0.355  53.982  1.00  0.00    -0.395 N 
HETATM    7  C5  UNL     1      27.637  -0.470  52.875  1.00  0.00     0.120 C 
HETATM    8  C6  UNL     1      26.440  -1.240  52.471  1.00  0.00     0.047 C 
HETATM    9  C7  UNL     1      25.159  -0.646  52.970  1.00  0.00     0.113 C 
HETATM   10  C8  UNL     1      25.268  -0.515  54.477  1.00  0.00     0.047 C 
HETATM   11  C9  UNL     1      26.509   0.173  54.941  1.00  0.00     0.120 C 
HETATM   12  N3  UNL     1      24.822   0.494  52.288  1.00  0.00    -0.263 NA
HETATM   13  C10 UNL     1      23.942   1.161  51.807  1.00  0.00     0.193 A 
HETATM   14  C11 UNL     1      22.517   1.018  51.718  1.00  0.00     0.176 A 
HETATM   15  N5  UNL     1      21.901   1.963  51.103  1.00  0.00    -0.219 NA
HETATM   16  C16 UNL     1      22.724   3.010  50.603  1.00  0.00     0.258 A 
HETATM   17  N6  UNL     1      23.973   3.022  50.747  1.00  0.00    -0.159 NA
HETATM   18  N7  UNL     1      24.790   2.167  51.335  1.00  0.00    -0.211 N 
ENDROOT
BRANCH  14  19
HETATM   19  N4  UNL     1      21.940  -0.117  52.320  1.00  0.00    -0.348 N 
HETATM   20  H15 UNL     1      21.995  -1.006  51.777  1.00  0.00     0.167 HD
BRANCH  19  21
HETATM   21  C12 UNL     1      21.354   0.087  53.609  1.00  0.00     0.089 C 
HETATM   22  C13 UNL     1      20.060   0.226  53.571  1.00  0.00     0.014 C 
BRANCH  22  23
HETATM   23  C14 UNL     1      19.323   0.174  52.314  1.00  0.00    -0.008 C 
HETATM   24  C15 UNL     1      18.332  -0.683  52.084  1.00  0.00     0.206 C 
HETATM   25 BR1  UNL     1      18.097  -1.763  53.657  1.00  0.00    -0.193 Br
ENDBRANCH  22  23
ENDBRANCH  19  21
ENDBRANCH  14  19
TORSDOF 3
ENDMDL
MODEL 3
REMARK VINA RESULT:      -7.5      2.244      5.208
REMARK  3 active torsions:
REMARK  status: ('A' for Active; 'I' for Inactive)
REMARK    1  A    between atoms: C11_14  and  N4_15 
REMARK    2  A    between atoms: N4_15  and  C12_16 
REMARK    3  A    between atoms: C13_17  and  C14_18 
ROOT
HETATM    1  C1  UNL     1      22.651  -1.218  54.716  1.00  0.00     0.046 C 
HETATM    2  C2  UNL     1      23.206  -0.496  53.789  1.00  0.00     0.068 C 
HETATM    3  C3  UNL     1      24.616  -0.774  53.931  1.00  0.00     0.143 C 
HETATM    4  N1  UNL     1      25.770  -1.163  54.236  1.00  0.00    -0.280 NA
HETATM    5  C4  UNL     1      26.982  -0.682  53.526  1.00  0.00     0.267 C 
HETATM    6  N2  UNL     1      26.723   0.687  53.150  1.00  0.00    -0.395 N 
HETATM    7  C5  UNL     1      26.331   1.577  54.139  1.00  0.00     0.120 C 
HETATM    8  C6  UNL     1      25.567   2.763  53.696  1.00  0.00     0.047 C 
HETATM    9  C7  UNL     1      24.897   2.574  52.371  1.00  0.00     0.113 C 
HETATM   10  C8  UNL     1      25.965   2.180  51.367  1.00  0.00     0.047 C 
HETATM   11  C9  UNL     1      26.827   1.045  51.809  1.00  0.00     0.120 C 
HETATM   12  N3  UNL     1      23.813   1.739  52.457  1.00  0.00    -0.263 NA
HETATM   13  C10 UNL     1      22.692   1.498  52.089  1.00  0.00     0.193 A 
HETATM   14  C11 UNL     1      21.782   2.133  51.179  1.00  0.00     0.176 A 
HETATM   15  N5  UNL     1      20.637   1.565  51.052  1.00  0.00    -0.219 NA
HETATM   16  C16 UNL     1      20.442   0.391  51.831  1.00  0.00     0.258 A 
HETATM   17  N6  UNL     1      21.326  -0.071  52.598  1.00  0.00    -0.159 NA
HETATM   18  N7  UNL     1      22.547   0.350  52.872  1.00  0.00    -0.211 N 
ENDROOT
BRANCH  14  19
HETATM   19  N4  UNL     1      22.233   3.288  50.511  1.00  0.00    -0.348 N 
HETATM   20  H15 UNL     1      21.993   4.202  50.955  1.00  0.00     0.167 HD
BRANCH  19  21
HETATM   21  C12 UNL     1      22.974   3.068  49.307  1.00  0.00     0.089 C 
HETATM   22  C13 UNL     1      23.805   4.030  49.030  1.00  0.00     0.014 C 
BRANCH  22  23
HETATM   23  C14 UNL     1      23.934   5.200  49.892  1.00  0.00    -0.008 C 
HETATM   24  C15 UNL     1      25.084   5.836  50.092  1.00  0.00     0.206 C 
HETATM   25 BR1  UNL     1      26.447   4.943  49.073  1.00  0.00    -0.193 Br
ENDBRANCH  22  23
ENDBRANCH  19  21
ENDBRANCH  14  19
TORSDOF 3
ENDMDL
MODEL 4
REMARK VINA RESULT:      -7.4      2.439      5.471
REMARK  3 active torsions:
REMARK  status: ('A' for Active; 'I' for Inactive)
REMARK    1  A    between atoms: C11_14  and  N4_15 
REMARK    2  A    between atoms: N4_15  and  C12_16 
REMARK    3  A    between atoms: C13_17  and  C14_18 
ROOT
HETATM    1  C1  UNL     1      24.394  -1.472  56.087  1.00  0.00     0.046 C 
HETATM    2  C2  UNL     1      24.243  -0.875  54.942  1.00  0.00     0.068 C 
HETATM    3  C3  UNL     1      25.596  -0.599  54.515  1.00  0.00     0.143 C 
HETATM    4  N1  UNL     1      26.833  -0.469  54.352  1.00  0.00    -0.280 NA
HETATM    5  C4  UNL     1      27.410   0.196  53.156  1.00  0.00     0.267 C 
HETATM    6  N2  UNL     1      26.486   1.240  52.780  1.00  0.00    -0.395 N 
HETATM    7  C5  UNL     1      26.114   2.166  53.743  1.00  0.00     0.120 C 
HETATM    8  C6  UNL     1      24.821   2.852  53.535  1.00  0.00     0.047 C 
HETATM    9  C7  UNL     1      23.890   2.100  52.636  1.00  0.00     0.113 C 
HETATM   10  C8  UNL     1      24.616   1.850  51.327  1.00  0.00     0.047 C 
HETATM   11  C9  UNL     1      25.970   1.244  51.488  1.00  0.00     0.120 C 
HETATM   12  N3  UNL     1      23.360   0.996  53.252  1.00  0.00    -0.263 NA
HETATM   13  C10 UNL     1      22.395   0.293  53.410  1.00  0.00     0.193 A 
HETATM   14  C11 UNL     1      21.054   0.309  52.899  1.00  0.00     0.176 A 
HETATM   15  N5  UNL     1      20.288  -0.633  53.319  1.00  0.00    -0.219 NA
HETATM   16  C16 UNL     1      20.883  -1.551  54.228  1.00  0.00     0.258 A 
HETATM   17  N6  UNL     1      22.080  -1.458  54.603  1.00  0.00    -0.159 NA
HETATM   18  N7  UNL     1      23.023  -0.584  54.299  1.00  0.00    -0.211 N 
ENDROOT
BRANCH  14  19
HETATM   19  N4  UNL     1      20.719   1.328  51.987  1.00  0.00    -0.348 N 
HETATM   20  H15 UNL     1      20.856   1.107  50.976  1.00  0.00     0.167 HD
BRANCH  19  21
HETATM   21  C12 UNL     1      20.225   2.544  52.557  1.00  0.00     0.089 C 
HETATM   22  C13 UNL     1      20.413   3.584  51.798  1.00  0.00     0.014 C 
BRANCH  22  23
HETATM   23  C14 UNL     1      21.071   3.473  50.500  1.00  0.00    -0.008 C 
HETATM   24  C15 UNL     1      22.062   4.271  50.115  1.00  0.00     0.206 C 
HETATM   25 BR1  UNL     1      22.417   5.515  51.536  1.00  0.00    -0.193 Br
ENDBRANCH  22  23
ENDBRANCH  19  21
ENDBRANCH  14  19
TORSDOF 3
ENDMDL
MODEL 5
REMARK VINA RESULT:      -7.4      2.792      3.979
REMARK  3 active torsions:
REMARK  status: ('A' for Active; 'I' for Inactive)
REMARK    1  A    between atoms: C11_14  and  N4_15 
REMARK    2  A    between atoms: N4_15  and  C12_16 
REMARK    3  A    between atoms: C13_17  and  C14_18 
ROOT
HETATM    1  C1  UNL     1      22.337  -1.373  53.199  1.00  0.00     0.046 C 
HETATM    2  C2  UNL     1      22.466  -0.137  52.820  1.00  0.00     0.068 C 
HETATM    3  C3  UNL     1      21.116   0.271  52.506  1.00  0.00     0.143 C 
HETATM    4  N1  UNL     1      19.884   0.399  52.301  1.00  0.00    -0.280 NA
HETATM    5  C4  UNL     1      19.291   1.665  51.801  1.00  0.00     0.267 C 
HETATM    6  N2  UNL     1      20.268   2.258  50.919  1.00  0.00    -0.395 N 
HETATM    7  C5  UNL     1      20.765   1.488  49.877  1.00  0.00     0.120 C 
HETATM    8  C6  UNL     1      22.093   1.868  49.350  1.00  0.00     0.047 C 
HETATM    9  C7  UNL     1      22.909   2.664  50.320  1.00  0.00     0.113 C 
HETATM   10  C8  UNL     1      22.091   3.876  50.725  1.00  0.00     0.047 C 
HETATM   11  C9  UNL     1      20.706   3.552  51.177  1.00  0.00     0.120 C 
HETATM   12  N3  UNL     1      23.389   1.890  51.344  1.00  0.00    -0.263 NA
HETATM   13  C10 UNL     1      24.305   1.655  52.089  1.00  0.00     0.193 A 
HETATM   14  C11 UNL     1      25.611   2.221  52.275  1.00  0.00     0.176 A 
HETATM   15  N5  UNL     1      26.326   1.678  53.193  1.00  0.00    -0.219 NA
HETATM   16  C16 UNL     1      25.717   0.598  53.890  1.00  0.00     0.258 A 
HETATM   17  N6  UNL     1      24.555   0.192  53.633  1.00  0.00    -0.159 NA
HETATM   18  N7  UNL     1      23.666   0.601  52.747  1.00  0.00    -0.211 N 
ENDROOT
BRANCH  14  19
HETATM   19  N4  UNL     1      25.968   3.310  51.457  1.00  0.00    -0.348 N 
HETATM   20  H15 UNL     1      25.717   4.258  51.813  1.00  0.00     0.167 HD
BRANCH  19  21
HETATM   21  C12 UNL     1      26.642   2.985  50.237  1.00  0.00     0.089 C 
HETATM   22  C13 UNL     1      26.524   3.903  49.322  1.00  0.00     0.014 C 
BRANCH  22  23
HETATM   23  C14 UNL     1      25.769   5.128  49.562  1.00  0.00    -0.008 C 
HETATM   24  C15 UNL     1      26.193   6.331  49.189  1.00  0.00     0.206 C 
HETATM   25 BR1  UNL     1      27.898   6.125  48.326  1.00  0.00    -0.193 Br
ENDBRANCH  22  23
ENDBRANCH  19  21
ENDBRANCH  14  19
TORSDOF 3
ENDMDL
MODEL 6
REMARK VINA RESULT:      -7.4      3.120      5.656
REMARK  3 active torsions:
REMARK  status: ('A' for Active; 'I' for Inactive)
REMARK    1  A    between atoms: C11_14  and  N4_15 
REMARK    2  A    between atoms: N4_15  and  C12_16 
REMARK    3  A    between atoms: C13_17  and  C14_18 
ROOT
HETATM    1  C1  UNL     1      27.659   1.885  53.101  1.00  0.00     0.046 C 
HETATM    2  C2  UNL     1      26.469   1.791  52.586  1.00  0.00     0.068 C 
HETATM    3  C3  UNL     1      26.552   2.579  51.378  1.00  0.00     0.143 C 
HETATM    4  N1  UNL     1      26.855   3.300  50.396  1.00  0.00    -0.280 NA
HETATM    5  C4  UNL     1      25.878   3.641  49.331  1.00  0.00     0.267 C 
HETATM    6  N2  UNL     1      24.588   3.745  49.973  1.00  0.00    -0.395 N 
HETATM    7  C5  UNL     1      24.464   4.594  51.064  1.00  0.00     0.120 C 
HETATM    8  C6  UNL     1      23.370   4.295  52.012  1.00  0.00     0.047 C 
HETATM    9  C7  UNL     1      22.903   2.874  51.949  1.00  0.00     0.113 C 
HETATM   10  C8  UNL     1      22.505   2.584  50.514  1.00  0.00     0.047 C 
HETATM   11  C9  UNL     1      23.542   2.956  49.507  1.00  0.00     0.120 C 
HETATM   12  N3  UNL     1      23.807   2.011  52.511  1.00  0.00    -0.263 NA
HETATM   13  C10 UNL     1      23.981   1.020  53.173  1.00  0.00     0.193 A 
HETATM   14  C11 UNL     1      23.105   0.086  53.820  1.00  0.00     0.176 A 
HETATM   15  N5  UNL     1      23.683  -0.867  54.459  1.00  0.00    -0.219 NA
HETATM   16  C16 UNL     1      25.105  -0.854  54.430  1.00  0.00     0.258 A 
HETATM   17  N6  UNL     1      25.764   0.027  53.821  1.00  0.00    -0.159 NA
HETATM   18  N7  UNL     1      25.376   1.074  53.116  1.00  0.00    -0.211 N 
ENDROOT
BRANCH  14  19
HETATM   19  N4  UNL     1      21.719   0.290  53.678  1.00  0.00    -0.348 N 
HETATM   20  H15 UNL     1      21.428   1.186  53.229  1.00  0.00     0.167 HD
BRANCH  19  21
HETATM   21  C12 UNL     1      20.876  -0.761  54.159  1.00  0.00     0.089 C 
HETATM   22  C13 UNL     1      19.776  -0.894  53.475  1.00  0.00     0.014 C 
BRANCH  22  23
HETATM   23  C14 UNL     1      19.474  -0.031  52.338  1.00  0.00    -0.008 C 
HETATM   24  C15 UNL     1      18.275   0.030  51.767  1.00  0.00     0.206 C 
HETATM   25 BR1  UNL     1      17.107  -1.179  52.697  1.00  0.00    -0.193 Br
ENDBRANCH  22  23
ENDBRANCH  19  21
ENDBRANCH  14  19
TORSDOF 3
ENDMDL
MODEL 7
REMARK VINA RESULT:      -7.3      3.397      5.056
REMARK  3 active torsions:
REMARK  status: ('A' for Active; 'I' for Inactive)
REMARK    1  A    between atoms: C11_14  and  N4_15 
REMARK    2  A    between atoms: N4_15  and  C12_16 
REMARK    3  A    between atoms: C13_17  and  C14_18 
ROOT
HETATM    1  C1  UNL     1      24.439  -0.645  53.922  1.00  0.00     0.046 C 
HETATM    2  C2  UNL     1      24.104   0.402  53.229  1.00  0.00     0.068 C 
HETATM    3  C3  UNL     1      22.678   0.511  53.435  1.00  0.00     0.143 C 
HETATM    4  N1  UNL     1      21.468   0.409  53.753  1.00  0.00    -0.280 NA
HETATM    5  C4  UNL     1      20.435   1.353  53.258  1.00  0.00     0.267 C 
HETATM    6  N2  UNL     1      20.833   1.738  51.925  1.00  0.00    -0.395 N 
HETATM    7  C5  UNL     1      21.086   0.735  51.000  1.00  0.00     0.120 C 
HETATM    8  C6  UNL     1      21.982   1.083  49.877  1.00  0.00     0.047 C 
HETATM    9  C7  UNL     1      22.872   2.250  50.170  1.00  0.00     0.113 C 
HETATM   10  C8  UNL     1      21.987   3.416  50.570  1.00  0.00     0.047 C 
HETATM   11  C9  UNL     1      20.997   3.089  51.638  1.00  0.00     0.120 C 
HETATM   12  N3  UNL     1      23.875   1.925  51.046  1.00  0.00    -0.263 NA
HETATM   13  C10 UNL     1      25.029   2.067  51.358  1.00  0.00     0.193 A 
HETATM   14  C11 UNL     1      26.124   2.820  50.817  1.00  0.00     0.176 A 
HETATM   15  N5  UNL     1      27.240   2.706  51.443  1.00  0.00    -0.219 NA
HETATM   16  C16 UNL     1      27.224   1.850  52.579  1.00  0.00     0.258 A 
HETATM   17  N6  UNL     1      26.191   1.240  52.957  1.00  0.00    -0.159 NA
HETATM   18  N7  UNL     1      24.965   1.218  52.467  1.00  0.00    -0.211 N 
ENDROOT
BRANCH  14  19
HETATM   19  N4  UNL     1      25.868   3.613  49.682  1.00  0.00    -0.348 N 
HETATM   20  H15 UNL     1      25.985   3.147  48.756  1.00  0.00     0.167 HD
BRANCH  19  21
HETATM   21  C12 UNL     1      25.468   4.963  49.937  1.00  0.00     0.089 C 
HETATM   22  C13 UNL     1      26.236   5.845  49.365  1.00  0.00     0.014 C 
BRANCH  22  23
HETATM   23  C14 UNL     1      27.381   5.449  48.553  1.00  0.00    -0.008 C 
HETATM   24  C15 UNL     1      28.261   6.316  48.061  1.00  0.00     0.206 C 
HETATM   25 BR1  UNL     1      27.735   8.081  48.610  1.00  0.00    -0.193 Br
ENDBRANCH  22  23
ENDBRANCH  19  21
ENDBRANCH  14  19
TORSDOF 3
ENDMDL
MODEL 8
REMARK VINA RESULT:      -7.1      3.198      5.450
REMARK  3 active torsions:
REMARK  status: ('A' for Active; 'I' for Inactive)
REMARK    1  A    between atoms: C11_14  and  N4_15 
REMARK    2  A    between atoms: N4_15  and  C12_16 
REMARK    3  A    between atoms: C13_17  and  C14_18 
ROOT
HETATM    1  C1  UNL     1      24.857  -0.784  53.734  1.00  0.00     0.046 C 
HETATM    2  C2  UNL     1      24.339   0.257  53.152  1.00  0.00     0.068 C 
HETATM    3  C3  UNL     1      22.950   0.218  53.547  1.00  0.00     0.143 C 
HETATM    4  N1  UNL     1      21.808  -0.015  54.013  1.00  0.00    -0.280 NA
HETATM    5  C4  UNL     1      20.637   0.846  53.712  1.00  0.00     0.267 C 
HETATM    6  N2  UNL     1      20.817   1.328  52.362  1.00  0.00    -0.395 N 
HETATM    7  C5  UNL     1      21.031   0.398  51.356  1.00  0.00     0.120 C 
HETATM    8  C6  UNL     1      21.734   0.881  50.148  1.00  0.00     0.047 C 
HETATM    9  C7  UNL     1      22.546   2.115  50.390  1.00  0.00     0.113 C 
HETATM   10  C8  UNL     1      21.622   3.170  50.969  1.00  0.00     0.047 C 
HETATM   11  C9  UNL     1      20.818   2.701  52.136  1.00  0.00     0.120 C 
HETATM   12  N3  UNL     1      23.683   1.849  51.109  1.00  0.00    -0.263 NA
HETATM   13  C10 UNL     1      24.851   2.087  51.277  1.00  0.00     0.193 A 
HETATM   14  C11 UNL     1      25.792   2.967  50.643  1.00  0.00     0.176 A 
HETATM   15  N5  UNL     1      26.987   2.933  51.112  1.00  0.00    -0.219 NA
HETATM   16  C16 UNL     1      27.201   2.028  52.189  1.00  0.00     0.258 A 
HETATM   17  N6  UNL     1      26.287   1.305  52.661  1.00  0.00    -0.159 NA
HETATM   18  N7  UNL     1      25.013   1.186  52.333  1.00  0.00    -0.211 N 
ENDROOT
BRANCH  14  19
HETATM   19  N4  UNL     1      25.315   3.782  49.599  1.00  0.00    -0.348 N 
HETATM   20  H15 UNL     1      24.489   3.423  49.072  1.00  0.00     0.167 HD
BRANCH  19  21
HETATM   21  C12 UNL     1      26.016   5.012  49.392  1.00  0.00     0.089 C 
HETATM   22  C13 UNL     1      25.253   5.975  48.960  1.00  0.00     0.014 C 
BRANCH  22  23
HETATM   23  C14 UNL     1      23.828   5.772  48.724  1.00  0.00    -0.008 C 
HETATM   24  C15 UNL     1      22.882   6.499  49.310  1.00  0.00     0.206 C 
HETATM   25 BR1  UNL     1      23.736   7.784  50.455  1.00  0.00    -0.193 Br
ENDBRANCH  22  23
ENDBRANCH  19  21
ENDBRANCH  14  19
TORSDOF 3
ENDMDL
MODEL 9
REMARK VINA RESULT:      -6.9      9.497     12.436
REMARK  3 active torsions:
REMARK  status: ('A' for Active; 'I' for Inactive)
REMARK    1  A    between atoms: C11_14  and  N4_15 
REMARK    2  A    between atoms: N4_15  and  C12_16 
REMARK    3  A    between atoms: C13_17  and  C14_18 
ROOT
HETATM    1  C1  UNL     1      32.824  10.991  46.751  1.00  0.00     0.046 C 
HETATM    2  C2  UNL     1      32.433   9.971  47.455  1.00  0.00     0.068 C 
HETATM    3  C3  UNL     1      33.602   9.124  47.515  1.00  0.00     0.143 C 
HETATM    4  N1  UNL     1      34.723   8.564  47.436  1.00  0.00    -0.280 NA
HETATM    5  C4  UNL     1      34.996   7.245  48.059  1.00  0.00     0.267 C 
HETATM    6  N2  UNL     1      33.769   6.489  47.977  1.00  0.00    -0.395 N 
HETATM    7  C5  UNL     1      33.166   6.346  46.735  1.00  0.00     0.120 C 
HETATM    8  C6  UNL     1      31.713   6.076  46.733  1.00  0.00     0.047 C 
HETATM    9  C7  UNL     1      31.030   6.501  47.996  1.00  0.00     0.113 C 
HETATM   10  C8  UNL     1      31.732   5.816  49.153  1.00  0.00     0.047 C 
HETATM   11  C9  UNL     1      33.216   5.980  49.148  1.00  0.00     0.120 C 
HETATM   12  N3  UNL     1      30.914   7.865  48.083  1.00  0.00    -0.263 NA
HETATM   13  C10 UNL     1      30.235   8.801  48.418  1.00  0.00     0.193 A 
HETATM   14  C11 UNL     1      28.936   8.930  49.015  1.00  0.00     0.176 A 
HETATM   15  N5  UNL     1      28.535  10.132  49.220  1.00  0.00    -0.219 NA
HETATM   16  C16 UNL     1      29.438  11.158  48.823  1.00  0.00     0.258 A 
HETATM   17  N6  UNL     1      30.558  10.915  48.306  1.00  0.00    -0.159 NA
HETATM   18  N7  UNL     1      31.153   9.774  48.014  1.00  0.00    -0.211 N 
ENDROOT
BRANCH  14  19
HETATM   19  N4  UNL     1      28.247   7.743  49.332  1.00  0.00    -0.348 N 
HETATM   20  H15 UNL     1      28.778   7.033  49.883  1.00  0.00     0.167 HD
BRANCH  19  21
HETATM   21  C12 UNL     1      26.897   7.657  48.866  1.00  0.00     0.089 C 
HETATM   22  C13 UNL     1      26.552   6.454  48.507  1.00  0.00     0.014 C 
BRANCH  22  23
HETATM   23  C14 UNL     1      27.484   5.335  48.588  1.00  0.00    -0.008 C 
HETATM   24  C15 UNL     1      27.162   4.155  49.109  1.00  0.00     0.206 C 
HETATM   25 BR1  UNL     1      25.332   4.235  49.691  1.00  0.00    -0.193 Br
ENDBRANCH  22  23
ENDBRANCH  19  21
ENDBRANCH  14  19
TORSDOF 3
ENDMDL
