MODEL 1
REMARK VINA RESULT:      -8.2      0.000      0.000
REMARK  6 active torsions:
REMARK  status: ('A' for Active; 'I' for Inactive)
REMARK    1  A    between atoms: C1_2  and  C2_3 
REMARK       I    between atoms: C1_2  and  N1_12 
REMARK    2  A    between atoms: C2_3  and  C3_4 
REMARK    3  A    between atoms: C6_7  and  C7_8 
REMARK    4  A    between atoms: C7_8  and  O2_9 
REMARK    5  A    between atoms: N1_12  and  S1_13 
REMARK    6  A    between atoms: S1_13  and  C10_16 
ROOT
HETATM    1  O1  UNL     1      26.493   2.031  51.400  1.00  0.00    -0.272 OA
HETATM    2  C1  UNL     1      26.044   2.299  52.548  1.00  0.00     0.235 C 
HETATM    3  N1  UNL     1      26.612   2.235  53.853  1.00  0.00    -0.250 N 
HETATM    4  H10 UNL     1      25.963   2.531  54.606  1.00  0.00     0.181 HD
ENDROOT
BRANCH   2   5
HETATM    5  C2  UNL     1      24.635   2.759  52.309  1.00  0.00     0.142 C 
BRANCH   5   6
HETATM    6  C3  UNL     1      23.752   1.656  52.835  1.00  0.00    -0.049 A 
HETATM    7  C4  UNL     1      24.288   0.522  53.407  1.00  0.00     0.008 A 
HETATM    8  C5  UNL     1      23.412  -0.451  53.870  1.00  0.00     0.010 A 
HETATM    9  C6  UNL     1      22.051  -0.263  53.748  1.00  0.00    -0.035 A 
HETATM   10  C8  UNL     1      21.514   0.884  53.171  1.00  0.00     0.010 A 
HETATM   11  C9  UNL     1      22.392   1.855  52.709  1.00  0.00     0.008 A 
BRANCH   9  12
HETATM   12  C7  UNL     1      21.065  -1.260  54.221  1.00  0.00     0.202 C 
BRANCH  12  13
HETATM   13  O2  UNL     1      21.689  -2.125  55.116  1.00  0.00    -0.396 OA
HETATM   14  H7  UNL     1      22.626  -1.786  55.282  1.00  0.00     0.209 HD
ENDBRANCH  12  13
ENDBRANCH   9  12
ENDBRANCH   5   6
ENDBRANCH   2   5
BRANCH   3  15
HETATM   15  S1  UNL     1      28.240   1.672  53.804  1.00  0.00     0.265 S 
HETATM   16  O3  UNL     1      28.811   1.871  55.192  1.00  0.00    -0.200 OA
HETATM   17  O4  UNL     1      28.965   2.499  52.778  1.00  0.00    -0.200 OA
BRANCH  15  18
HETATM   18  C10 UNL     1      28.336  -0.025  53.452  1.00  0.00     0.079 A 
HETATM   19  C11 UNL     1      27.272  -0.770  52.980  1.00  0.00     0.025 A 
HETATM   20  C12 UNL     1      27.300  -2.116  52.687  1.00  0.00     0.002 A 
HETATM   21  C13 UNL     1      28.520  -2.727  52.900  1.00  0.00     0.000 A 
HETATM   22  C14 UNL     1      29.612  -2.017  53.371  1.00  0.00     0.002 A 
HETATM   23  C15 UNL     1      29.541  -0.670  53.652  1.00  0.00     0.025 A 
ENDBRANCH  15  18
ENDBRANCH   3  15
TORSDOF 6
ENDMDL
MODEL 2
REMARK VINA RESULT:      -8.1      2.915      6.208
REMARK  6 active torsions:
REMARK  status: ('A' for Active; 'I' for Inactive)
REMARK    1  A    between atoms: C1_2  and  C2_3 
REMARK       I    between atoms: C1_2  and  N1_12 
REMARK    2  A    between atoms: C2_3  and  C3_4 
REMARK    3  A    between atoms: C6_7  and  C7_8 
REMARK    4  A    between atoms: C7_8  and  O2_9 
REMARK    5  A    between atoms: N1_12  and  S1_13 
REMARK    6  A    between atoms: S1_13  and  C10_16 
ROOT
HETATM    1  O1  UNL     1      22.695   1.131  53.351  1.00  0.00    -0.272 OA
HETATM    2  C1  UNL     1      23.824   0.846  52.866  1.00  0.00     0.235 C 
HETATM    3  N1  UNL     1      24.682   1.512  51.944  1.00  0.00    -0.250 N 
HETATM    4  H10 UNL     1      25.563   0.999  51.748  1.00  0.00     0.181 HD
ENDROOT
BRANCH   2   5
HETATM    5  C2  UNL     1      24.182  -0.474  53.485  1.00  0.00     0.142 C 
BRANCH   5   6
HETATM    6  C3  UNL     1      25.684  -0.469  53.613  1.00  0.00    -0.049 A 
HETATM    7  C4  UNL     1      26.319   0.299  54.566  1.00  0.00     0.008 A 
HETATM    8  C5  UNL     1      27.705   0.252  54.623  1.00  0.00     0.010 A 
HETATM    9  C6  UNL     1      28.402  -0.547  53.741  1.00  0.00    -0.035 A 
HETATM   10  C8  UNL     1      27.758  -1.321  52.781  1.00  0.00     0.010 A 
HETATM   11  C9  UNL     1      26.372  -1.273  52.726  1.00  0.00     0.008 A 
BRANCH   9  12
HETATM   12  C7  UNL     1      29.879  -0.642  53.750  1.00  0.00     0.202 C 
BRANCH  12  13
HETATM   13  O2  UNL     1      30.414   0.588  53.376  1.00  0.00    -0.396 OA
HETATM   14  H7  UNL     1      30.044   0.831  52.468  1.00  0.00     0.209 HD
ENDBRANCH  12  13
ENDBRANCH   9  12
ENDBRANCH   5   6
ENDBRANCH   2   5
BRANCH   3  15
HETATM   15  S1  UNL     1      23.998   3.002  51.411  1.00  0.00     0.265 S 
HETATM   16  O3  UNL     1      23.727   3.825  52.653  1.00  0.00    -0.200 OA
HETATM   17  O4  UNL     1      22.730   2.669  50.674  1.00  0.00    -0.200 OA
BRANCH  15  18
HETATM   18  C10 UNL     1      25.100   3.912  50.425  1.00  0.00     0.079 A 
HETATM   19  C11 UNL     1      24.911   5.240  50.095  1.00  0.00     0.025 A 
HETATM   20  C12 UNL     1      25.756   6.003  49.318  1.00  0.00     0.002 A 
HETATM   21  C13 UNL     1      26.872   5.335  48.854  1.00  0.00     0.000 A 
HETATM   22  C14 UNL     1      27.099   4.004  49.162  1.00  0.00     0.002 A 
HETATM   23  C15 UNL     1      26.228   3.277  49.944  1.00  0.00     0.025 A 
ENDBRANCH  15  18
ENDBRANCH   3  15
TORSDOF 6
ENDMDL
MODEL 3
REMARK VINA RESULT:      -8.1      3.234      5.508
REMARK  6 active torsions:
REMARK  status: ('A' for Active; 'I' for Inactive)
REMARK    1  A    between atoms: C1_2  and  C2_3 
REMARK       I    between atoms: C1_2  and  N1_12 
REMARK    2  A    between atoms: C2_3  and  C3_4 
REMARK    3  A    between atoms: C6_7  and  C7_8 
REMARK    4  A    between atoms: C7_8  and  O2_9 
REMARK    5  A    between atoms: N1_12  and  S1_13 
REMARK    6  A    between atoms: S1_13  and  C10_16 
ROOT
HETATM    1  O1  UNL     1      24.755   1.854  51.930  1.00  0.00    -0.272 OA
HETATM    2  C1  UNL     1      25.702   2.475  51.375  1.00  0.00     0.235 C 
HETATM    3  N1  UNL     1      27.051   2.731  51.756  1.00  0.00    -0.250 N 
HETATM    4  H10 UNL     1      27.584   3.287  51.059  1.00  0.00     0.181 HD
ENDROOT
BRANCH   2   5
HETATM    5  C2  UNL     1      25.127   2.973  50.080  1.00  0.00     0.142 C 
BRANCH   5   6
HETATM    6  C3  UNL     1      25.333   4.466  50.090  1.00  0.00    -0.049 A 
HETATM    7  C4  UNL     1      24.584   5.286  50.907  1.00  0.00     0.008 A 
HETATM    8  C5  UNL     1      24.832   6.652  50.861  1.00  0.00     0.010 A 
HETATM    9  C6  UNL     1      25.802   7.147  50.015  1.00  0.00    -0.035 A 
HETATM   10  C8  UNL     1      26.556   6.315  49.193  1.00  0.00     0.010 A 
HETATM   11  C9  UNL     1      26.307   4.950  49.240  1.00  0.00     0.008 A 
BRANCH   9  12
HETATM   12  C7  UNL     1      26.114   8.590  49.919  1.00  0.00     0.202 C 
BRANCH  12  13
HETATM   13  O2  UNL     1      27.121   8.897  50.831  1.00  0.00    -0.396 OA
HETATM   14  H7  UNL     1      27.211   9.902  50.876  1.00  0.00     0.209 HD
ENDBRANCH  12  13
ENDBRANCH   9  12
ENDBRANCH   5   6
ENDBRANCH   2   5
BRANCH   3  15
HETATM   15  S1  UNL     1      27.415   2.033  53.289  1.00  0.00     0.265 S 
HETATM   16  O3  UNL     1      26.163   2.156  54.131  1.00  0.00    -0.200 OA
HETATM   17  O4  UNL     1      28.559   2.816  53.872  1.00  0.00    -0.200 OA
BRANCH  15  18
HETATM   18  C10 UNL     1      27.785   0.341  53.167  1.00  0.00     0.079 A 
HETATM   19  C11 UNL     1      26.888  -0.606  52.714  1.00  0.00     0.025 A 
HETATM   20  C12 UNL     1      27.135  -1.958  52.600  1.00  0.00     0.002 A 
HETATM   21  C13 UNL     1      28.403  -2.346  52.985  1.00  0.00     0.000 A 
HETATM   22  C14 UNL     1      29.332  -1.428  53.445  1.00  0.00     0.002 A 
HETATM   23  C15 UNL     1      29.044  -0.084  53.543  1.00  0.00     0.025 A 
ENDBRANCH  15  18
ENDBRANCH   3  15
TORSDOF 6
ENDMDL
MODEL 4
REMARK VINA RESULT:      -8.1      2.652      5.995
REMARK  6 active torsions:
REMARK  status: ('A' for Active; 'I' for Inactive)
REMARK    1  A    between atoms: C1_2  and  C2_3 
REMARK       I    between atoms: C1_2  and  N1_12 
REMARK    2  A    between atoms: C2_3  and  C3_4 
REMARK    3  A    between atoms: C6_7  and  C7_8 
REMARK    4  A    between atoms: C7_8  and  O2_9 
REMARK    5  A    between atoms: N1_12  and  S1_13 
REMARK    6  A    between atoms: S1_13  and  C10_16 
ROOT
HETATM    1  O1  UNL     1      24.658   2.845  53.345  1.00  0.00    -0.272 OA
HETATM    2  C1  UNL     1      25.065   2.435  52.224  1.00  0.00     0.235 C 
HETATM    3  N1  UNL     1      24.400   1.881  51.092  1.00  0.00    -0.250 N 
HETATM    4  H10 UNL     1      25.038   1.640  50.309  1.00  0.00     0.181 HD
ENDROOT
BRANCH   2   5
HETATM    5  C2  UNL     1      26.551   2.643  52.257  1.00  0.00     0.142 C 
BRANCH   5   6
HETATM    6  C3  UNL     1      27.146   1.287  52.540  1.00  0.00    -0.049 A 
HETATM    7  C4  UNL     1      26.492   0.129  52.177  1.00  0.00     0.008 A 
HETATM    8  C5  UNL     1      27.103  -1.083  52.470  1.00  0.00     0.010 A 
HETATM    9  C6  UNL     1      28.326  -1.100  53.106  1.00  0.00    -0.035 A 
HETATM   10  C8  UNL     1      28.983   0.071  53.471  1.00  0.00     0.010 A 
HETATM   11  C9  UNL     1      28.371   1.282  53.177  1.00  0.00     0.008 A 
BRANCH   9  12
HETATM   12  C7  UNL     1      29.029  -2.357  53.447  1.00  0.00     0.202 C 
BRANCH  12  13
HETATM   13  O2  UNL     1      28.368  -3.423  52.842  1.00  0.00    -0.396 OA
HETATM   14  H7  UNL     1      27.580  -3.056  52.327  1.00  0.00     0.209 HD
ENDBRANCH  12  13
ENDBRANCH   9  12
ENDBRANCH   5   6
ENDBRANCH   2   5
BRANCH   3  15
HETATM   15  S1  UNL     1      22.700   1.767  51.353  1.00  0.00     0.265 S 
HETATM   16  O3  UNL     1      22.116   1.095  50.128  1.00  0.00    -0.200 OA
HETATM   17  O4  UNL     1      22.183   3.168  51.521  1.00  0.00    -0.200 OA
BRANCH  15  18
HETATM   18  C10 UNL     1      22.313   0.766  52.718  1.00  0.00     0.079 A 
HETATM   19  C11 UNL     1      23.105  -0.282  53.146  1.00  0.00     0.025 A 
HETATM   20  C12 UNL     1      22.840  -1.102  54.222  1.00  0.00     0.002 A 
HETATM   21  C13 UNL     1      21.670  -0.810  54.894  1.00  0.00     0.000 A 
HETATM   22  C14 UNL     1      20.848   0.231  54.498  1.00  0.00     0.002 A 
HETATM   23  C15 UNL     1      21.150   1.029  53.415  1.00  0.00     0.025 A 
ENDBRANCH  15  18
ENDBRANCH   3  15
TORSDOF 6
ENDMDL
MODEL 5
REMARK VINA RESULT:      -8.1      3.243      5.661
REMARK  6 active torsions:
REMARK  status: ('A' for Active; 'I' for Inactive)
REMARK    1  A    between atoms: C1_2  and  C2_3 
REMARK       I    between atoms: C1_2  and  N1_12 
REMARK    2  A    between atoms: C2_3  and  C3_4 
REMARK    3  A    between atoms: C6_7  and  C7_8 
REMARK    4  A    between atoms: C7_8  and  O2_9 
REMARK    5  A    between atoms: N1_12  and  S1_13 
REMARK    6  A    between atoms: S1_13  and  C10_16 
ROOT
HETATM    1  O1  UNL     1      24.140   3.067  52.469  1.00  0.00    -0.272 OA
HETATM    2  C1  UNL     1      24.698   2.399  51.556  1.00  0.00     0.235 C 
HETATM    3  N1  UNL     1      25.675   1.363  51.569  1.00  0.00    -0.250 N 
HETATM    4  H10 UNL     1      25.930   1.016  50.624  1.00  0.00     0.181 HD
ENDROOT
BRANCH   2   5
HETATM    5  C2  UNL     1      24.103   2.924  50.280  1.00  0.00     0.142 C 
BRANCH   5   6
HETATM    6  C3  UNL     1      25.117   3.891  49.726  1.00  0.00    -0.049 A 
HETATM    7  C4  UNL     1      26.417   3.503  49.479  1.00  0.00     0.008 A 
HETATM    8  C5  UNL     1      27.294   4.450  48.968  1.00  0.00     0.010 A 
HETATM    9  C6  UNL     1      26.853   5.734  48.725  1.00  0.00    -0.035 A 
HETATM   10  C8  UNL     1      25.541   6.122  48.976  1.00  0.00     0.010 A 
HETATM   11  C9  UNL     1      24.665   5.174  49.486  1.00  0.00     0.008 A 
BRANCH   9  12
HETATM   12  C7  UNL     1      27.737   6.789  48.182  1.00  0.00     0.202 C 
BRANCH  12  13
HETATM   13  O2  UNL     1      28.906   6.834  48.938  1.00  0.00    -0.396 OA
HETATM   14  H7  UNL     1      29.064   7.791  49.219  1.00  0.00     0.209 HD
ENDBRANCH  12  13
ENDBRANCH   9  12
ENDBRANCH   5   6
ENDBRANCH   2   5
BRANCH   3  15
HETATM   15  S1  UNL     1      26.164   0.978  53.177  1.00  0.00     0.265 S 
HETATM   16  O3  UNL     1      24.945   0.416  53.878  1.00  0.00    -0.200 OA
HETATM   17  O4  UNL     1      26.635   2.256  53.814  1.00  0.00    -0.200 OA
BRANCH  15  18
HETATM   18  C10 UNL     1      27.387  -0.253  53.212  1.00  0.00     0.079 A 
HETATM   19  C11 UNL     1      28.689  -0.025  53.612  1.00  0.00     0.025 A 
HETATM   20  C12 UNL     1      29.692  -0.969  53.658  1.00  0.00     0.002 A 
HETATM   21  C13 UNL     1      29.311  -2.235  53.259  1.00  0.00     0.000 A 
HETATM   22  C14 UNL     1      28.016  -2.506  52.851  1.00  0.00     0.002 A 
HETATM   23  C15 UNL     1      27.041  -1.532  52.821  1.00  0.00     0.025 A 
ENDBRANCH  15  18
ENDBRANCH   3  15
TORSDOF 6
ENDMDL
MODEL 6
REMARK VINA RESULT:      -7.9      3.482      5.813
REMARK  6 active torsions:
REMARK  status: ('A' for Active; 'I' for Inactive)
REMARK    1  A    between atoms: C1_2  and  C2_3 
REMARK       I    between atoms: C1_2  and  N1_12 
REMARK    2  A    between atoms: C2_3  and  C3_4 
REMARK    3  A    between atoms: C6_7  and  C7_8 
REMARK    4  A    between atoms: C7_8  and  O2_9 
REMARK    5  A    between atoms: N1_12  and  S1_13 
REMARK    6  A    between atoms: S1_13  and  C10_16 
ROOT
HETATM    1  O1  UNL     1      27.511   2.870  51.382  1.00  0.00    -0.272 OA
HETATM    2  C1  UNL     1      26.400   2.435  50.973  1.00  0.00     0.235 C 
HETATM    3  N1  UNL     1      25.387   1.638  51.579  1.00  0.00    -0.250 N 
HETATM    4  H10 UNL     1      24.575   1.451  50.959  1.00  0.00     0.181 HD
ENDROOT
BRANCH   2   5
HETATM    5  C2  UNL     1      26.282   2.949  49.567  1.00  0.00     0.142 C 
BRANCH   5   6
HETATM    6  C3  UNL     1      26.052   4.433  49.694  1.00  0.00    -0.049 A 
HETATM    7  C4  UNL     1      25.062   4.938  50.510  1.00  0.00     0.008 A 
HETATM    8  C5  UNL     1      24.911   6.316  50.576  1.00  0.00     0.010 A 
HETATM    9  C6  UNL     1      25.739   7.134  49.836  1.00  0.00    -0.035 A 
HETATM   10  C8  UNL     1      26.738   6.622  49.014  1.00  0.00     0.010 A 
HETATM   11  C9  UNL     1      26.888   5.243  48.950  1.00  0.00     0.008 A 
BRANCH   9  12
HETATM   12  C7  UNL     1      25.630   8.609  49.862  1.00  0.00     0.202 C 
BRANCH  12  13
HETATM   13  O2  UNL     1      26.576   9.118  50.749  1.00  0.00    -0.396 OA
HETATM   14  H7  UNL     1      26.103   9.371  51.604  1.00  0.00     0.209 HD
ENDBRANCH  12  13
ENDBRANCH   9  12
ENDBRANCH   5   6
ENDBRANCH   2   5
BRANCH   3  15
HETATM   15  S1  UNL     1      25.808   1.203  53.193  1.00  0.00     0.265 S 
HETATM   16  O3  UNL     1      24.624   0.452  53.764  1.00  0.00    -0.200 OA
HETATM   17  O4  UNL     1      26.073   2.480  53.941  1.00  0.00    -0.200 OA
BRANCH  15  18
HETATM   18  C10 UNL     1      27.169   0.127  53.247  1.00  0.00     0.079 A 
HETATM   19  C11 UNL     1      28.426   0.505  53.677  1.00  0.00     0.025 A 
HETATM   20  C12 UNL     1      29.535  -0.312  53.738  1.00  0.00     0.002 A 
HETATM   21  C13 UNL     1      29.317  -1.610  53.322  1.00  0.00     0.000 A 
HETATM   22  C14 UNL     1      28.072  -2.031  52.884  1.00  0.00     0.002 A 
HETATM   23  C15 UNL     1      26.988  -1.180  52.839  1.00  0.00     0.025 A 
ENDBRANCH  15  18
ENDBRANCH   3  15
TORSDOF 6
ENDMDL
MODEL 7
REMARK VINA RESULT:      -7.8      3.702      6.288
REMARK  6 active torsions:
REMARK  status: ('A' for Active; 'I' for Inactive)
REMARK    1  A    between atoms: C1_2  and  C2_3 
REMARK       I    between atoms: C1_2  and  N1_12 
REMARK    2  A    between atoms: C2_3  and  C3_4 
REMARK    3  A    between atoms: C6_7  and  C7_8 
REMARK    4  A    between atoms: C7_8  and  O2_9 
REMARK    5  A    between atoms: N1_12  and  S1_13 
REMARK    6  A    between atoms: S1_13  and  C10_16 
ROOT
HETATM    1  O1  UNL     1      23.418   1.994  51.742  1.00  0.00    -0.272 OA
HETATM    2  C1  UNL     1      24.494   2.497  52.168  1.00  0.00     0.235 C 
HETATM    3  N1  UNL     1      25.421   3.424  51.609  1.00  0.00    -0.250 N 
HETATM    4  H10 UNL     1      26.225   3.637  52.231  1.00  0.00     0.181 HD
ENDROOT
BRANCH   2   5
HETATM    5  C2  UNL     1      24.682   1.899  53.532  1.00  0.00     0.142 C 
BRANCH   5   6
HETATM    6  C3  UNL     1      25.849   0.954  53.405  1.00  0.00    -0.049 A 
HETATM    7  C4  UNL     1      27.122   1.333  53.774  1.00  0.00     0.008 A 
HETATM    8  C5  UNL     1      28.146   0.407  53.628  1.00  0.00     0.010 A 
HETATM    9  C6  UNL     1      27.871  -0.847  53.125  1.00  0.00    -0.035 A 
HETATM   10  C8  UNL     1      26.585  -1.226  52.753  1.00  0.00     0.010 A 
HETATM   11  C9  UNL     1      25.562  -0.299  52.901  1.00  0.00     0.008 A 
BRANCH   9  12
HETATM   12  C7  UNL     1      28.917  -1.878  52.944  1.00  0.00     0.202 C 
BRANCH  12  13
HETATM   13  O2  UNL     1      28.311  -3.131  52.884  1.00  0.00    -0.396 OA
HETATM   14  H7  UNL     1      28.878  -3.729  52.300  1.00  0.00     0.209 HD
ENDBRANCH  12  13
ENDBRANCH   9  12
ENDBRANCH   5   6
ENDBRANCH   2   5
BRANCH   3  15
HETATM   15  S1  UNL     1      24.934   3.930  50.035  1.00  0.00     0.265 S 
HETATM   16  O3  UNL     1      23.695   4.783  50.217  1.00  0.00    -0.200 OA
HETATM   17  O4  UNL     1      24.644   2.688  49.240  1.00  0.00    -0.200 OA
BRANCH  15  18
HETATM   18  C10 UNL     1      26.131   4.927  49.269  1.00  0.00     0.079 A 
HETATM   19  C11 UNL     1      25.910   6.239  48.899  1.00  0.00     0.025 A 
HETATM   20  C12 UNL     1      26.828   7.068  48.289  1.00  0.00     0.002 A 
HETATM   21  C13 UNL     1      28.057   6.488  48.050  1.00  0.00     0.000 A 
HETATM   22  C14 UNL     1      28.321   5.175  48.405  1.00  0.00     0.002 A 
HETATM   23  C15 UNL     1      27.374   4.380  49.014  1.00  0.00     0.025 A 
ENDBRANCH  15  18
ENDBRANCH   3  15
TORSDOF 6
ENDMDL
MODEL 8
REMARK VINA RESULT:      -7.8      3.825      6.590
REMARK  6 active torsions:
REMARK  status: ('A' for Active; 'I' for Inactive)
REMARK    1  A    between atoms: C1_2  and  C2_3 
REMARK       I    between atoms: C1_2  and  N1_12 
REMARK    2  A    between atoms: C2_3  and  C3_4 
REMARK    3  A    between atoms: C6_7  and  C7_8 
REMARK    4  A    between atoms: C7_8  and  O2_9 
REMARK    5  A    between atoms: N1_12  and  S1_13 
REMARK    6  A    between atoms: S1_13  and  C10_16 
ROOT
HETATM    1  O1  UNL     1      22.793   3.104  51.743  1.00  0.00    -0.272 OA
HETATM    2  C1  UNL     1      23.852   2.553  51.336  1.00  0.00     0.235 C 
HETATM    3  N1  UNL     1      24.860   2.950  50.411  1.00  0.00    -0.250 N 
HETATM    4  H10 UNL     1      25.619   2.251  50.294  1.00  0.00     0.181 HD
ENDROOT
BRANCH   2   5
HETATM    5  C2  UNL     1      23.904   1.241  52.064  1.00  0.00     0.142 C 
BRANCH   5   6
HETATM    6  C3  UNL     1      25.307   1.131  52.605  1.00  0.00    -0.049 A 
HETATM    7  C4  UNL     1      26.149   0.114  52.211  1.00  0.00     0.008 A 
HETATM    8  C5  UNL     1      27.427   0.079  52.752  1.00  0.00     0.010 A 
HETATM    9  C6  UNL     1      27.816   1.045  53.657  1.00  0.00    -0.035 A 
HETATM   10  C8  UNL     1      26.963   2.070  54.052  1.00  0.00     0.010 A 
HETATM   11  C9  UNL     1      25.686   2.104  53.509  1.00  0.00     0.008 A 
BRANCH   9  12
HETATM   12  C7  UNL     1      29.163   1.064  54.270  1.00  0.00     0.202 C 
BRANCH  12  13
HETATM   13  O2  UNL     1      29.517   2.383  54.542  1.00  0.00    -0.396 OA
HETATM   14  H7  UNL     1      30.499   2.495  54.336  1.00  0.00     0.209 HD
ENDBRANCH  12  13
ENDBRANCH   9  12
ENDBRANCH   5   6
ENDBRANCH   2   5
BRANCH   3  15
HETATM   15  S1  UNL     1      24.523   4.501  49.739  1.00  0.00     0.265 S 
HETATM   16  O3  UNL     1      24.070   5.382  50.885  1.00  0.00    -0.200 OA
HETATM   17  O4  UNL     1      23.438   4.315  48.716  1.00  0.00    -0.200 OA
BRANCH  15  18
HETATM   18  C10 UNL     1      25.938   5.240  49.056  1.00  0.00     0.079 A 
HETATM   19  C11 UNL     1      25.957   6.522  48.541  1.00  0.00     0.025 A 
HETATM   20  C12 UNL     1      27.054   7.150  47.990  1.00  0.00     0.002 A 
HETATM   21  C13 UNL     1      28.206   6.389  47.975  1.00  0.00     0.000 A 
HETATM   22  C14 UNL     1      28.229   5.100  48.481  1.00  0.00     0.002 A 
HETATM   23  C15 UNL     1      27.109   4.509  49.024  1.00  0.00     0.025 A 
ENDBRANCH  15  18
ENDBRANCH   3  15
TORSDOF 6
ENDMDL
MODEL 9
REMARK VINA RESULT:      -7.6      2.990      4.416
REMARK  6 active torsions:
REMARK  status: ('A' for Active; 'I' for Inactive)
REMARK    1  A    between atoms: C1_2  and  C2_3 
REMARK       I    between atoms: C1_2  and  N1_12 
REMARK    2  A    between atoms: C2_3  and  C3_4 
REMARK    3  A    between atoms: C6_7  and  C7_8 
REMARK    4  A    between atoms: C7_8  and  O2_9 
REMARK    5  A    between atoms: N1_12  and  S1_13 
REMARK    6  A    between atoms: S1_13  and  C10_16 
ROOT
HETATM    1  O1  UNL     1      27.544   2.702  51.664  1.00  0.00    -0.272 OA
HETATM    2  C1  UNL     1      26.425   2.298  51.245  1.00  0.00     0.235 C 
HETATM    3  N1  UNL     1      25.423   1.456  51.809  1.00  0.00    -0.250 N 
HETATM    4  H10 UNL     1      24.600   1.316  51.192  1.00  0.00     0.181 HD
ENDROOT
BRANCH   2   5
HETATM    5  C2  UNL     1      26.280   2.916  49.884  1.00  0.00     0.142 C 
BRANCH   5   6
HETATM    6  C3  UNL     1      24.999   3.709  49.931  1.00  0.00    -0.049 A 
HETATM    7  C4  UNL     1      23.861   3.268  49.290  1.00  0.00     0.008 A 
HETATM    8  C5  UNL     1      22.719   4.052  49.379  1.00  0.00     0.010 A 
HETATM    9  C6  UNL     1      22.749   5.233  50.091  1.00  0.00    -0.035 A 
HETATM   10  C8  UNL     1      23.900   5.674  50.737  1.00  0.00     0.010 A 
HETATM   11  C9  UNL     1      25.041   4.888  50.648  1.00  0.00     0.008 A 
BRANCH   9  12
HETATM   12  C7  UNL     1      21.568   6.114  50.224  1.00  0.00     0.202 C 
BRANCH  12  13
HETATM   13  O2  UNL     1      21.750   6.954  51.319  1.00  0.00    -0.396 OA
HETATM   14  H7  UNL     1      20.845   7.296  51.610  1.00  0.00     0.209 HD
ENDBRANCH  12  13
ENDBRANCH   9  12
ENDBRANCH   5   6
ENDBRANCH   2   5
BRANCH   3  15
HETATM   15  S1  UNL     1      25.875   0.902  53.377  1.00  0.00     0.265 S 
HETATM   16  O3  UNL     1      24.668   0.191  53.951  1.00  0.00    -0.200 OA
HETATM   17  O4  UNL     1      26.245   2.115  54.185  1.00  0.00    -0.200 OA
BRANCH  15  18
HETATM   18  C10 UNL     1      27.168  -0.255  53.316  1.00  0.00     0.079 A 
HETATM   19  C11 UNL     1      27.025  -1.534  52.815  1.00  0.00     0.025 A 
HETATM   20  C12 UNL     1      28.020  -2.486  52.745  1.00  0.00     0.002 A 
HETATM   21  C13 UNL     1      29.245  -2.074  53.231  1.00  0.00     0.000 A 
HETATM   22  C14 UNL     1      29.431  -0.800  53.741  1.00  0.00     0.002 A 
HETATM   23  C15 UNL     1      28.408   0.122  53.792  1.00  0.00     0.025 A 
ENDBRANCH  15  18
ENDBRANCH   3  15
TORSDOF 6
ENDMDL
