MODEL 1
REMARK VINA RESULT:      -8.2      0.000      0.000
REMARK  7 active torsions:
REMARK  status: ('A' for Active; 'I' for Inactive)
REMARK    1  A    between atoms: C3_3  and  O1_4 
REMARK    2  A    between atoms: O1_4  and  C4_5 
REMARK    3  A    between atoms: C4_5  and  C5_6 
REMARK    4  A    between atoms: C5_6  and  O2_8 
REMARK    5  A    between atoms: C9_14  and  O3_15 
REMARK    6  A    between atoms: O3_15  and  C10_16 
REMARK    7  A    between atoms: C11_17  and  C12_18 
ROOT
HETATM    1  C1  UNL     1      24.343   0.182  52.228  1.00  0.00     0.054 C 
HETATM    2  C2  UNL     1      25.265   0.140  53.423  1.00  0.00     0.006 A 
HETATM    3  C3  UNL     1      25.286  -0.491  54.679  1.00  0.00     0.094 A 
HETATM    4  C7  UNL     1      26.457  -0.066  55.267  1.00  0.00     0.156 A 
HETATM    5  N1  UNL     1      27.116   0.764  54.446  1.00  0.00    -0.236 N 
HETATM    6  N2  UNL     1      28.288   1.356  54.709  1.00  0.00    -0.161 NA
HETATM    7  C8  UNL     1      28.857   2.180  53.792  1.00  0.00     0.258 A 
HETATM    8  N3  UNL     1      28.196   2.364  52.635  1.00  0.00    -0.214 NA
HETATM    9  C9  UNL     1      27.021   1.761  52.387  1.00  0.00     0.200 A 
HETATM   10  C18 UNL     1      26.422   0.920  53.304  1.00  0.00     0.120 A 
ENDROOT
BRANCH   9  11
HETATM   11  O3  UNL     1      26.352   1.962  51.188  1.00  0.00    -0.302 OA
BRANCH  11  12
HETATM   12  C10 UNL     1      26.361   3.258  50.692  1.00  0.00     0.145 C 
HETATM   13  C11 UNL     1      26.587   3.636  49.447  1.00  0.00     0.038 C 
BRANCH  13  14
HETATM   14  C12 UNL     1      26.585   5.011  48.983  1.00  0.00    -0.009 C 
HETATM   15  C13 UNL     1      25.557   5.837  48.913  1.00  0.00     0.097 C 
HETATM   16  N4  UNL     1      26.047   7.067  48.398  1.00  0.00    -0.389 N 
HETATM   17  C14 UNL     1      25.183   8.114  47.887  1.00  0.00     0.149 C 
HETATM   18  C15 UNL     1      27.501   7.115  48.461  1.00  0.00     0.163 C 
HETATM   19  C16 UNL     1      27.803   5.660  48.516  1.00  0.00    -0.002 C 
HETATM   20  C17 UNL     1      29.005   5.246  48.165  1.00  0.00     0.198 C 
HETATM   21  F1  UNL     1      30.045   5.999  47.746  1.00  0.00    -0.219 F 
ENDBRANCH  13  14
ENDBRANCH  11  12
ENDBRANCH   9  11
BRANCH   3  22
HETATM   22  O1  UNL     1      24.181  -1.255  54.832  1.00  0.00    -0.347 OA
BRANCH  22  23
HETATM   23  C4  UNL     1      22.950  -1.032  55.383  1.00  0.00     0.207 C 
BRANCH  23  24
HETATM   24  C5  UNL     1      21.753  -1.168  54.504  1.00  0.00     0.138 C 
HETATM   25  C6  UNL     1      21.176   0.238  54.311  1.00  0.00     0.041 C 
BRANCH  24  26
HETATM   26  O2  UNL     1      20.784  -2.035  54.922  1.00  0.00    -0.394 OA
HETATM   27  H10 UNL     1      20.229  -2.253  54.118  1.00  0.00     0.210 HD
ENDBRANCH  24  26
ENDBRANCH  23  24
ENDBRANCH  22  23
ENDBRANCH   3  22
TORSDOF 7
ENDMDL
MODEL 2
REMARK VINA RESULT:      -7.7      3.163      5.055
REMARK  7 active torsions:
REMARK  status: ('A' for Active; 'I' for Inactive)
REMARK    1  A    between atoms: C3_3  and  O1_4 
REMARK    2  A    between atoms: O1_4  and  C4_5 
REMARK    3  A    between atoms: C4_5  and  C5_6 
REMARK    4  A    between atoms: C5_6  and  O2_8 
REMARK    5  A    between atoms: C9_14  and  O3_15 
REMARK    6  A    between atoms: O3_15  and  C10_16 
REMARK    7  A    between atoms: C11_17  and  C12_18 
ROOT
HETATM    1  C1  UNL     1      25.671   0.438  52.157  1.00  0.00     0.054 C 
HETATM    2  C2  UNL     1      25.160  -0.188  53.432  1.00  0.00     0.006 A 
HETATM    3  C3  UNL     1      25.719  -0.740  54.598  1.00  0.00     0.094 A 
HETATM    4  C7  UNL     1      24.638  -1.129  55.357  1.00  0.00     0.156 A 
HETATM    5  N1  UNL     1      23.493  -0.844  54.718  1.00  0.00    -0.236 N 
HETATM    6  N2  UNL     1      22.260  -1.092  55.177  1.00  0.00    -0.161 NA
HETATM    7  C8  UNL     1      21.176  -0.755  54.433  1.00  0.00     0.258 A 
HETATM    8  N3  UNL     1      21.403  -0.175  53.241  1.00  0.00    -0.214 NA
HETATM    9  C9  UNL     1      22.647   0.066  52.796  1.00  0.00     0.200 A 
HETATM   10  C18 UNL     1      23.766  -0.267  53.534  1.00  0.00     0.120 A 
ENDROOT
BRANCH   9  11
HETATM   11  O3  UNL     1      22.864   0.666  51.563  1.00  0.00    -0.302 OA
BRANCH  11  12
HETATM   12  C10 UNL     1      22.739   2.047  51.524  1.00  0.00     0.145 C 
HETATM   13  C11 UNL     1      23.373   2.885  50.725  1.00  0.00     0.038 C 
BRANCH  13  14
HETATM   14  C12 UNL     1      23.204   4.327  50.729  1.00  0.00    -0.009 C 
HETATM   15  C13 UNL     1      22.108   5.009  51.004  1.00  0.00     0.097 C 
HETATM   16  N4  UNL     1      22.433   6.387  50.877  1.00  0.00    -0.389 N 
HETATM   17  C14 UNL     1      21.434   7.434  50.795  1.00  0.00     0.149 C 
HETATM   18  C15 UNL     1      23.876   6.579  50.844  1.00  0.00     0.163 C 
HETATM   19  C16 UNL     1      24.305   5.224  50.407  1.00  0.00    -0.002 C 
HETATM   20  C17 UNL     1      25.494   5.082  49.853  1.00  0.00     0.198 C 
HETATM   21  F1  UNL     1      26.415   6.042  49.622  1.00  0.00    -0.219 F 
ENDBRANCH  13  14
ENDBRANCH  11  12
ENDBRANCH   9  11
BRANCH   3  22
HETATM   22  O1  UNL     1      27.069  -0.682  54.537  1.00  0.00    -0.347 OA
BRANCH  22  23
HETATM   23  C4  UNL     1      27.989   0.256  54.914  1.00  0.00     0.207 C 
BRANCH  23  24
HETATM   24  C5  UNL     1      28.985   0.710  53.901  1.00  0.00     0.138 C 
HETATM   25  C6  UNL     1      29.875  -0.493  53.577  1.00  0.00     0.041 C 
BRANCH  24  26
HETATM   26  O2  UNL     1      29.742   1.797  54.233  1.00  0.00    -0.394 OA
HETATM   27  H10 UNL     1      29.585   1.969  55.206  1.00  0.00     0.210 HD
ENDBRANCH  24  26
ENDBRANCH  23  24
ENDBRANCH  22  23
ENDBRANCH   3  22
TORSDOF 7
ENDMDL
MODEL 3
REMARK VINA RESULT:      -7.4      3.634      9.314
REMARK  7 active torsions:
REMARK  status: ('A' for Active; 'I' for Inactive)
REMARK    1  A    between atoms: C3_3  and  O1_4 
REMARK    2  A    between atoms: O1_4  and  C4_5 
REMARK    3  A    between atoms: C4_5  and  C5_6 
REMARK    4  A    between atoms: C5_6  and  O2_8 
REMARK    5  A    between atoms: C9_14  and  O3_15 
REMARK    6  A    between atoms: O3_15  and  C10_16 
REMARK    7  A    between atoms: C11_17  and  C12_18 
ROOT
HETATM    1  C1  UNL     1      29.211   5.455  48.480  1.00  0.00     0.054 C 
HETATM    2  C2  UNL     1      28.091   6.428  48.205  1.00  0.00     0.006 A 
HETATM    3  C3  UNL     1      27.966   7.722  47.667  1.00  0.00     0.094 A 
HETATM    4  C7  UNL     1      26.618   7.996  47.720  1.00  0.00     0.156 A 
HETATM    5  N1  UNL     1      25.951   6.959  48.249  1.00  0.00    -0.236 N 
HETATM    6  N2  UNL     1      24.628   6.898  48.442  1.00  0.00    -0.161 NA
HETATM    7  C8  UNL     1      24.069   5.788  48.988  1.00  0.00     0.258 A 
HETATM    8  N3  UNL     1      24.897   4.780  49.316  1.00  0.00    -0.214 NA
HETATM    9  C9  UNL     1      26.222   4.858  49.114  1.00  0.00     0.200 A 
HETATM   10  C18 UNL     1      26.814   5.976  48.561  1.00  0.00     0.120 A 
ENDROOT
BRANCH   9  11
HETATM   11  O3  UNL     1      27.063   3.807  49.458  1.00  0.00    -0.302 OA
BRANCH  11  12
HETATM   12  C10 UNL     1      26.485   2.775  50.182  1.00  0.00     0.145 C 
HETATM   13  C11 UNL     1      26.801   2.379  51.402  1.00  0.00     0.038 C 
BRANCH  13  14
HETATM   14  C12 UNL     1      26.161   1.288  52.114  1.00  0.00    -0.009 C 
HETATM   15  C13 UNL     1      24.870   1.032  52.204  1.00  0.00     0.097 C 
HETATM   16  N4  UNL     1      24.733  -0.136  53.002  1.00  0.00    -0.389 N 
HETATM   17  C14 UNL     1      23.473  -0.556  53.585  1.00  0.00     0.149 C 
HETATM   18  C15 UNL     1      26.009  -0.824  53.141  1.00  0.00     0.163 C 
HETATM   19  C16 UNL     1      26.938   0.300  52.850  1.00  0.00    -0.002 C 
HETATM   20  C17 UNL     1      28.186   0.218  53.271  1.00  0.00     0.198 C 
HETATM   21  F1  UNL     1      28.758  -0.794  53.958  1.00  0.00    -0.219 F 
ENDBRANCH  13  14
ENDBRANCH  11  12
ENDBRANCH   9  11
BRANCH   3  22
HETATM   22  O1  UNL     1      29.182   8.194  47.310  1.00  0.00    -0.347 OA
BRANCH  22  23
HETATM   23  C4  UNL     1      29.910   9.292  47.676  1.00  0.00     0.207 C 
BRANCH  23  24
HETATM   24  C5  UNL     1      30.368   9.392  49.091  1.00  0.00     0.138 C 
HETATM   25  C6  UNL     1      31.383   8.266  49.315  1.00  0.00     0.041 C 
BRANCH  24  26
HETATM   26  O2  UNL     1      29.397   9.365  50.051  1.00  0.00    -0.394 OA
HETATM   27  H10 UNL     1      29.700   8.713  50.747  1.00  0.00     0.210 HD
ENDBRANCH  24  26
ENDBRANCH  23  24
ENDBRANCH  22  23
ENDBRANCH   3  22
TORSDOF 7
ENDMDL
MODEL 4
REMARK VINA RESULT:      -7.3      3.285      5.023
REMARK  7 active torsions:
REMARK  status: ('A' for Active; 'I' for Inactive)
REMARK    1  A    between atoms: C3_3  and  O1_4 
REMARK    2  A    between atoms: O1_4  and  C4_5 
REMARK    3  A    between atoms: C4_5  and  C5_6 
REMARK    4  A    between atoms: C5_6  and  O2_8 
REMARK    5  A    between atoms: C9_14  and  O3_15 
REMARK    6  A    between atoms: O3_15  and  C10_16 
REMARK    7  A    between atoms: C11_17  and  C12_18 
ROOT
HETATM    1  C1  UNL     1      26.568   1.124  51.623  1.00  0.00     0.054 C 
HETATM    2  C2  UNL     1      25.620   0.557  52.651  1.00  0.00     0.006 A 
HETATM    3  C3  UNL     1      25.720  -0.224  53.816  1.00  0.00     0.094 A 
HETATM    4  C7  UNL     1      24.423  -0.364  54.259  1.00  0.00     0.156 A 
HETATM    5  N1  UNL     1      23.579   0.278  53.438  1.00  0.00    -0.236 N 
HETATM    6  N2  UNL     1      22.249   0.341  53.579  1.00  0.00    -0.161 NA
HETATM    7  C8  UNL     1      21.499   1.024  52.677  1.00  0.00     0.258 A 
HETATM    8  N3  UNL     1      22.149   1.619  51.660  1.00  0.00    -0.214 NA
HETATM    9  C9  UNL     1      23.485   1.545  51.534  1.00  0.00     0.200 A 
HETATM   10  C18 UNL     1      24.269   0.856  52.438  1.00  0.00     0.120 A 
ENDROOT
BRANCH   9  11
HETATM   11  O3  UNL     1      24.140   2.165  50.478  1.00  0.00    -0.302 OA
BRANCH  11  12
HETATM   12  C10 UNL     1      24.380   3.524  50.621  1.00  0.00     0.145 C 
HETATM   13  C11 UNL     1      24.405   4.436  49.667  1.00  0.00     0.038 C 
BRANCH  13  14
HETATM   14  C12 UNL     1      24.663   5.849  49.874  1.00  0.00    -0.009 C 
HETATM   15  C13 UNL     1      25.804   6.493  49.710  1.00  0.00     0.097 C 
HETATM   16  N4  UNL     1      25.562   7.855  50.033  1.00  0.00    -0.389 N 
HETATM   17  C14 UNL     1      26.623   8.814  50.275  1.00  0.00     0.149 C 
HETATM   18  C15 UNL     1      24.133   8.133  50.080  1.00  0.00     0.163 C 
HETATM   19  C16 UNL     1      23.613   6.759  50.313  1.00  0.00    -0.002 C 
HETATM   20  C17 UNL     1      22.408   6.615  50.828  1.00  0.00     0.198 C 
HETATM   21  F1  UNL     1      21.544   7.588  51.188  1.00  0.00    -0.219 F 
ENDBRANCH  13  14
ENDBRANCH  11  12
ENDBRANCH   9  11
BRANCH   3  22
HETATM   22  O1  UNL     1      27.014  -0.534  54.056  1.00  0.00    -0.347 OA
BRANCH  22  23
HETATM   23  C4  UNL     1      28.008   0.065  54.779  1.00  0.00     0.207 C 
BRANCH  23  24
HETATM   24  C5  UNL     1      29.043   0.842  54.039  1.00  0.00     0.138 C 
HETATM   25  C6  UNL     1      30.112  -0.156  53.581  1.00  0.00     0.041 C 
BRANCH  24  26
HETATM   26  O2  UNL     1      29.613   1.889  54.704  1.00  0.00    -0.394 OA
HETATM   27  H10 UNL     1      29.119   2.712  54.421  1.00  0.00     0.210 HD
ENDBRANCH  24  26
ENDBRANCH  23  24
ENDBRANCH  22  23
ENDBRANCH   3  22
TORSDOF 7
ENDMDL
MODEL 5
REMARK VINA RESULT:      -7.3      3.972      9.103
REMARK  7 active torsions:
REMARK  status: ('A' for Active; 'I' for Inactive)
REMARK    1  A    between atoms: C3_3  and  O1_4 
REMARK    2  A    between atoms: O1_4  and  C4_5 
REMARK    3  A    between atoms: C4_5  and  C5_6 
REMARK    4  A    between atoms: C5_6  and  O2_8 
REMARK    5  A    between atoms: C9_14  and  O3_15 
REMARK    6  A    between atoms: O3_15  and  C10_16 
REMARK    7  A    between atoms: C11_17  and  C12_18 
ROOT
HETATM    1  C1  UNL     1      28.662   5.314  48.223  1.00  0.00     0.054 C 
HETATM    2  C2  UNL     1      28.557   6.786  48.539  1.00  0.00     0.006 A 
HETATM    3  C3  UNL     1      29.428   7.890  48.585  1.00  0.00     0.094 A 
HETATM    4  C7  UNL     1      28.633   8.951  48.958  1.00  0.00     0.156 A 
HETATM    5  N1  UNL     1      27.366   8.546  49.131  1.00  0.00    -0.236 N 
HETATM    6  N2  UNL     1      26.340   9.325  49.493  1.00  0.00    -0.161 NA
HETATM    7  C8  UNL     1      25.099   8.795  49.637  1.00  0.00     0.258 A 
HETATM    8  N3  UNL     1      24.960   7.478  49.401  1.00  0.00    -0.214 NA
HETATM    9  C9  UNL     1      26.002   6.711  49.038  1.00  0.00     0.200 A 
HETATM   10  C18 UNL     1      27.273   7.227  48.886  1.00  0.00     0.120 A 
ENDROOT
BRANCH   9  11
HETATM   11  O3  UNL     1      25.841   5.352  48.798  1.00  0.00    -0.302 OA
BRANCH  11  12
HETATM   12  C10 UNL     1      25.773   4.537  49.918  1.00  0.00     0.145 C 
HETATM   13  C11 UNL     1      26.113   3.265  50.003  1.00  0.00     0.038 C 
BRANCH  13  14
HETATM   14  C12 UNL     1      26.020   2.457  51.206  1.00  0.00    -0.009 C 
HETATM   15  C13 UNL     1      26.995   2.126  52.032  1.00  0.00     0.097 C 
HETATM   16  N4  UNL     1      26.417   1.331  53.058  1.00  0.00    -0.389 N 
HETATM   17  C14 UNL     1      27.202   0.525  53.973  1.00  0.00     0.149 C 
HETATM   18  C15 UNL     1      24.966   1.448  53.052  1.00  0.00     0.163 C 
HETATM   19  C16 UNL     1      24.752   1.896  51.650  1.00  0.00    -0.002 C 
HETATM   20  C17 UNL     1      23.565   1.721  51.102  1.00  0.00     0.198 C 
HETATM   21  F1  UNL     1      22.469   1.170  51.667  1.00  0.00    -0.219 F 
ENDBRANCH  13  14
ENDBRANCH  11  12
ENDBRANCH   9  11
BRANCH   3  22
HETATM   22  O1  UNL     1      30.681   7.504  48.255  1.00  0.00    -0.347 OA
BRANCH  22  23
HETATM   23  C4  UNL     1      31.843   7.372  48.963  1.00  0.00     0.207 C 
BRANCH  23  24
HETATM   24  C5  UNL     1      32.196   6.022  49.489  1.00  0.00     0.138 C 
HETATM   25  C6  UNL     1      32.263   5.075  48.287  1.00  0.00     0.041 C 
BRANCH  24  26
HETATM   26  O2  UNL     1      31.382   5.513  50.461  1.00  0.00    -0.394 OA
HETATM   27  H10 UNL     1      30.763   6.252  50.732  1.00  0.00     0.210 HD
ENDBRANCH  24  26
ENDBRANCH  23  24
ENDBRANCH  22  23
ENDBRANCH   3  22
TORSDOF 7
ENDMDL
MODEL 6
REMARK VINA RESULT:      -7.3      5.254      8.790
REMARK  7 active torsions:
REMARK  status: ('A' for Active; 'I' for Inactive)
REMARK    1  A    between atoms: C3_3  and  O1_4 
REMARK    2  A    between atoms: O1_4  and  C4_5 
REMARK    3  A    between atoms: C4_5  and  C5_6 
REMARK    4  A    between atoms: C5_6  and  O2_8 
REMARK    5  A    between atoms: C9_14  and  O3_15 
REMARK    6  A    between atoms: O3_15  and  C10_16 
REMARK    7  A    between atoms: C11_17  and  C12_18 
ROOT
HETATM    1  C1  UNL     1      24.640  -0.356  53.522  1.00  0.00     0.054 C 
HETATM    2  C2  UNL     1      24.963   0.895  52.743  1.00  0.00     0.006 A 
HETATM    3  C3  UNL     1      26.119   1.519  52.240  1.00  0.00     0.094 A 
HETATM    4  C7  UNL     1      25.661   2.659  51.617  1.00  0.00     0.156 A 
HETATM    5  N1  UNL     1      24.327   2.743  51.721  1.00  0.00    -0.236 N 
HETATM    6  N2  UNL     1      23.565   3.726  51.226  1.00  0.00    -0.161 NA
HETATM    7  C8  UNL     1      22.219   3.698  51.398  1.00  0.00     0.258 A 
HETATM    8  N3  UNL     1      21.706   2.655  52.075  1.00  0.00    -0.214 NA
HETATM    9  C9  UNL     1      22.485   1.677  52.565  1.00  0.00     0.200 A 
HETATM   10  C18 UNL     1      23.857   1.684  52.404  1.00  0.00     0.120 A 
ENDROOT
BRANCH   9  11
HETATM   11  O3  UNL     1      21.939   0.607  53.262  1.00  0.00    -0.302 OA
BRANCH  11  12
HETATM   12  C10 UNL     1      20.560   0.476  53.198  1.00  0.00     0.145 C 
HETATM   13  C11 UNL     1      19.859  -0.161  52.278  1.00  0.00     0.038 C 
BRANCH  13  14
HETATM   14  C12 UNL     1      18.412  -0.267  52.260  1.00  0.00    -0.009 C 
HETATM   15  C13 UNL     1      17.547   0.591  51.751  1.00  0.00     0.097 C 
HETATM   16  N4  UNL     1      16.250   0.054  51.973  1.00  0.00    -0.389 N 
HETATM   17  C14 UNL     1      15.035   0.834  51.841  1.00  0.00     0.149 C 
HETATM   18  C15 UNL     1      16.326  -1.353  52.340  1.00  0.00     0.163 C 
HETATM   19  C16 UNL     1      17.725  -1.412  52.842  1.00  0.00    -0.002 C 
HETATM   20  C17 UNL     1      18.069  -2.395  53.651  1.00  0.00     0.198 C 
HETATM   21  F1  UNL     1      17.289  -3.400  54.103  1.00  0.00    -0.219 F 
ENDBRANCH  13  14
ENDBRANCH  11  12
ENDBRANCH   9  11
BRANCH   3  22
HETATM   22  O1  UNL     1      27.212   0.786  52.549  1.00  0.00    -0.347 OA
BRANCH  22  23
HETATM   23  C4  UNL     1      28.374   1.060  53.217  1.00  0.00     0.207 C 
BRANCH  23  24
HETATM   24  C5  UNL     1      28.790   0.137  54.311  1.00  0.00     0.138 C 
HETATM   25  C6  UNL     1      29.690  -0.929  53.679  1.00  0.00     0.041 C 
BRANCH  24  26
HETATM   26  O2  UNL     1      27.788  -0.443  55.035  1.00  0.00    -0.394 OA
HETATM   27  H10 UNL     1      28.217  -0.847  55.845  1.00  0.00     0.210 HD
ENDBRANCH  24  26
ENDBRANCH  23  24
ENDBRANCH  22  23
ENDBRANCH   3  22
TORSDOF 7
ENDMDL
MODEL 7
REMARK VINA RESULT:      -7.3      5.268      8.255
REMARK  7 active torsions:
REMARK  status: ('A' for Active; 'I' for Inactive)
REMARK    1  A    between atoms: C3_3  and  O1_4 
REMARK    2  A    between atoms: O1_4  and  C4_5 
REMARK    3  A    between atoms: C4_5  and  C5_6 
REMARK    4  A    between atoms: C5_6  and  O2_8 
REMARK    5  A    between atoms: C9_14  and  O3_15 
REMARK    6  A    between atoms: O3_15  and  C10_16 
REMARK    7  A    between atoms: C11_17  and  C12_18 
ROOT
HETATM    1  C1  UNL     1      24.620   1.981  51.648  1.00  0.00     0.054 C 
HETATM    2  C2  UNL     1      24.875   0.903  52.674  1.00  0.00     0.006 A 
HETATM    3  C3  UNL     1      25.992   0.221  53.188  1.00  0.00     0.094 A 
HETATM    4  C7  UNL     1      25.475  -0.651  54.120  1.00  0.00     0.156 A 
HETATM    5  N1  UNL     1      24.141  -0.525  54.186  1.00  0.00    -0.236 N 
HETATM    6  N2  UNL     1      23.330  -1.223  54.990  1.00  0.00    -0.161 NA
HETATM    7  C8  UNL     1      21.991  -1.004  54.964  1.00  0.00     0.258 A 
HETATM    8  N3  UNL     1      21.536  -0.071  54.109  1.00  0.00    -0.214 NA
HETATM    9  C9  UNL     1      22.365   0.621  53.309  1.00  0.00     0.200 A 
HETATM   10  C18 UNL     1      23.730   0.415  53.317  1.00  0.00     0.120 A 
ENDROOT
BRANCH   9  11
HETATM   11  O3  UNL     1      21.878   1.581  52.432  1.00  0.00    -0.302 OA
BRANCH  11  12
HETATM   12  C10 UNL     1      20.551   1.446  52.051  1.00  0.00     0.145 C 
HETATM   13  C11 UNL     1      20.068   0.675  51.094  1.00  0.00     0.038 C 
BRANCH  13  14
HETATM   14  C12 UNL     1      18.665   0.572  50.738  1.00  0.00    -0.009 C 
HETATM   15  C13 UNL     1      18.027   1.220  49.781  1.00  0.00     0.097 C 
HETATM   16  N4  UNL     1      16.674   0.788  49.817  1.00  0.00    -0.389 N 
HETATM   17  C14 UNL     1      15.600   1.485  49.138  1.00  0.00     0.149 C 
HETATM   18  C15 UNL     1      16.537  -0.424  50.614  1.00  0.00     0.163 C 
HETATM   19  C16 UNL     1      17.761  -0.319  51.451  1.00  0.00    -0.002 C 
HETATM   20  C17 UNL     1      17.812  -0.986  52.588  1.00  0.00     0.198 C 
HETATM   21  F1  UNL     1      16.862  -1.788  53.116  1.00  0.00    -0.219 F 
ENDBRANCH  13  14
ENDBRANCH  11  12
ENDBRANCH   9  11
BRANCH   3  22
HETATM   22  O1  UNL     1      27.121   0.665  52.590  1.00  0.00    -0.347 OA
BRANCH  22  23
HETATM   23  C4  UNL     1      28.150   1.469  52.997  1.00  0.00     0.207 C 
BRANCH  23  24
HETATM   24  C5  UNL     1      29.107   0.928  54.004  1.00  0.00     0.138 C 
HETATM   25  C6  UNL     1      29.601  -0.422  53.474  1.00  0.00     0.041 C 
BRANCH  24  26
HETATM   26  O2  UNL     1      28.644   0.804  55.283  1.00  0.00    -0.394 OA
HETATM   27  H10 UNL     1      29.299   0.225  55.770  1.00  0.00     0.210 HD
ENDBRANCH  24  26
ENDBRANCH  23  24
ENDBRANCH  22  23
ENDBRANCH   3  22
TORSDOF 7
ENDMDL
MODEL 8
REMARK VINA RESULT:      -7.3      4.625      8.580
REMARK  7 active torsions:
REMARK  status: ('A' for Active; 'I' for Inactive)
REMARK    1  A    between atoms: C3_3  and  O1_4 
REMARK    2  A    between atoms: O1_4  and  C4_5 
REMARK    3  A    between atoms: C4_5  and  C5_6 
REMARK    4  A    between atoms: C5_6  and  O2_8 
REMARK    5  A    between atoms: C9_14  and  O3_15 
REMARK    6  A    between atoms: O3_15  and  C10_16 
REMARK    7  A    between atoms: C11_17  and  C12_18 
ROOT
HETATM    1  C1  UNL     1      24.792  -0.812  55.029  1.00  0.00     0.054 C 
HETATM    2  C2  UNL     1      25.330   0.277  54.134  1.00  0.00     0.006 A 
HETATM    3  C3  UNL     1      26.528   1.004  54.009  1.00  0.00     0.094 A 
HETATM    4  C7  UNL     1      26.313   1.858  52.950  1.00  0.00     0.156 A 
HETATM    5  N1  UNL     1      25.081   1.682  52.452  1.00  0.00    -0.236 N 
HETATM    6  N2  UNL     1      24.553   2.352  51.420  1.00  0.00    -0.161 NA
HETATM    7  C8  UNL     1      23.288   2.082  51.007  1.00  0.00     0.258 A 
HETATM    8  N3  UNL     1      22.613   1.129  51.675  1.00  0.00    -0.214 NA
HETATM    9  C9  UNL     1      23.158   0.466  52.708  1.00  0.00     0.200 A 
HETATM   10  C18 UNL     1      24.442   0.724  53.147  1.00  0.00     0.120 A 
ENDROOT
BRANCH   9  11
HETATM   11  O3  UNL     1      22.447  -0.514  53.386  1.00  0.00    -0.302 OA
BRANCH  11  12
HETATM   12  C10 UNL     1      21.153  -0.747  52.944  1.00  0.00     0.145 C 
HETATM   13  C11 UNL     1      20.074  -0.922  53.684  1.00  0.00     0.038 C 
BRANCH  13  14
HETATM   14  C12 UNL     1      18.740  -1.164  53.166  1.00  0.00    -0.009 C 
HETATM   15  C13 UNL     1      17.885  -2.095  53.544  1.00  0.00     0.097 C 
HETATM   16  N4  UNL     1      16.717  -1.934  52.750  1.00  0.00    -0.389 N 
HETATM   17  C14 UNL     1      15.683  -2.945  52.648  1.00  0.00     0.149 C 
HETATM   18  C15 UNL     1      16.719  -0.641  52.080  1.00  0.00     0.163 C 
HETATM   19  C16 UNL     1      18.175  -0.343  52.103  1.00  0.00    -0.002 C 
HETATM   20  C17 UNL     1      18.659   0.529  51.239  1.00  0.00     0.198 C 
HETATM   21  F1  UNL     1      17.980   1.218  50.297  1.00  0.00    -0.219 F 
ENDBRANCH  13  14
ENDBRANCH  11  12
ENDBRANCH   9  11
BRANCH   3  22
HETATM   22  O1  UNL     1      27.413   0.600  54.948  1.00  0.00    -0.347 OA
BRANCH  22  23
HETATM   23  C4  UNL     1      28.680   0.087  54.890  1.00  0.00     0.207 C 
BRANCH  23  24
HETATM   24  C5  UNL     1      29.284  -0.143  53.547  1.00  0.00     0.138 C 
HETATM   25  C6  UNL     1      29.259  -1.654  53.297  1.00  0.00     0.041 C 
BRANCH  24  26
HETATM   26  O2  UNL     1      30.538   0.360  53.347  1.00  0.00    -0.394 OA
HETATM   27  H10 UNL     1      30.422   1.309  53.052  1.00  0.00     0.210 HD
ENDBRANCH  24  26
ENDBRANCH  23  24
ENDBRANCH  22  23
ENDBRANCH   3  22
TORSDOF 7
ENDMDL
MODEL 9
REMARK VINA RESULT:      -7.3      4.917      6.693
REMARK  7 active torsions:
REMARK  status: ('A' for Active; 'I' for Inactive)
REMARK    1  A    between atoms: C3_3  and  O1_4 
REMARK    2  A    between atoms: O1_4  and  C4_5 
REMARK    3  A    between atoms: C4_5  and  C5_6 
REMARK    4  A    between atoms: C5_6  and  O2_8 
REMARK    5  A    between atoms: C9_14  and  O3_15 
REMARK    6  A    between atoms: O3_15  and  C10_16 
REMARK    7  A    between atoms: C11_17  and  C12_18 
ROOT
HETATM    1  C1  UNL     1      25.533   0.565  52.159  1.00  0.00     0.054 C 
HETATM    2  C2  UNL     1      25.078  -0.139  53.414  1.00  0.00     0.006 A 
HETATM    3  C3  UNL     1      25.686  -0.708  54.548  1.00  0.00     0.094 A 
HETATM    4  C7  UNL     1      24.640  -1.185  55.307  1.00  0.00     0.156 A 
HETATM    5  N1  UNL     1      23.471  -0.935  54.699  1.00  0.00    -0.236 N 
HETATM    6  N2  UNL     1      22.261  -1.265  55.166  1.00  0.00    -0.161 NA
HETATM    7  C8  UNL     1      21.147  -0.956  54.454  1.00  0.00     0.258 A 
HETATM    8  N3  UNL     1      21.322  -0.316  53.284  1.00  0.00    -0.214 NA
HETATM    9  C9  UNL     1      22.544   0.008  52.830  1.00  0.00     0.200 A 
HETATM   10  C18 UNL     1      23.692  -0.296  53.536  1.00  0.00     0.120 A 
ENDROOT
BRANCH   9  11
HETATM   11  O3  UNL     1      22.707   0.669  51.620  1.00  0.00    -0.302 OA
BRANCH  11  12
HETATM   12  C10 UNL     1      21.983   1.842  51.461  1.00  0.00     0.145 C 
HETATM   13  C11 UNL     1      21.396   2.277  50.361  1.00  0.00     0.038 C 
BRANCH  13  14
HETATM   14  C12 UNL     1      20.650   3.517  50.252  1.00  0.00    -0.009 C 
HETATM   15  C13 UNL     1      21.048   4.652  49.710  1.00  0.00     0.097 C 
HETATM   16  N4  UNL     1      19.974   5.573  49.839  1.00  0.00    -0.389 N 
HETATM   17  C14 UNL     1      20.127   7.003  49.649  1.00  0.00     0.149 C 
HETATM   18  C15 UNL     1      18.736   4.885  50.179  1.00  0.00     0.163 C 
HETATM   19  C16 UNL     1      19.292   3.636  50.765  1.00  0.00    -0.002 C 
HETATM   20  C17 UNL     1      18.532   2.921  51.572  1.00  0.00     0.198 C 
HETATM   21  F1  UNL     1      17.263   3.179  51.954  1.00  0.00    -0.219 F 
ENDBRANCH  13  14
ENDBRANCH  11  12
ENDBRANCH   9  11
BRANCH   3  22
HETATM   22  O1  UNL     1      27.029  -0.576  54.468  1.00  0.00    -0.347 OA
BRANCH  22  23
HETATM   23  C4  UNL     1      27.924   0.305  55.010  1.00  0.00     0.207 C 
BRANCH  23  24
HETATM   24  C5  UNL     1      28.871   0.998  54.090  1.00  0.00     0.138 C 
HETATM   25  C6  UNL     1      29.842  -0.063  53.564  1.00  0.00     0.041 C 
BRANCH  24  26
HETATM   26  O2  UNL     1      29.551   2.064  54.605  1.00  0.00    -0.394 OA
HETATM   27  H10 UNL     1      30.313   1.689  55.136  1.00  0.00     0.210 HD
ENDBRANCH  24  26
ENDBRANCH  23  24
ENDBRANCH  22  23
ENDBRANCH   3  22
TORSDOF 7
ENDMDL
