MODEL 1
REMARK VINA RESULT:      -7.5      0.000      0.000
REMARK  12 active torsions:
REMARK  status: ('A' for Active; 'I' for Inactive)
REMARK    1  A    between atoms: C1_2  and  O2_3 
REMARK    2  A    between atoms: C1_2  and  C2_4 
REMARK    3  A    between atoms: C3_6  and  C4_7 
REMARK    4  A    between atoms: C5_8  and  C6_9 
REMARK    5  A    between atoms: C6_9  and  C7_10 
REMARK    6  A    between atoms: C7_10  and  C8_11 
REMARK    7  A    between atoms: C9_12  and  C10_13 
REMARK    8  A    between atoms: C10_13  and  C11_14 
REMARK    9  A    between atoms: C11_14  and  C12_15 
REMARK   10  A    between atoms: C12_15  and  C13_16 
REMARK   11  A    between atoms: C14_17  and  C15_18 
REMARK   12  A    between atoms: C22_25  and  O4_26 
ROOT
HETATM    1  C6  UNL     1      22.219   0.576  53.108  1.00  0.00    -0.017 C 
ENDROOT
BRANCH   1   2
HETATM    2  C5  UNL     1      23.305   1.478  52.736  1.00  0.00    -0.005 C 
HETATM    3  C4  UNL     1      24.578   1.339  52.592  1.00  0.00     0.004 C 
BRANCH   3   4
HETATM    4  C3  UNL     1      25.130  -0.024  52.844  1.00  0.00     0.148 C 
HETATM    5  O3  UNL     1      26.245  -0.225  52.046  1.00  0.00    -0.364 OA
HETATM    6  C2  UNL     1      27.363  -0.434  52.816  1.00  0.00     0.250 C 
HETATM    7  C22 UNL     1      27.052   0.221  54.161  1.00  0.00     0.159 C 
HETATM    8  C21 UNL     1      25.584  -0.241  54.259  1.00  0.00     0.071 C 
BRANCH   6   9
HETATM    9  C1  UNL     1      27.507  -1.899  52.976  1.00  0.00     0.288 C 
HETATM   10  O1  UNL     1      28.730  -1.504  52.910  1.00  0.00    -0.262 OA
BRANCH   9  11
HETATM   11  O2  UNL     1      28.288  -3.020  53.094  1.00  0.00    -0.330 OA
HETATM   12  H1  UNL     1      29.232  -3.100  52.709  1.00  0.00     0.220 HD
ENDBRANCH   9  11
ENDBRANCH   6   9
BRANCH   7  13
HETATM   13  O4  UNL     1      27.760  -0.393  55.169  1.00  0.00    -0.392 OA
HETATM   14  H26 UNL     1      28.729  -0.505  54.865  1.00  0.00     0.210 HD
ENDBRANCH   7  13
ENDBRANCH   3   4
ENDBRANCH   1   2
BRANCH   1  15
HETATM   15  C7  UNL     1      21.086   0.654  52.529  1.00  0.00     0.041 C 
BRANCH  15  16
HETATM   16  C8  UNL     1      19.910   1.036  51.812  1.00  0.00    -0.021 C 
HETATM   17  C9  UNL     1      19.886   0.993  50.483  1.00  0.00    -0.026 C 
BRANCH  17  18
HETATM   18  C10 UNL     1      21.100   0.530  49.790  1.00  0.00     0.053 C 
BRANCH  18  19
HETATM   19  C11 UNL     1      21.759   1.506  48.936  1.00  0.00    -0.027 C 
BRANCH  19  20
HETATM   20  C12 UNL     1      22.681   2.470  48.856  1.00  0.00    -0.024 C 
BRANCH  20  21
HETATM   21  C13 UNL     1      23.759   3.419  48.653  1.00  0.00     0.053 C 
HETATM   22  C14 UNL     1      24.768   3.369  49.595  1.00  0.00     0.013 C 
BRANCH  22  23
HETATM   23  C15 UNL     1      25.723   4.421  49.186  1.00  0.00    -0.061 A 
HETATM   24  C16 UNL     1      25.348   5.666  48.941  1.00  0.00    -0.019 A 
HETATM   25  C17 UNL     1      26.034   6.927  48.519  1.00  0.00     0.031 A 
HETATM   26  C18 UNL     1      27.506   6.719  48.327  1.00  0.00     0.031 A 
HETATM   27  C19 UNL     1      27.903   5.328  48.609  1.00  0.00    -0.026 A 
HETATM   28  C20 UNL     1      27.175   4.297  48.982  1.00  0.00     0.003 A 
ENDBRANCH  22  23
ENDBRANCH  20  21
ENDBRANCH  19  20
ENDBRANCH  18  19
ENDBRANCH  17  18
ENDBRANCH  15  16
ENDBRANCH   1  15
TORSDOF 12
ENDMDL
MODEL 2
REMARK VINA RESULT:      -7.5      1.468      2.295
REMARK  12 active torsions:
REMARK  status: ('A' for Active; 'I' for Inactive)
REMARK    1  A    between atoms: C1_2  and  O2_3 
REMARK    2  A    between atoms: C1_2  and  C2_4 
REMARK    3  A    between atoms: C3_6  and  C4_7 
REMARK    4  A    between atoms: C5_8  and  C6_9 
REMARK    5  A    between atoms: C6_9  and  C7_10 
REMARK    6  A    between atoms: C7_10  and  C8_11 
REMARK    7  A    between atoms: C9_12  and  C10_13 
REMARK    8  A    between atoms: C10_13  and  C11_14 
REMARK    9  A    between atoms: C11_14  and  C12_15 
REMARK   10  A    between atoms: C12_15  and  C13_16 
REMARK   11  A    between atoms: C14_17  and  C15_18 
REMARK   12  A    between atoms: C22_25  and  O4_26 
ROOT
HETATM    1  C6  UNL     1      23.179   0.954  53.116  1.00  0.00    -0.017 C 
ENDROOT
BRANCH   1   2
HETATM    2  C5  UNL     1      23.834  -0.223  53.679  1.00  0.00    -0.005 C 
HETATM    3  C4  UNL     1      25.055  -0.635  53.726  1.00  0.00     0.004 C 
BRANCH   3   4
HETATM    4  C3  UNL     1      26.076   0.240  53.079  1.00  0.00     0.148 C 
HETATM    5  O3  UNL     1      26.541   1.163  54.002  1.00  0.00    -0.364 OA
HETATM    6  C2  UNL     1      27.888   1.001  54.215  1.00  0.00     0.250 C 
HETATM    7  C22 UNL     1      28.182  -0.450  53.838  1.00  0.00     0.159 C 
HETATM    8  C21 UNL     1      27.284  -0.504  52.586  1.00  0.00     0.071 C 
BRANCH   6   9
HETATM    9  C1  UNL     1      28.584   1.927  53.292  1.00  0.00     0.288 C 
HETATM   10  O1  UNL     1      28.894   2.400  54.448  1.00  0.00    -0.262 OA
BRANCH   9  11
HETATM   11  O2  UNL     1      29.388   3.015  53.068  1.00  0.00    -0.330 OA
HETATM   12  H1  UNL     1      30.402   3.010  53.194  1.00  0.00     0.220 HD
ENDBRANCH   9  11
ENDBRANCH   6   9
BRANCH   7  13
HETATM   13  O4  UNL     1      29.490  -0.584  53.430  1.00  0.00    -0.392 OA
HETATM   14  H26 UNL     1      29.980   0.294  53.612  1.00  0.00     0.210 HD
ENDBRANCH   7  13
ENDBRANCH   3   4
ENDBRANCH   1   2
BRANCH   1  15
HETATM   15  C7  UNL     1      22.028   0.859  52.577  1.00  0.00     0.041 C 
BRANCH  15  16
HETATM   16  C8  UNL     1      20.648   0.661  52.264  1.00  0.00    -0.021 C 
HETATM   17  C9  UNL     1      20.254   0.532  50.999  1.00  0.00    -0.026 C 
BRANCH  17  18
HETATM   18  C10 UNL     1      21.287   0.590  49.951  1.00  0.00     0.053 C 
BRANCH  18  19
HETATM   19  C11 UNL     1      21.713   1.922  49.549  1.00  0.00    -0.027 C 
BRANCH  19  20
HETATM   20  C12 UNL     1      22.749   2.732  49.309  1.00  0.00    -0.024 C 
BRANCH  20  21
HETATM   21  C13 UNL     1      23.964   3.470  49.025  1.00  0.00     0.053 C 
HETATM   22  C14 UNL     1      23.927   4.810  49.359  1.00  0.00     0.013 C 
BRANCH  22  23
HETATM   23  C15 UNL     1      25.252   5.336  48.968  1.00  0.00    -0.061 A 
HETATM   24  C16 UNL     1      26.353   4.606  49.026  1.00  0.00    -0.019 A 
HETATM   25  C17 UNL     1      27.801   4.827  48.720  1.00  0.00     0.031 A 
HETATM   26  C18 UNL     1      28.058   6.218  48.229  1.00  0.00     0.031 A 
HETATM   27  C19 UNL     1      26.818   7.014  48.167  1.00  0.00    -0.026 A 
HETATM   28  C20 UNL     1      25.582   6.683  48.474  1.00  0.00     0.003 A 
ENDBRANCH  22  23
ENDBRANCH  20  21
ENDBRANCH  19  20
ENDBRANCH  18  19
ENDBRANCH  17  18
ENDBRANCH  15  16
ENDBRANCH   1  15
TORSDOF 12
ENDMDL
MODEL 3
REMARK VINA RESULT:      -7.5      2.024      5.596
REMARK  12 active torsions:
REMARK  status: ('A' for Active; 'I' for Inactive)
REMARK    1  A    between atoms: C1_2  and  O2_3 
REMARK    2  A    between atoms: C1_2  and  C2_4 
REMARK    3  A    between atoms: C3_6  and  C4_7 
REMARK    4  A    between atoms: C5_8  and  C6_9 
REMARK    5  A    between atoms: C6_9  and  C7_10 
REMARK    6  A    between atoms: C7_10  and  C8_11 
REMARK    7  A    between atoms: C9_12  and  C10_13 
REMARK    8  A    between atoms: C10_13  and  C11_14 
REMARK    9  A    between atoms: C11_14  and  C12_15 
REMARK   10  A    between atoms: C12_15  and  C13_16 
REMARK   11  A    between atoms: C14_17  and  C15_18 
REMARK   12  A    between atoms: C22_25  and  O4_26 
ROOT
HETATM    1  C6  UNL     1      24.716   3.091  49.926  1.00  0.00    -0.017 C 
ENDROOT
BRANCH   1   2
HETATM    2  C5  UNL     1      24.317   2.904  51.319  1.00  0.00    -0.005 C 
HETATM    3  C4  UNL     1      24.904   2.430  52.364  1.00  0.00     0.004 C 
BRANCH   3   4
HETATM    4  C3  UNL     1      26.304   1.948  52.179  1.00  0.00     0.148 C 
HETATM    5  O3  UNL     1      27.049   2.256  53.306  1.00  0.00    -0.364 OA
HETATM    6  C2  UNL     1      27.518   1.112  53.905  1.00  0.00     0.250 C 
HETATM    7  C22 UNL     1      26.561   0.006  53.464  1.00  0.00     0.159 C 
HETATM    8  C21 UNL     1      26.413   0.461  51.998  1.00  0.00     0.071 C 
BRANCH   6   9
HETATM    9  C1  UNL     1      28.875   0.869  53.365  1.00  0.00     0.288 C 
HETATM   10  O1  UNL     1      29.036   0.664  54.625  1.00  0.00    -0.262 OA
BRANCH   9  11
HETATM   11  O2  UNL     1      30.192   0.531  53.543  1.00  0.00    -0.330 OA
HETATM   12  H1  UNL     1      30.562  -0.412  53.407  1.00  0.00     0.220 HD
ENDBRANCH   9  11
ENDBRANCH   6   9
BRANCH   7  13
HETATM   13  O4  UNL     1      27.202  -1.212  53.469  1.00  0.00    -0.392 OA
HETATM   14  H26 UNL     1      26.701  -1.846  52.843  1.00  0.00     0.210 HD
ENDBRANCH   7  13
ENDBRANCH   3   4
ENDBRANCH   1   2
BRANCH   1  15
HETATM   15  C7  UNL     1      24.007   3.801  49.140  1.00  0.00     0.041 C 
BRANCH  15  16
HETATM   16  C8  UNL     1      23.078   4.698  48.528  1.00  0.00    -0.021 C 
HETATM   17  C9  UNL     1      22.252   4.270  47.577  1.00  0.00    -0.026 C 
BRANCH  17  18
HETATM   18  C10 UNL     1      22.324   2.849  47.195  1.00  0.00     0.053 C 
BRANCH  18  19
HETATM   19  C11 UNL     1      21.573   1.925  48.030  1.00  0.00    -0.027 C 
BRANCH  19  20
HETATM   20  C12 UNL     1      21.524   1.263  49.190  1.00  0.00    -0.024 C 
BRANCH  20  21
HETATM   21  C13 UNL     1      21.640   0.532  50.437  1.00  0.00     0.053 C 
HETATM   22  C14 UNL     1      20.939   1.070  51.498  1.00  0.00     0.013 C 
BRANCH  22  23
HETATM   23  C15 UNL     1      21.223   0.170  52.637  1.00  0.00    -0.061 A 
HETATM   24  C16 UNL     1      22.449  -0.042  53.088  1.00  0.00    -0.019 A 
HETATM   25  C17 UNL     1      23.060  -0.865  54.177  1.00  0.00     0.031 A 
HETATM   26  C18 UNL     1      22.024  -1.635  54.938  1.00  0.00     0.031 A 
HETATM   27  C19 UNL     1      20.667  -1.381  54.424  1.00  0.00    -0.026 A 
HETATM   28  C20 UNL     1      20.264  -0.612  53.433  1.00  0.00     0.003 A 
ENDBRANCH  22  23
ENDBRANCH  20  21
ENDBRANCH  19  20
ENDBRANCH  18  19
ENDBRANCH  17  18
ENDBRANCH  15  16
ENDBRANCH   1  15
TORSDOF 12
ENDMDL
MODEL 4
REMARK VINA RESULT:      -7.4      1.401      2.170
REMARK  12 active torsions:
REMARK  status: ('A' for Active; 'I' for Inactive)
REMARK    1  A    between atoms: C1_2  and  O2_3 
REMARK    2  A    between atoms: C1_2  and  C2_4 
REMARK    3  A    between atoms: C3_6  and  C4_7 
REMARK    4  A    between atoms: C5_8  and  C6_9 
REMARK    5  A    between atoms: C6_9  and  C7_10 
REMARK    6  A    between atoms: C7_10  and  C8_11 
REMARK    7  A    between atoms: C9_12  and  C10_13 
REMARK    8  A    between atoms: C10_13  and  C11_14 
REMARK    9  A    between atoms: C11_14  and  C12_15 
REMARK   10  A    between atoms: C12_15  and  C13_16 
REMARK   11  A    between atoms: C14_17  and  C15_18 
REMARK   12  A    between atoms: C22_25  and  O4_26 
ROOT
HETATM    1  C6  UNL     1      23.985  -0.327  53.433  1.00  0.00    -0.017 C 
ENDROOT
BRANCH   1   2
HETATM    2  C5  UNL     1      24.762   0.892  53.643  1.00  0.00    -0.005 C 
HETATM    3  C4  UNL     1      25.972   1.133  54.015  1.00  0.00     0.004 C 
BRANCH   3   4
HETATM    4  C3  UNL     1      26.823  -0.056  54.313  1.00  0.00     0.148 C 
HETATM    5  O3  UNL     1      26.915  -0.851  53.180  1.00  0.00    -0.364 OA
HETATM    6  C2  UNL     1      28.219  -0.945  52.758  1.00  0.00     0.250 C 
HETATM    7  C22 UNL     1      28.911   0.299  53.311  1.00  0.00     0.159 C 
HETATM    8  C21 UNL     1      28.233   0.290  54.696  1.00  0.00     0.071 C 
BRANCH   6   9
HETATM    9  C1  UNL     1      28.782  -2.169  53.373  1.00  0.00     0.288 C 
HETATM   10  O1  UNL     1      27.822  -2.635  52.655  1.00  0.00    -0.262 OA
BRANCH   9  11
HETATM   11  O2  UNL     1      28.790  -3.529  53.544  1.00  0.00    -0.330 OA
HETATM   12  H1  UNL     1      28.072  -4.043  54.059  1.00  0.00     0.220 HD
ENDBRANCH   9  11
ENDBRANCH   6   9
BRANCH   7  13
HETATM   13  O4  UNL     1      30.254   0.059  53.493  1.00  0.00    -0.392 OA
HETATM   14  H26 UNL     1      30.500   0.295  54.456  1.00  0.00     0.210 HD
ENDBRANCH   7  13
ENDBRANCH   3   4
ENDBRANCH   1   2
BRANCH   1  15
HETATM   15  C7  UNL     1      22.834  -0.460  53.964  1.00  0.00     0.041 C 
BRANCH  15  16
HETATM   16  C8  UNL     1      21.586  -0.307  54.643  1.00  0.00    -0.021 C 
HETATM   17  C9  UNL     1      20.486   0.017  53.968  1.00  0.00    -0.026 C 
BRANCH  17  18
HETATM   18  C10 UNL     1      20.604   0.197  52.511  1.00  0.00     0.053 C 
BRANCH  18  19
HETATM   19  C11 UNL     1      20.987   1.527  52.062  1.00  0.00    -0.027 C 
BRANCH  19  20
HETATM   20  C12 UNL     1      21.910   2.267  51.441  1.00  0.00    -0.024 C 
BRANCH  20  21
HETATM   21  C13 UNL     1      22.992   3.078  50.918  1.00  0.00     0.053 C 
HETATM   22  C14 UNL     1      23.718   2.496  49.896  1.00  0.00     0.013 C 
BRANCH  22  23
HETATM   23  C15 UNL     1      24.752   3.494  49.548  1.00  0.00    -0.061 A 
HETATM   24  C16 UNL     1      24.455   4.739  49.213  1.00  0.00    -0.019 A 
HETATM   25  C17 UNL     1      25.233   5.954  48.816  1.00  0.00     0.031 A 
HETATM   26  C18 UNL     1      26.706   5.686  48.792  1.00  0.00     0.031 A 
HETATM   27  C19 UNL     1      27.015   4.296  49.172  1.00  0.00    -0.026 A 
HETATM   28  C20 UNL     1      26.211   3.309  49.507  1.00  0.00     0.003 A 
ENDBRANCH  22  23
ENDBRANCH  20  21
ENDBRANCH  19  20
ENDBRANCH  18  19
ENDBRANCH  17  18
ENDBRANCH  15  16
ENDBRANCH   1  15
TORSDOF 12
ENDMDL
MODEL 5
REMARK VINA RESULT:      -7.4      2.081      3.578
REMARK  12 active torsions:
REMARK  status: ('A' for Active; 'I' for Inactive)
REMARK    1  A    between atoms: C1_2  and  O2_3 
REMARK    2  A    between atoms: C1_2  and  C2_4 
REMARK    3  A    between atoms: C3_6  and  C4_7 
REMARK    4  A    between atoms: C5_8  and  C6_9 
REMARK    5  A    between atoms: C6_9  and  C7_10 
REMARK    6  A    between atoms: C7_10  and  C8_11 
REMARK    7  A    between atoms: C9_12  and  C10_13 
REMARK    8  A    between atoms: C10_13  and  C11_14 
REMARK    9  A    between atoms: C11_14  and  C12_15 
REMARK   10  A    between atoms: C12_15  and  C13_16 
REMARK   11  A    between atoms: C14_17  and  C15_18 
REMARK   12  A    between atoms: C22_25  and  O4_26 
ROOT
HETATM    1  C6  UNL     1      23.080   0.250  52.688  1.00  0.00    -0.017 C 
ENDROOT
BRANCH   1   2
HETATM    2  C5  UNL     1      23.776  -0.451  53.764  1.00  0.00    -0.005 C 
HETATM    3  C4  UNL     1      24.997  -0.477  54.176  1.00  0.00     0.004 C 
BRANCH   3   4
HETATM    4  C3  UNL     1      25.967   0.377  53.430  1.00  0.00     0.148 C 
HETATM    5  O3  UNL     1      26.550   1.281  54.305  1.00  0.00    -0.364 OA
HETATM    6  C2  UNL     1      27.908   1.083  54.374  1.00  0.00     0.250 C 
HETATM    7  C22 UNL     1      28.123  -0.372  53.959  1.00  0.00     0.159 C 
HETATM    8  C21 UNL     1      27.097  -0.392  52.808  1.00  0.00     0.071 C 
BRANCH   6   9
HETATM    9  C1  UNL     1      28.527   1.999  53.388  1.00  0.00     0.288 C 
HETATM   10  O1  UNL     1      29.069   2.372  54.494  1.00  0.00    -0.262 OA
BRANCH   9  11
HETATM   11  O2  UNL     1      29.383   3.024  53.080  1.00  0.00    -0.330 OA
HETATM   12  H1  UNL     1      30.372   2.893  52.856  1.00  0.00     0.220 HD
ENDBRANCH   9  11
ENDBRANCH   6   9
BRANCH   7  13
HETATM   13  O4  UNL     1      29.377  -0.535  53.415  1.00  0.00    -0.392 OA
HETATM   14  H26 UNL     1      29.920   0.313  53.588  1.00  0.00     0.210 HD
ENDBRANCH   7  13
ENDBRANCH   3   4
ENDBRANCH   1   2
BRANCH   1  15
HETATM   15  C7  UNL     1      23.018   1.523  52.679  1.00  0.00     0.041 C 
BRANCH  15  16
HETATM   16  C8  UNL     1      23.240   2.930  52.791  1.00  0.00    -0.021 C 
HETATM   17  C9  UNL     1      24.220   3.516  52.108  1.00  0.00    -0.026 C 
BRANCH  17  18
HETATM   18  C10 UNL     1      25.048   2.667  51.234  1.00  0.00     0.053 C 
BRANCH  18  19
HETATM   19  C11 UNL     1      25.455   3.260  49.970  1.00  0.00    -0.027 C 
BRANCH  19  20
HETATM   20  C12 UNL     1      26.437   3.859  49.288  1.00  0.00    -0.024 C 
BRANCH  20  21
HETATM   21  C13 UNL     1      27.532   4.597  48.690  1.00  0.00     0.053 C 
HETATM   22  C14 UNL     1      27.334   5.960  48.591  1.00  0.00     0.013 C 
BRANCH  22  23
HETATM   23  C15 UNL     1      28.562   6.477  47.948  1.00  0.00    -0.061 A 
HETATM   24  C16 UNL     1      28.541   7.457  47.059  1.00  0.00    -0.019 A 
HETATM   25  C17 UNL     1      29.564   8.186  46.247  1.00  0.00     0.031 A 
HETATM   26  C18 UNL     1      30.948   7.673  46.508  1.00  0.00     0.031 A 
HETATM   27  C19 UNL     1      30.949   6.586  47.504  1.00  0.00    -0.026 A 
HETATM   28  C20 UNL     1      29.949   6.031  48.156  1.00  0.00     0.003 A 
ENDBRANCH  22  23
ENDBRANCH  20  21
ENDBRANCH  19  20
ENDBRANCH  18  19
ENDBRANCH  17  18
ENDBRANCH  15  16
ENDBRANCH   1  15
TORSDOF 12
ENDMDL
MODEL 6
REMARK VINA RESULT:      -7.2      2.457      6.037
REMARK  12 active torsions:
REMARK  status: ('A' for Active; 'I' for Inactive)
REMARK    1  A    between atoms: C1_2  and  O2_3 
REMARK    2  A    between atoms: C1_2  and  C2_4 
REMARK    3  A    between atoms: C3_6  and  C4_7 
REMARK    4  A    between atoms: C5_8  and  C6_9 
REMARK    5  A    between atoms: C6_9  and  C7_10 
REMARK    6  A    between atoms: C7_10  and  C8_11 
REMARK    7  A    between atoms: C9_12  and  C10_13 
REMARK    8  A    between atoms: C10_13  and  C11_14 
REMARK    9  A    between atoms: C11_14  and  C12_15 
REMARK   10  A    between atoms: C12_15  and  C13_16 
REMARK   11  A    between atoms: C14_17  and  C15_18 
REMARK   12  A    between atoms: C22_25  and  O4_26 
ROOT
HETATM    1  C6  UNL     1      21.235   0.975  48.982  1.00  0.00    -0.017 C 
ENDROOT
BRANCH   1   2
HETATM    2  C5  UNL     1      21.516   2.256  48.339  1.00  0.00    -0.005 C 
HETATM    3  C4  UNL     1      22.409   3.169  48.510  1.00  0.00     0.004 C 
BRANCH   3   4
HETATM    4  C3  UNL     1      23.411   2.925  49.588  1.00  0.00     0.148 C 
HETATM    5  O3  UNL     1      24.687   2.967  49.048  1.00  0.00    -0.364 OA
HETATM    6  C2  UNL     1      25.420   3.981  49.614  1.00  0.00     0.250 C 
HETATM    7  C22 UNL     1      24.389   4.984  50.127  1.00  0.00     0.159 C 
HETATM    8  C21 UNL     1      23.386   3.953  50.682  1.00  0.00     0.071 C 
BRANCH   6   9
HETATM    9  C1  UNL     1      26.174   3.389  50.743  1.00  0.00     0.288 C 
HETATM   10  O1  UNL     1      27.114   3.800  49.966  1.00  0.00    -0.262 OA
BRANCH   9  11
HETATM   11  O2  UNL     1      27.358   3.077  51.360  1.00  0.00    -0.330 OA
HETATM   12  H1  UNL     1      27.454   2.360  52.082  1.00  0.00     0.220 HD
ENDBRANCH   9  11
ENDBRANCH   6   9
BRANCH   7  13
HETATM   13  O4  UNL     1      24.899   5.696  51.189  1.00  0.00    -0.392 OA
HETATM   14  H26 UNL     1      25.082   6.653  50.883  1.00  0.00     0.210 HD
ENDBRANCH   7  13
ENDBRANCH   3   4
ENDBRANCH   1   2
BRANCH   1  15
HETATM   15  C7  UNL     1      20.521   0.923  50.037  1.00  0.00     0.041 C 
BRANCH  15  16
HETATM   16  C8  UNL     1      19.688   0.559  51.140  1.00  0.00    -0.021 C 
HETATM   17  C9  UNL     1      20.081   0.796  52.389  1.00  0.00    -0.026 C 
BRANCH  17  18
HETATM   18  C10 UNL     1      21.386   1.449  52.585  1.00  0.00     0.053 C 
BRANCH  18  19
HETATM   19  C11 UNL     1      22.393   0.665  53.283  1.00  0.00    -0.027 C 
BRANCH  19  20
HETATM   20  C12 UNL     1      23.692   0.373  53.397  1.00  0.00    -0.024 C 
BRANCH  20  21
HETATM   21  C13 UNL     1      25.126   0.222  53.550  1.00  0.00     0.053 C 
HETATM   22  C14 UNL     1      25.715  -0.683  52.688  1.00  0.00     0.013 C 
BRANCH  22  23
HETATM   23  C15 UNL     1      27.150  -0.669  53.044  1.00  0.00    -0.061 A 
HETATM   24  C16 UNL     1      27.913  -1.747  52.965  1.00  0.00    -0.019 A 
HETATM   25  C17 UNL     1      29.348  -2.064  53.243  1.00  0.00     0.031 A 
HETATM   26  C18 UNL     1      30.097  -0.863  53.732  1.00  0.00     0.031 A 
HETATM   27  C19 UNL     1      29.231   0.328  53.808  1.00  0.00    -0.026 A 
HETATM   28  C20 UNL     1      27.953   0.467  53.524  1.00  0.00     0.003 A 
ENDBRANCH  22  23
ENDBRANCH  20  21
ENDBRANCH  19  20
ENDBRANCH  18  19
ENDBRANCH  17  18
ENDBRANCH  15  16
ENDBRANCH   1  15
TORSDOF 12
ENDMDL
MODEL 7
REMARK VINA RESULT:      -7.1      3.297      6.640
REMARK  12 active torsions:
REMARK  status: ('A' for Active; 'I' for Inactive)
REMARK    1  A    between atoms: C1_2  and  O2_3 
REMARK    2  A    between atoms: C1_2  and  C2_4 
REMARK    3  A    between atoms: C3_6  and  C4_7 
REMARK    4  A    between atoms: C5_8  and  C6_9 
REMARK    5  A    between atoms: C6_9  and  C7_10 
REMARK    6  A    between atoms: C7_10  and  C8_11 
REMARK    7  A    between atoms: C9_12  and  C10_13 
REMARK    8  A    between atoms: C10_13  and  C11_14 
REMARK    9  A    between atoms: C11_14  and  C12_15 
REMARK   10  A    between atoms: C12_15  and  C13_16 
REMARK   11  A    between atoms: C14_17  and  C15_18 
REMARK   12  A    between atoms: C22_25  and  O4_26 
ROOT
HETATM    1  C6  UNL     1      20.504   1.250  50.546  1.00  0.00    -0.017 C 
ENDROOT
BRANCH   1   2
HETATM    2  C5  UNL     1      21.941   1.040  50.391  1.00  0.00    -0.005 C 
HETATM    3  C4  UNL     1      22.976   1.800  50.504  1.00  0.00     0.004 C 
BRANCH   3   4
HETATM    4  C3  UNL     1      22.718   3.222  50.875  1.00  0.00     0.148 C 
HETATM    5  O3  UNL     1      23.853   3.757  51.465  1.00  0.00    -0.364 OA
HETATM    6  C2  UNL     1      24.336   4.808  50.724  1.00  0.00     0.250 C 
HETATM    7  C22 UNL     1      23.816   4.573  49.307  1.00  0.00     0.159 C 
HETATM    8  C21 UNL     1      22.401   4.105  49.702  1.00  0.00     0.071 C 
BRANCH   6   9
HETATM    9  C1  UNL     1      23.747   6.042  51.294  1.00  0.00     0.288 C 
HETATM   10  O1  UNL     1      24.924   6.429  50.946  1.00  0.00    -0.262 OA
BRANCH   9  11
HETATM   11  O2  UNL     1      23.835   7.371  51.619  1.00  0.00    -0.330 OA
HETATM   12  H1  UNL     1      23.429   7.779  52.464  1.00  0.00     0.220 HD
ENDBRANCH   9  11
ENDBRANCH   6   9
BRANCH   7  13
HETATM   13  O4  UNL     1      23.697   5.769  48.635  1.00  0.00    -0.392 OA
HETATM   14  H26 UNL     1      24.626   6.185  48.544  1.00  0.00     0.210 HD
ENDBRANCH   7  13
ENDBRANCH   3   4
ENDBRANCH   1   2
BRANCH   1  15
HETATM   15  C7  UNL     1      19.868   0.694  51.501  1.00  0.00     0.041 C 
BRANCH  15  16
HETATM   16  C8  UNL     1      19.233  -0.196  52.421  1.00  0.00    -0.021 C 
HETATM   17  C9  UNL     1      19.763  -0.419  53.620  1.00  0.00    -0.026 C 
BRANCH  17  18
HETATM   18  C10 UNL     1      21.009   0.288  53.961  1.00  0.00     0.053 C 
BRANCH  18  19
HETATM   19  C11 UNL     1      22.239  -0.473  53.800  1.00  0.00    -0.027 C 
BRANCH  19  20
HETATM   20  C12 UNL     1      23.573  -0.459  53.882  1.00  0.00    -0.024 C 
BRANCH  20  21
HETATM   21  C13 UNL     1      25.018  -0.569  53.855  1.00  0.00     0.053 C 
HETATM   22  C14 UNL     1      25.671   0.449  53.187  1.00  0.00     0.013 C 
BRANCH  22  23
HETATM   23  C15 UNL     1      27.106   0.110  53.286  1.00  0.00    -0.061 A 
HETATM   24  C16 UNL     1      27.558  -1.125  53.133  1.00  0.00    -0.019 A 
HETATM   25  C17 UNL     1      28.900  -1.785  53.173  1.00  0.00     0.031 A 
HETATM   26  C18 UNL     1      29.994  -0.802  53.459  1.00  0.00     0.031 A 
HETATM   27  C19 UNL     1      29.470   0.566  53.621  1.00  0.00    -0.026 A 
HETATM   28  C20 UNL     1      28.234   1.015  53.557  1.00  0.00     0.003 A 
ENDBRANCH  22  23
ENDBRANCH  20  21
ENDBRANCH  19  20
ENDBRANCH  18  19
ENDBRANCH  17  18
ENDBRANCH  15  16
ENDBRANCH   1  15
TORSDOF 12
ENDMDL
MODEL 8
REMARK VINA RESULT:      -6.9      2.375      4.247
REMARK  12 active torsions:
REMARK  status: ('A' for Active; 'I' for Inactive)
REMARK    1  A    between atoms: C1_2  and  O2_3 
REMARK    2  A    between atoms: C1_2  and  C2_4 
REMARK    3  A    between atoms: C3_6  and  C4_7 
REMARK    4  A    between atoms: C5_8  and  C6_9 
REMARK    5  A    between atoms: C6_9  and  C7_10 
REMARK    6  A    between atoms: C7_10  and  C8_11 
REMARK    7  A    between atoms: C9_12  and  C10_13 
REMARK    8  A    between atoms: C10_13  and  C11_14 
REMARK    9  A    between atoms: C11_14  and  C12_15 
REMARK   10  A    between atoms: C12_15  and  C13_16 
REMARK   11  A    between atoms: C14_17  and  C15_18 
REMARK   12  A    between atoms: C22_25  and  O4_26 
ROOT
HETATM    1  C6  UNL     1      23.622   3.473  52.505  1.00  0.00    -0.017 C 
ENDROOT
BRANCH   1   2
HETATM    2  C5  UNL     1      23.405   2.056  52.785  1.00  0.00    -0.005 C 
HETATM    3  C4  UNL     1      24.184   1.037  52.912  1.00  0.00     0.004 C 
BRANCH   3   4
HETATM    4  C3  UNL     1      25.645   1.293  52.750  1.00  0.00     0.148 C 
HETATM    5  O3  UNL     1      26.195   1.612  53.982  1.00  0.00    -0.364 OA
HETATM    6  C2  UNL     1      27.148   0.690  54.341  1.00  0.00     0.250 C 
HETATM    7  C22 UNL     1      26.789  -0.579  53.570  1.00  0.00     0.159 C 
HETATM    8  C21 UNL     1      26.414   0.108  52.242  1.00  0.00     0.071 C 
BRANCH   6   9
HETATM    9  C1  UNL     1      28.453   1.221  53.886  1.00  0.00     0.288 C 
HETATM   10  O1  UNL     1      28.687   0.920  55.115  1.00  0.00    -0.262 OA
BRANCH   9  11
HETATM   11  O2  UNL     1      29.766   1.535  54.124  1.00  0.00    -0.330 OA
HETATM   12  H1  UNL     1      30.081   2.441  54.478  1.00  0.00     0.220 HD
ENDBRANCH   9  11
ENDBRANCH   6   9
BRANCH   7  13
HETATM   13  O4  UNL     1      27.913  -1.342  53.353  1.00  0.00    -0.392 OA
HETATM   14  H26 UNL     1      27.951  -2.077  54.061  1.00  0.00     0.210 HD
ENDBRANCH   7  13
ENDBRANCH   3   4
ENDBRANCH   1   2
BRANCH   1  15
HETATM   15  C7  UNL     1      23.339   3.957  51.360  1.00  0.00     0.041 C 
BRANCH  15  16
HETATM   16  C8  UNL     1      23.231   4.286  49.974  1.00  0.00    -0.021 C 
HETATM   17  C9  UNL     1      24.231   4.020  49.138  1.00  0.00    -0.026 C 
BRANCH  17  18
HETATM   18  C10 UNL     1      25.433   3.372  49.690  1.00  0.00     0.053 C 
BRANCH  18  19
HETATM   19  C11 UNL     1      26.708   3.864  49.192  1.00  0.00    -0.027 C 
BRANCH  19  20
HETATM   20  C12 UNL     1      27.397   4.921  48.752  1.00  0.00    -0.024 C 
BRANCH  20  21
HETATM   21  C13 UNL     1      28.275   6.008  48.363  1.00  0.00     0.053 C 
HETATM   22  C14 UNL     1      29.609   5.668  48.246  1.00  0.00     0.013 C 
BRANCH  22  23
HETATM   23  C15 UNL     1      30.288   6.924  47.860  1.00  0.00    -0.061 A 
HETATM   24  C16 UNL     1      30.469   7.924  48.707  1.00  0.00    -0.019 A 
HETATM   25  C17 UNL     1      31.090   9.283  48.641  1.00  0.00     0.031 A 
HETATM   26  C18 UNL     1      31.638   9.576  47.277  1.00  0.00     0.031 A 
HETATM   27  C19 UNL     1      31.430   8.449  46.351  1.00  0.00    -0.026 A 
HETATM   28  C20 UNL     1      30.854   7.282  46.550  1.00  0.00     0.003 A 
ENDBRANCH  22  23
ENDBRANCH  20  21
ENDBRANCH  19  20
ENDBRANCH  18  19
ENDBRANCH  17  18
ENDBRANCH  15  16
ENDBRANCH   1  15
TORSDOF 12
ENDMDL
MODEL 9
REMARK VINA RESULT:      -6.7      4.227      8.770
REMARK  12 active torsions:
REMARK  status: ('A' for Active; 'I' for Inactive)
REMARK    1  A    between atoms: C1_2  and  O2_3 
REMARK    2  A    between atoms: C1_2  and  C2_4 
REMARK    3  A    between atoms: C3_6  and  C4_7 
REMARK    4  A    between atoms: C5_8  and  C6_9 
REMARK    5  A    between atoms: C6_9  and  C7_10 
REMARK    6  A    between atoms: C7_10  and  C8_11 
REMARK    7  A    between atoms: C9_12  and  C10_13 
REMARK    8  A    between atoms: C10_13  and  C11_14 
REMARK    9  A    between atoms: C11_14  and  C12_15 
REMARK   10  A    between atoms: C12_15  and  C13_16 
REMARK   11  A    between atoms: C14_17  and  C15_18 
REMARK   12  A    between atoms: C22_25  and  O4_26 
ROOT
HETATM    1  C6  UNL     1      28.731   8.286  45.806  1.00  0.00    -0.017 C 
ENDROOT
BRANCH   1   2
HETATM    2  C5  UNL     1      29.891   8.845  46.495  1.00  0.00    -0.005 C 
HETATM    3  C4  UNL     1      30.886   8.336  47.136  1.00  0.00     0.004 C 
BRANCH   3   4
HETATM    4  C3  UNL     1      30.923   6.847  47.231  1.00  0.00     0.148 C 
HETATM    5  O3  UNL     1      32.233   6.411  47.109  1.00  0.00    -0.364 OA
HETATM    6  C2  UNL     1      32.635   5.756  48.248  1.00  0.00     0.250 C 
HETATM    7  C22 UNL     1      31.732   6.292  49.358  1.00  0.00     0.159 C 
HETATM    8  C21 UNL     1      30.424   6.312  48.542  1.00  0.00     0.071 C 
BRANCH   6   9
HETATM    9  C1  UNL     1      32.383   4.314  48.027  1.00  0.00     0.288 C 
HETATM   10  O1  UNL     1      33.602   4.448  47.635  1.00  0.00    -0.262 OA
BRANCH   9  11
HETATM   11  O2  UNL     1      32.805   3.073  47.625  1.00  0.00    -0.330 OA
HETATM   12  H1  UNL     1      33.076   2.326  48.269  1.00  0.00     0.220 HD
ENDBRANCH   9  11
ENDBRANCH   6   9
BRANCH   7  13
HETATM   13  O4  UNL     1      31.596   5.357  50.358  1.00  0.00    -0.392 OA
HETATM   14  H26 UNL     1      32.179   4.549  50.132  1.00  0.00     0.210 HD
ENDBRANCH   7  13
ENDBRANCH   3   4
ENDBRANCH   1   2
BRANCH   1  15
HETATM   15  C7  UNL     1      27.621   8.146  46.416  1.00  0.00     0.041 C 
BRANCH  15  16
HETATM   16  C8  UNL     1      26.260   8.146  46.851  1.00  0.00    -0.021 C 
HETATM   17  C9  UNL     1      25.896   7.462  47.933  1.00  0.00    -0.026 C 
BRANCH  17  18
HETATM   18  C10 UNL     1      26.942   6.722  48.659  1.00  0.00     0.053 C 
BRANCH  18  19
HETATM   19  C11 UNL     1      26.822   5.272  48.650  1.00  0.00    -0.027 C 
BRANCH  19  20
HETATM   20  C12 UNL     1      26.779   4.156  49.383  1.00  0.00    -0.024 C 
BRANCH  20  21
HETATM   21  C13 UNL     1      26.581   2.998  50.234  1.00  0.00     0.053 C 
HETATM   22  C14 UNL     1      25.403   2.997  50.956  1.00  0.00     0.013 C 
BRANCH  22  23
HETATM   23  C15 UNL     1      25.440   1.745  51.741  1.00  0.00    -0.061 A 
HETATM   24  C16 UNL     1      26.498   0.952  51.767  1.00  0.00    -0.019 A 
HETATM   25  C17 UNL     1      26.850  -0.342  52.430  1.00  0.00     0.031 A 
HETATM   26  C18 UNL     1      25.720  -0.861  53.266  1.00  0.00     0.031 A 
HETATM   27  C19 UNL     1      24.553   0.038  53.228  1.00  0.00    -0.026 A 
HETATM   28  C20 UNL     1      24.378   1.174  52.586  1.00  0.00     0.003 A 
ENDBRANCH  22  23
ENDBRANCH  20  21
ENDBRANCH  19  20
ENDBRANCH  18  19
ENDBRANCH  17  18
ENDBRANCH  15  16
ENDBRANCH   1  15
TORSDOF 12
ENDMDL
