MODEL 1
REMARK VINA RESULT:      -7.7      0.000      0.000
REMARK  3 active torsions:
REMARK  status: ('A' for Active; 'I' for Inactive)
REMARK    1  A    between atoms: N1_1  and  C1_2 
REMARK    2  A    between atoms: C14_16  and  S1_17 
REMARK    3  A    between atoms: S1_17  and  N3_18 
ROOT
HETATM    1  C1  UNL     1      28.096   1.621  53.551  1.00  0.00     0.274 C 
HETATM    2  C2  UNL     1      27.244   0.744  52.668  1.00  0.00    -0.015 A 
HETATM    3  C3  UNL     1      26.777   0.146  51.598  1.00  0.00     0.022 A 
HETATM    4  C4  UNL     1      25.795  -0.485  52.456  1.00  0.00    -0.027 A 
HETATM    5  C5  UNL     1      26.251   0.100  53.564  1.00  0.00    -0.037 A 
HETATM    6  C6  UNL     1      26.484   0.554  54.946  1.00  0.00     0.067 C 
HETATM    7  C7  UNL     1      27.041   1.970  54.574  1.00  0.00     0.123 C 
HETATM    8  N2  UNL     1      25.861   2.613  54.118  1.00  0.00    -0.385 N 
HETATM    9  C8  UNL     1      24.801   2.158  53.256  1.00  0.00     0.013 C 
HETATM   10  C9  UNL     1      23.994   1.095  52.995  1.00  0.00    -0.013 C 
HETATM   11  C10 UNL     1      22.913   0.934  51.950  1.00  0.00     0.042 C 
HETATM   12  C11 UNL     1      22.765   2.168  51.072  1.00  0.00     0.005 C 
HETATM   13  C12 UNL     1      22.971   3.332  52.017  1.00  0.00     0.006 C 
HETATM   14  C13 UNL     1      24.478   3.274  52.299  1.00  0.00     0.057 C 
HETATM   15  C14 UNL     1      23.807  -0.259  53.534  1.00  0.00     0.083 C 
HETATM   16  C15 UNL     1      24.779  -1.154  53.256  1.00  0.00     0.037 C 
HETATM   17  H8  UNL     1      25.764   3.581  54.498  1.00  0.00     0.160 HD
ENDROOT
BRANCH  15  18
HETATM   18  S1  UNL     1      22.530  -0.960  54.479  1.00  0.00     0.239 S 
HETATM   19  O1  UNL     1      21.610   0.100  54.969  1.00  0.00    -0.206 OA
HETATM   20  O2  UNL     1      21.806  -2.009  53.678  1.00  0.00    -0.206 OA
BRANCH  18  21
HETATM   21  N3  UNL     1      23.178  -1.754  55.898  1.00  0.00    -0.225 NA
HETATM   22  H17 UNL     1      23.975  -1.168  56.259  1.00  0.00     0.136 HD
HETATM   23  H18 UNL     1      22.382  -1.787  56.568  1.00  0.00     0.136 HD
ENDBRANCH  18  21
ENDBRANCH  15  18
BRANCH   1  24
HETATM   24  N1  UNL     1      28.630   2.713  52.826  1.00  0.00     0.089 N 
HETATM   25  H1  UNL     1      28.419   3.633  53.283  1.00  0.00     0.313 HD
HETATM   26  H2  UNL     1      29.618   2.574  52.574  1.00  0.00     0.313 HD
ENDBRANCH   1  24
TORSDOF 3
ENDMDL
MODEL 2
REMARK VINA RESULT:      -7.2      2.945      4.033
REMARK  3 active torsions:
REMARK  status: ('A' for Active; 'I' for Inactive)
REMARK    1  A    between atoms: N1_1  and  C1_2 
REMARK    2  A    between atoms: C14_16  and  S1_17 
REMARK    3  A    between atoms: S1_17  and  N3_18 
ROOT
HETATM    1  C1  UNL     1      27.137   0.507  53.660  1.00  0.00     0.274 C 
HETATM    2  C2  UNL     1      26.070   1.565  53.782  1.00  0.00    -0.015 A 
HETATM    3  C3  UNL     1      25.292   2.485  54.302  1.00  0.00     0.022 A 
HETATM    4  C4  UNL     1      24.677   2.613  52.998  1.00  0.00    -0.027 A 
HETATM    5  C5  UNL     1      25.456   1.689  52.436  1.00  0.00    -0.037 A 
HETATM    6  C6  UNL     1      26.123   0.751  51.516  1.00  0.00     0.067 C 
HETATM    7  C7  UNL     1      26.474  -0.332  52.592  1.00  0.00     0.123 C 
HETATM    8  N2  UNL     1      25.188  -0.864  52.870  1.00  0.00    -0.385 N 
HETATM    9  C8  UNL     1      23.917  -0.221  53.083  1.00  0.00     0.013 C 
HETATM   10  C9  UNL     1      23.106   0.765  52.612  1.00  0.00    -0.013 C 
HETATM   11  C10 UNL     1      21.745   1.210  53.095  1.00  0.00     0.042 C 
HETATM   12  C11 UNL     1      21.269   0.419  54.304  1.00  0.00     0.005 C 
HETATM   13  C12 UNL     1      21.739  -0.995  54.041  1.00  0.00     0.006 C 
HETATM   14  C13 UNL     1      23.255  -0.892  54.256  1.00  0.00     0.057 C 
HETATM   15  C14 UNL     1      23.157   1.764  51.537  1.00  0.00     0.083 C 
HETATM   16  C15 UNL     1      24.010   2.795  51.717  1.00  0.00     0.037 C 
HETATM   17  H8  UNL     1      25.190  -1.907  52.912  1.00  0.00     0.160 HD
ENDROOT
BRANCH  15  18
HETATM   18  S1  UNL     1      22.294   1.890  50.035  1.00  0.00     0.239 S 
HETATM   19  O1  UNL     1      23.226   2.256  48.935  1.00  0.00    -0.206 OA
HETATM   20  O2  UNL     1      21.560   0.607  49.748  1.00  0.00    -0.206 OA
BRANCH  18  21
HETATM   21  N3  UNL     1      21.095   3.162  50.117  1.00  0.00    -0.225 NA
HETATM   22  H17 UNL     1      20.176   2.759  49.796  1.00  0.00     0.136 HD
HETATM   23  H18 UNL     1      21.071   3.438  51.121  1.00  0.00     0.136 HD
ENDBRANCH  18  21
ENDBRANCH  15  18
BRANCH   1  24
HETATM   24  N1  UNL     1      27.360  -0.142  54.897  1.00  0.00     0.089 N 
HETATM   25  H1  UNL     1      26.762   0.250  55.664  1.00  0.00     0.313 HD
HETATM   26  H2  UNL     1      27.337  -1.167  54.815  1.00  0.00     0.313 HD
ENDBRANCH   1  24
TORSDOF 3
ENDMDL
MODEL 3
REMARK VINA RESULT:      -6.9     11.261     13.029
REMARK  3 active torsions:
REMARK  status: ('A' for Active; 'I' for Inactive)
REMARK    1  A    between atoms: N1_1  and  C1_2 
REMARK    2  A    between atoms: C14_16  and  S1_17 
REMARK    3  A    between atoms: S1_17  and  N3_18 
ROOT
HETATM    1  C1  UNL     1      33.346   2.854  47.762  1.00  0.00     0.274 C 
HETATM    2  C2  UNL     1      32.483   4.090  47.720  1.00  0.00    -0.015 A 
HETATM    3  C3  UNL     1      31.426   4.858  47.608  1.00  0.00     0.022 A 
HETATM    4  C4  UNL     1      32.301   5.989  47.838  1.00  0.00    -0.027 A 
HETATM    5  C5  UNL     1      33.394   5.237  47.965  1.00  0.00    -0.037 A 
HETATM    6  C6  UNL     1      34.764   4.730  48.160  1.00  0.00     0.067 C 
HETATM    7  C7  UNL     1      34.619   3.474  47.235  1.00  0.00     0.123 C 
HETATM    8  N2  UNL     1      34.579   4.084  45.954  1.00  0.00    -0.385 N 
HETATM    9  C8  UNL     1      33.876   5.245  45.475  1.00  0.00     0.013 C 
HETATM   10  C9  UNL     1      33.551   6.527  45.793  1.00  0.00    -0.013 C 
HETATM   11  C10 UNL     1      32.745   7.543  45.016  1.00  0.00     0.042 C 
HETATM   12  C11 UNL     1      32.225   6.988  43.699  1.00  0.00     0.005 C 
HETATM   13  C12 UNL     1      33.347   6.111  43.187  1.00  0.00     0.006 C 
HETATM   14  C13 UNL     1      33.289   4.903  44.132  1.00  0.00     0.057 C 
HETATM   15  C14 UNL     1      33.791   7.439  46.920  1.00  0.00     0.083 C 
HETATM   16  C15 UNL     1      33.119   7.173  48.060  1.00  0.00     0.037 C 
HETATM   17  H8  UNL     1      35.182   3.590  45.260  1.00  0.00     0.160 HD
ENDROOT
BRANCH  15  18
HETATM   18  S1  UNL     1      34.794   8.848  47.073  1.00  0.00     0.239 S 
HETATM   19  O1  UNL     1      33.954  10.066  47.217  1.00  0.00    -0.206 OA
HETATM   20  O2  UNL     1      35.751   8.684  48.223  1.00  0.00    -0.206 OA
BRANCH  18  21
HETATM   21  N3  UNL     1      35.759   9.077  45.630  1.00  0.00    -0.225 NA
HETATM   22  H17 UNL     1      36.506   8.334  45.622  1.00  0.00     0.136 HD
HETATM   23  H18 UNL     1      35.088   8.965  44.843  1.00  0.00     0.136 HD
ENDBRANCH  18  21
ENDBRANCH  15  18
BRANCH   1  24
HETATM   24  N1  UNL     1      32.797   1.817  46.972  1.00  0.00     0.089 N 
HETATM   25  H1  UNL     1      32.003   2.153  46.374  1.00  0.00     0.313 HD
HETATM   26  H2  UNL     1      33.517   1.281  46.469  1.00  0.00     0.313 HD
ENDBRANCH   1  24
TORSDOF 3
ENDMDL
MODEL 4
REMARK VINA RESULT:      -6.8      3.519      5.982
REMARK  3 active torsions:
REMARK  status: ('A' for Active; 'I' for Inactive)
REMARK    1  A    between atoms: N1_1  and  C1_2 
REMARK    2  A    between atoms: C14_16  and  S1_17 
REMARK    3  A    between atoms: S1_17  and  N3_18 
ROOT
HETATM    1  C1  UNL     1      19.173   3.000  50.604  1.00  0.00     0.274 C 
HETATM    2  C2  UNL     1      20.195   1.957  50.225  1.00  0.00    -0.015 A 
HETATM    3  C3  UNL     1      20.716   0.841  49.774  1.00  0.00     0.022 A 
HETATM    4  C4  UNL     1      22.014   1.380  50.122  1.00  0.00    -0.027 A 
HETATM    5  C5  UNL     1      21.518   2.529  50.580  1.00  0.00    -0.037 A 
HETATM    6  C6  UNL     1      21.323   3.875  51.148  1.00  0.00     0.067 C 
HETATM    7  C7  UNL     1      19.915   3.599  51.776  1.00  0.00     0.123 C 
HETATM    8  N2  UNL     1      20.262   2.740  52.851  1.00  0.00    -0.385 N 
HETATM    9  C8  UNL     1      21.162   1.618  52.920  1.00  0.00     0.013 C 
HETATM   10  C9  UNL     1      22.396   1.190  52.540  1.00  0.00    -0.013 C 
HETATM   11  C10 UNL     1      23.082  -0.133  52.795  1.00  0.00     0.042 C 
HETATM   12  C11 UNL     1      22.207  -1.101  53.577  1.00  0.00     0.005 C 
HETATM   13  C12 UNL     1      21.480  -0.229  54.578  1.00  0.00     0.006 C 
HETATM   14  C13 UNL     1      20.476   0.528  53.699  1.00  0.00     0.057 C 
HETATM   15  C14 UNL     1      23.527   1.739  51.780  1.00  0.00     0.083 C 
HETATM   16  C15 UNL     1      23.351   1.857  50.446  1.00  0.00     0.037 C 
HETATM   17  H8  UNL     1      19.772   2.995  53.737  1.00  0.00     0.160 HD
ENDROOT
BRANCH  15  18
HETATM   18  S1  UNL     1      25.104   2.270  52.276  1.00  0.00     0.239 S 
HETATM   19  O1  UNL     1      25.075   2.712  53.696  1.00  0.00    -0.206 OA
HETATM   20  O2  UNL     1      26.117   1.181  52.045  1.00  0.00    -0.206 OA
BRANCH  18  21
HETATM   21  N3  UNL     1      25.613   3.654  51.333  1.00  0.00    -0.225 NA
HETATM   22  H17 UNL     1      25.371   4.522  51.879  1.00  0.00     0.136 HD
HETATM   23  H18 UNL     1      26.642   3.535  51.224  1.00  0.00     0.136 HD
ENDBRANCH  18  21
ENDBRANCH  15  18
BRANCH   1  24
HETATM   24  N1  UNL     1      17.924   2.407  50.908  1.00  0.00     0.089 N 
HETATM   25  H1  UNL     1      17.421   2.080  50.048  1.00  0.00     0.313 HD
HETATM   26  H2  UNL     1      17.992   1.708  51.659  1.00  0.00     0.313 HD
ENDBRANCH   1  24
TORSDOF 3
ENDMDL
MODEL 5
REMARK VINA RESULT:      -6.8      3.532      5.715
REMARK  3 active torsions:
REMARK  status: ('A' for Active; 'I' for Inactive)
REMARK    1  A    between atoms: N1_1  and  C1_2 
REMARK    2  A    between atoms: C14_16  and  S1_17 
REMARK    3  A    between atoms: S1_17  and  N3_18 
ROOT
HETATM    1  C1  UNL     1      20.048   1.069  52.654  1.00  0.00     0.274 C 
HETATM    2  C2  UNL     1      20.804   2.363  52.482  1.00  0.00    -0.015 A 
HETATM    3  C3  UNL     1      21.051   3.634  52.269  1.00  0.00     0.022 A 
HETATM    4  C4  UNL     1      22.455   3.326  52.446  1.00  0.00    -0.027 A 
HETATM    5  C5  UNL     1      22.238   2.031  52.675  1.00  0.00    -0.037 A 
HETATM    6  C6  UNL     1      22.364   0.591  52.962  1.00  0.00     0.067 C 
HETATM    7  C7  UNL     1      21.116   0.136  52.132  1.00  0.00     0.123 C 
HETATM    8  N2  UNL     1      21.585   0.339  50.807  1.00  0.00    -0.385 N 
HETATM    9  C8  UNL     1      22.316   1.427  50.213  1.00  0.00     0.013 C 
HETATM   10  C9  UNL     1      23.359   2.276  50.418  1.00  0.00    -0.013 C 
HETATM   11  C10 UNL     1      23.900   3.376  49.533  1.00  0.00     0.042 C 
HETATM   12  C11 UNL     1      23.109   3.527  48.243  1.00  0.00     0.005 C 
HETATM   13  C12 UNL     1      22.758   2.110  47.846  1.00  0.00     0.006 C 
HETATM   14  C13 UNL     1      21.689   1.725  48.877  1.00  0.00     0.057 C 
HETATM   15  C14 UNL     1      24.345   2.515  51.481  1.00  0.00     0.083 C 
HETATM   16  C15 UNL     1      23.882   3.092  52.610  1.00  0.00     0.037 C 
HETATM   17  H8  UNL     1      21.353  -0.461  50.177  1.00  0.00     0.160 HD
ENDROOT
BRANCH  15  18
HETATM   18  S1  UNL     1      26.051   2.201  51.564  1.00  0.00     0.239 S 
HETATM   19  O1  UNL     1      26.320   0.754  51.353  1.00  0.00    -0.206 OA
HETATM   20  O2  UNL     1      26.788   3.063  50.573  1.00  0.00    -0.206 OA
BRANCH  18  21
HETATM   21  N3  UNL     1      26.674   2.598  53.152  1.00  0.00    -0.225 NA
HETATM   22  H17 UNL     1      27.590   2.092  53.274  1.00  0.00     0.136 HD
HETATM   23  H18 UNL     1      26.798   3.631  53.136  1.00  0.00     0.136 HD
ENDBRANCH  18  21
ENDBRANCH  15  18
BRANCH   1  24
HETATM   24  N1  UNL     1      18.836   1.082  51.923  1.00  0.00     0.089 N 
HETATM   25  H1  UNL     1      18.959   0.724  50.946  1.00  0.00     0.313 HD
HETATM   26  H2  UNL     1      18.058   0.656  52.443  1.00  0.00     0.313 HD
ENDBRANCH   1  24
TORSDOF 3
ENDMDL
MODEL 6
REMARK VINA RESULT:      -6.7      3.551      5.459
REMARK  3 active torsions:
REMARK  status: ('A' for Active; 'I' for Inactive)
REMARK    1  A    between atoms: N1_1  and  C1_2 
REMARK    2  A    between atoms: C14_16  and  S1_17 
REMARK    3  A    between atoms: S1_17  and  N3_18 
ROOT
HETATM    1  C1  UNL     1      22.085   6.026  49.952  1.00  0.00     0.274 C 
HETATM    2  C2  UNL     1      22.573   4.698  49.429  1.00  0.00    -0.015 A 
HETATM    3  C3  UNL     1      22.638   3.593  48.725  1.00  0.00     0.022 A 
HETATM    4  C4  UNL     1      23.843   3.270  49.460  1.00  0.00    -0.027 A 
HETATM    5  C5  UNL     1      23.811   4.387  50.186  1.00  0.00    -0.037 A 
HETATM    6  C6  UNL     1      24.083   5.483  51.134  1.00  0.00     0.067 C 
HETATM    7  C7  UNL     1      22.588   5.887  51.369  1.00  0.00     0.123 C 
HETATM    8  N2  UNL     1      22.127   4.782  52.131  1.00  0.00    -0.385 N 
HETATM    9  C8  UNL     1      22.330   3.365  51.974  1.00  0.00     0.013 C 
HETATM   10  C9  UNL     1      23.276   2.427  51.697  1.00  0.00    -0.013 C 
HETATM   11  C10 UNL     1      23.150   0.924  51.603  1.00  0.00     0.042 C 
HETATM   12  C11 UNL     1      21.726   0.444  51.841  1.00  0.00     0.005 C 
HETATM   13  C12 UNL     1      21.198   1.350  52.932  1.00  0.00     0.006 C 
HETATM   14  C13 UNL     1      21.007   2.684  52.200  1.00  0.00     0.057 C 
HETATM   15  C14 UNL     1      24.711   2.422  51.382  1.00  0.00     0.083 C 
HETATM   16  C15 UNL     1      25.058   2.878  50.160  1.00  0.00     0.037 C 
HETATM   17  H8  UNL     1      21.549   5.077  52.950  1.00  0.00     0.160 HD
ENDROOT
BRANCH  15  18
HETATM   18  S1  UNL     1      26.094   1.913  52.302  1.00  0.00     0.239 S 
HETATM   19  O1  UNL     1      25.847   2.112  53.754  1.00  0.00    -0.206 OA
HETATM   20  O2  UNL     1      26.436   0.483  51.978  1.00  0.00    -0.206 OA
BRANCH  18  21
HETATM   21  N3  UNL     1      27.494   2.881  51.896  1.00  0.00    -0.225 NA
HETATM   22  H17 UNL     1      28.177   2.810  52.695  1.00  0.00     0.136 HD
HETATM   23  H18 UNL     1      27.868   2.452  51.024  1.00  0.00     0.136 HD
ENDBRANCH  18  21
ENDBRANCH  15  18
BRANCH   1  24
HETATM   24  N1  UNL     1      20.683   6.150  49.809  1.00  0.00     0.089 N 
HETATM   25  H1  UNL     1      20.161   5.535  50.479  1.00  0.00     0.313 HD
HETATM   26  H2  UNL     1      20.373   7.130  49.794  1.00  0.00     0.313 HD
ENDBRANCH   1  24
TORSDOF 3
ENDMDL
MODEL 7
REMARK VINA RESULT:      -6.5     10.222     11.756
REMARK  3 active torsions:
REMARK  status: ('A' for Active; 'I' for Inactive)
REMARK    1  A    between atoms: N1_1  and  C1_2 
REMARK    2  A    between atoms: C14_16  and  S1_17 
REMARK    3  A    between atoms: S1_17  and  N3_18 
ROOT
HETATM    1  C1  UNL     1      34.611   3.673  47.428  1.00  0.00     0.274 C 
HETATM    2  C2  UNL     1      33.158   3.896  47.090  1.00  0.00    -0.015 A 
HETATM    3  C3  UNL     1      31.987   3.762  46.516  1.00  0.00     0.022 A 
HETATM    4  C4  UNL     1      31.519   4.840  47.363  1.00  0.00    -0.027 A 
HETATM    5  C5  UNL     1      32.694   4.996  47.971  1.00  0.00    -0.037 A 
HETATM    6  C6  UNL     1      33.813   5.431  48.827  1.00  0.00     0.067 C 
HETATM    7  C7  UNL     1      34.954   5.094  47.809  1.00  0.00     0.123 C 
HETATM    8  N2  UNL     1      34.756   6.108  46.836  1.00  0.00    -0.385 N 
HETATM    9  C8  UNL     1      33.558   6.616  46.221  1.00  0.00     0.013 C 
HETATM   10  C9  UNL     1      32.281   7.004  46.486  1.00  0.00    -0.013 C 
HETATM   11  C10 UNL     1      31.213   7.522  45.550  1.00  0.00     0.042 C 
HETATM   12  C11 UNL     1      31.683   7.577  44.105  1.00  0.00     0.005 C 
HETATM   13  C12 UNL     1      33.128   8.017  44.192  1.00  0.00     0.006 C 
HETATM   14  C13 UNL     1      33.828   6.770  44.748  1.00  0.00     0.057 C 
HETATM   15  C14 UNL     1      31.417   7.089  47.672  1.00  0.00     0.083 C 
HETATM   16  C15 UNL     1      30.980   5.917  48.180  1.00  0.00     0.037 C 
HETATM   17  H8  UNL     1      35.653   6.554  46.539  1.00  0.00     0.160 HD
ENDROOT
BRANCH  15  18
HETATM   18  S1  UNL     1      30.819   8.450  48.570  1.00  0.00     0.239 S 
HETATM   19  O1  UNL     1      31.296   9.719  47.960  1.00  0.00    -0.206 OA
HETATM   20  O2  UNL     1      29.317   8.396  48.656  1.00  0.00    -0.206 OA
BRANCH  18  21
HETATM   21  N3  UNL     1      31.429   8.423  50.210  1.00  0.00    -0.225 NA
HETATM   22  H17 UNL     1      31.204   7.479  50.621  1.00  0.00     0.136 HD
HETATM   23  H18 UNL     1      32.454   8.573  50.113  1.00  0.00     0.136 HD
ENDBRANCH  18  21
ENDBRANCH  15  18
BRANCH   1  24
HETATM   24  N1  UNL     1      35.321   3.147  46.323  1.00  0.00     0.089 N 
HETATM   25  H1  UNL     1      35.042   2.160  46.106  1.00  0.00     0.313 HD
HETATM   26  H2  UNL     1      35.318   3.782  45.514  1.00  0.00     0.313 HD
ENDBRANCH   1  24
TORSDOF 3
ENDMDL
MODEL 8
REMARK VINA RESULT:      -6.5      4.390      6.365
REMARK  3 active torsions:
REMARK  status: ('A' for Active; 'I' for Inactive)
REMARK    1  A    between atoms: N1_1  and  C1_2 
REMARK    2  A    between atoms: C14_16  and  S1_17 
REMARK    3  A    between atoms: S1_17  and  N3_18 
ROOT
HETATM    1  C1  UNL     1      21.281   1.052  51.738  1.00  0.00     0.274 C 
HETATM    2  C2  UNL     1      21.720   1.687  50.441  1.00  0.00    -0.015 A 
HETATM    3  C3  UNL     1      22.105   1.815  49.194  1.00  0.00     0.022 A 
HETATM    4  C4  UNL     1      22.152   3.245  49.422  1.00  0.00    -0.027 A 
HETATM    5  C5  UNL     1      21.754   3.150  50.691  1.00  0.00    -0.037 A 
HETATM    6  C6  UNL     1      21.345   3.410  52.082  1.00  0.00     0.067 C 
HETATM    7  C7  UNL     1      21.886   2.067  52.679  1.00  0.00     0.123 C 
HETATM    8  N2  UNL     1      23.287   2.285  52.609  1.00  0.00    -0.385 N 
HETATM    9  C8  UNL     1      24.114   2.835  51.567  1.00  0.00     0.013 C 
HETATM   10  C9  UNL     1      24.189   3.844  50.658  1.00  0.00    -0.013 C 
HETATM   11  C10 UNL     1      25.266   4.156  49.644  1.00  0.00     0.042 C 
HETATM   12  C11 UNL     1      26.402   3.144  49.674  1.00  0.00     0.005 C 
HETATM   13  C12 UNL     1      26.579   2.816  51.140  1.00  0.00     0.006 C 
HETATM   14  C13 UNL     1      25.339   1.968  51.449  1.00  0.00     0.057 C 
HETATM   15  C14 UNL     1      23.351   4.984  50.260  1.00  0.00     0.083 C 
HETATM   16  C15 UNL     1      22.224   4.691  49.578  1.00  0.00     0.037 C 
HETATM   17  H8  UNL     1      23.778   1.996  53.484  1.00  0.00     0.160 HD
ENDROOT
BRANCH  15  18
HETATM   18  S1  UNL     1      23.543   6.695  50.492  1.00  0.00     0.239 S 
HETATM   19  O1  UNL     1      24.223   7.301  49.317  1.00  0.00    -0.206 OA
HETATM   20  O2  UNL     1      22.208   7.335  50.764  1.00  0.00    -0.206 OA
BRANCH  18  21
HETATM   21  N3  UNL     1      24.561   7.018  51.879  1.00  0.00    -0.225 NA
HETATM   22  H17 UNL     1      24.708   6.108  52.389  1.00  0.00     0.136 HD
HETATM   23  H18 UNL     1      25.446   7.388  51.476  1.00  0.00     0.136 HD
ENDBRANCH  18  21
ENDBRANCH  15  18
BRANCH   1  24
HETATM   24  N1  UNL     1      21.779  -0.267  51.857  1.00  0.00     0.089 N 
HETATM   25  H1  UNL     1      21.393  -0.905  51.120  1.00  0.00     0.313 HD
HETATM   26  H2  UNL     1      22.803  -0.294  51.957  1.00  0.00     0.313 HD
ENDBRANCH   1  24
TORSDOF 3
ENDMDL
MODEL 9
REMARK VINA RESULT:      -6.5      4.511      6.339
REMARK  3 active torsions:
REMARK  status: ('A' for Active; 'I' for Inactive)
REMARK    1  A    between atoms: N1_1  and  C1_2 
REMARK    2  A    between atoms: C14_16  and  S1_17 
REMARK    3  A    between atoms: S1_17  and  N3_18 
ROOT
HETATM    1  C1  UNL     1      22.427   0.964  52.883  1.00  0.00     0.274 C 
HETATM    2  C2  UNL     1      21.513   2.104  52.505  1.00  0.00    -0.015 A 
HETATM    3  C3  UNL     1      20.426   2.767  52.193  1.00  0.00     0.022 A 
HETATM    4  C4  UNL     1      21.253   3.950  52.086  1.00  0.00    -0.027 A 
HETATM    5  C5  UNL     1      22.376   3.308  52.408  1.00  0.00    -0.037 A 
HETATM    6  C6  UNL     1      23.765   2.931  52.722  1.00  0.00     0.067 C 
HETATM    7  C7  UNL     1      23.673   1.461  52.189  1.00  0.00     0.123 C 
HETATM    8  N2  UNL     1      23.609   1.685  50.789  1.00  0.00    -0.385 N 
HETATM    9  C8  UNL     1      22.858   2.635  50.010  1.00  0.00     0.013 C 
HETATM   10  C9  UNL     1      22.481   3.941  49.959  1.00  0.00    -0.013 C 
HETATM   11  C10 UNL     1      21.635   4.664  48.937  1.00  0.00     0.042 C 
HETATM   12  C11 UNL     1      21.138   3.741  47.834  1.00  0.00     0.005 C 
HETATM   13  C12 UNL     1      22.296   2.801  47.577  1.00  0.00     0.006 C 
HETATM   14  C13 UNL     1      22.287   1.906  48.824  1.00  0.00     0.057 C 
HETATM   15  C14 UNL     1      22.683   5.142  50.782  1.00  0.00     0.083 C 
HETATM   16  C15 UNL     1      22.022   5.180  51.958  1.00  0.00     0.037 C 
HETATM   17  H8  UNL     1      24.232   1.039  50.254  1.00  0.00     0.160 HD
ENDROOT
BRANCH  15  18
HETATM   18  S1  UNL     1      23.628   6.575  50.521  1.00  0.00     0.239 S 
HETATM   19  O1  UNL     1      24.620   6.348  49.437  1.00  0.00    -0.206 OA
HETATM   20  O2  UNL     1      22.727   7.745  50.225  1.00  0.00    -0.206 OA
BRANCH  18  21
HETATM   21  N3  UNL     1      24.542   6.981  51.957  1.00  0.00    -0.225 NA
HETATM   22  H17 UNL     1      25.500   7.296  51.651  1.00  0.00     0.136 HD
HETATM   23  H18 UNL     1      24.002   7.750  52.405  1.00  0.00     0.136 HD
ENDBRANCH  18  21
ENDBRANCH  15  18
BRANCH   1  24
HETATM   24  N1  UNL     1      21.921  -0.274  52.422  1.00  0.00     0.089 N 
HETATM   25  H1  UNL     1      21.057  -0.156  51.839  1.00  0.00     0.313 HD
HETATM   26  H2  UNL     1      22.649  -0.864  51.998  1.00  0.00     0.313 HD
ENDBRANCH   1  24
TORSDOF 3
ENDMDL
