MODEL 1
REMARK VINA RESULT:      -9.3      0.000      0.000
REMARK  11 active torsions:
REMARK  status: ('A' for Active; 'I' for Inactive)
REMARK    1  A    between atoms: C2_2  and  C3_3 
REMARK    2  A    between atoms: C9_10  and  C10_11 
REMARK    3  A    between atoms: C10_11  and  C20_22 
REMARK    4  A    between atoms: C11_12  and  C12_13 
REMARK    5  A    between atoms: C12_13  and  C13_14 
REMARK    6  A    between atoms: C17_18  and  O1_19 
REMARK    7  A    between atoms: C20_22  and  N2_23 
REMARK    8  A    between atoms: C23_26  and  C24_27 
REMARK    9  A    between atoms: C24_27  and  C25_28 
REMARK   10  A    between atoms: C25_28  and  C26_29 
REMARK   11  A    between atoms: C26_29  and  O3_31 
ROOT
HETATM    1  C3  UNL     1      22.466   0.642  52.828  1.00  0.00    -0.035 C 
HETATM    2  C4  UNL     1      22.385  -0.744  53.344  1.00  0.00     0.041 C 
HETATM    3  C5  UNL     1      23.483  -0.879  54.398  1.00  0.00     0.009 C 
HETATM    4  C6  UNL     1      24.808  -0.894  53.674  1.00  0.00     0.042 C 
HETATM    5  C7  UNL     1      24.916   0.289  52.834  1.00  0.00    -0.024 C 
HETATM    6  C8  UNL     1      23.817   0.974  52.462  1.00  0.00     0.045 C 
HETATM    7  N1  UNL     1      23.889   2.147  51.621  1.00  0.00    -0.354 N 
HETATM    8  C9  UNL     1      24.984   2.990  51.297  1.00  0.00     0.052 C 
HETATM    9  C21 UNL     1      26.204   2.629  51.561  1.00  0.00     0.016 C 
HETATM   10  C22 UNL     1      26.645   1.441  51.553  1.00  0.00    -0.004 C 
HETATM   11  C23 UNL     1      26.330   0.568  52.503  1.00  0.00    -0.037 C 
HETATM   12  H11 UNL     1      22.983   2.379  51.204  1.00  0.00     0.166 HD
ENDROOT
BRANCH   8  13
HETATM   13  C10 UNL     1      24.768   4.281  50.659  1.00  0.00    -0.017 C 
HETATM   14  C11 UNL     1      25.489   4.744  49.682  1.00  0.00    -0.011 C 
BRANCH  14  15
HETATM   15  C12 UNL     1      25.630   5.893  48.802  1.00  0.00     0.066 C 
BRANCH  15  16
HETATM   16  C13 UNL     1      27.070   6.194  48.503  1.00  0.00    -0.052 A 
HETATM   17  C14 UNL     1      27.947   5.104  48.483  1.00  0.00     0.007 A 
HETATM   18  C15 UNL     1      29.274   5.346  48.213  1.00  0.00     0.003 A 
HETATM   19  C16 UNL     1      29.699   6.623  47.972  1.00  0.00     0.037 A 
HETATM   20  C17 UNL     1      28.870   7.728  47.981  1.00  0.00     0.068 A 
HETATM   21  C19 UNL     1      27.554   7.461  48.253  1.00  0.00     0.044 A 
BRANCH  20  22
HETATM   22  O1  UNL     1      29.332   9.014  47.733  1.00  0.00    -0.356 OA
HETATM   23  C18 UNL     1      30.260   9.617  48.625  1.00  0.00     0.210 C 
ENDBRANCH  20  22
ENDBRANCH  15  16
ENDBRANCH  14  15
BRANCH  13  24
HETATM   24  C20 UNL     1      23.621   5.012  51.259  1.00  0.00     0.152 C 
BRANCH  24  25
HETATM   25  N2  UNL     1      23.834   5.510  52.569  1.00  0.00    -0.426 N 
HETATM   26  H24 UNL     1      24.044   6.512  52.555  1.00  0.00     0.150 HD
HETATM   27  H25 UNL     1      24.341   4.918  53.231  1.00  0.00     0.150 HD
ENDBRANCH  24  25
ENDBRANCH  13  24
ENDBRANCH   8  13
BRANCH   1  28
HETATM   28  C2  UNL     1      21.466   1.494  52.701  1.00  0.00    -0.022 C 
HETATM   29  C1  UNL     1      20.191   0.739  52.803  1.00  0.00     0.036 C 
ENDBRANCH   1  28
BRANCH  11  30
HETATM   30  C24 UNL     1      27.319  -0.198  53.309  1.00  0.00     0.050 C 
BRANCH  30  31
HETATM   31  C25 UNL     1      27.729   0.603  54.524  1.00  0.00     0.114 C 
BRANCH  31  32
HETATM   32  C26 UNL     1      29.110   1.156  54.292  1.00  0.00     0.139 C 
HETATM   33  O2  UNL     1      29.438   2.226  54.910  1.00  0.00    -0.650 OA
BRANCH  32  34
HETATM   34  O3  UNL     1      29.991   0.518  53.432  1.00  0.00    -0.776 OA
HETATM   35  H30 UNL     1      30.193  -0.488  53.545  1.00  0.00     0.167 HD
ENDBRANCH  32  34
ENDBRANCH  31  32
ENDBRANCH  30  31
ENDBRANCH  11  30
TORSDOF 11
ENDMDL
MODEL 2
REMARK VINA RESULT:      -9.2      1.139      1.549
REMARK  11 active torsions:
REMARK  status: ('A' for Active; 'I' for Inactive)
REMARK    1  A    between atoms: C2_2  and  C3_3 
REMARK    2  A    between atoms: C9_10  and  C10_11 
REMARK    3  A    between atoms: C10_11  and  C20_22 
REMARK    4  A    between atoms: C11_12  and  C12_13 
REMARK    5  A    between atoms: C12_13  and  C13_14 
REMARK    6  A    between atoms: C17_18  and  O1_19 
REMARK    7  A    between atoms: C20_22  and  N2_23 
REMARK    8  A    between atoms: C23_26  and  C24_27 
REMARK    9  A    between atoms: C24_27  and  C25_28 
REMARK   10  A    between atoms: C25_28  and  C26_29 
REMARK   11  A    between atoms: C26_29  and  O3_31 
ROOT
HETATM    1  C3  UNL     1      22.598   0.607  52.988  1.00  0.00    -0.035 C 
HETATM    2  C4  UNL     1      22.596  -0.798  53.455  1.00  0.00     0.041 C 
HETATM    3  C5  UNL     1      23.778  -0.938  54.414  1.00  0.00     0.009 C 
HETATM    4  C6  UNL     1      25.042  -0.887  53.588  1.00  0.00     0.042 C 
HETATM    5  C7  UNL     1      25.049   0.329  52.788  1.00  0.00    -0.024 C 
HETATM    6  C8  UNL     1      23.907   0.993  52.530  1.00  0.00     0.045 C 
HETATM    7  N1  UNL     1      23.879   2.197  51.731  1.00  0.00    -0.354 N 
HETATM    8  C9  UNL     1      24.922   3.084  51.354  1.00  0.00     0.052 C 
HETATM    9  C21 UNL     1      26.168   2.751  51.508  1.00  0.00     0.016 C 
HETATM   10  C22 UNL     1      26.639   1.578  51.420  1.00  0.00    -0.004 C 
HETATM   11  C23 UNL     1      26.425   0.661  52.358  1.00  0.00    -0.037 C 
HETATM   12  H11 UNL     1      22.937   2.417  51.396  1.00  0.00     0.166 HD
ENDROOT
BRANCH   8  13
HETATM   13  C10 UNL     1      24.621   4.390  50.785  1.00  0.00    -0.017 C 
HETATM   14  C11 UNL     1      25.092   4.820  49.654  1.00  0.00    -0.011 C 
BRANCH  14  15
HETATM   15  C12 UNL     1      25.066   5.968  48.760  1.00  0.00     0.066 C 
BRANCH  15  16
HETATM   16  C13 UNL     1      26.443   6.356  48.309  1.00  0.00    -0.052 A 
HETATM   17  C14 UNL     1      26.566   7.586  47.654  1.00  0.00     0.007 A 
HETATM   18  C15 UNL     1      27.816   7.970  47.227  1.00  0.00     0.003 A 
HETATM   19  C16 UNL     1      28.893   7.157  47.450  1.00  0.00     0.037 A 
HETATM   20  C17 UNL     1      28.819   5.936  48.092  1.00  0.00     0.068 A 
HETATM   21  C19 UNL     1      27.564   5.577  48.507  1.00  0.00     0.044 A 
BRANCH  20  22
HETATM   22  O1  UNL     1      29.931   5.133  48.303  1.00  0.00    -0.356 OA
HETATM   23  C18 UNL     1      31.205   5.728  48.518  1.00  0.00     0.210 C 
ENDBRANCH  20  22
ENDBRANCH  15  16
ENDBRANCH  14  15
BRANCH  13  24
HETATM   24  C20 UNL     1      23.706   5.177  51.655  1.00  0.00     0.152 C 
BRANCH  24  25
HETATM   25  N2  UNL     1      24.300   6.274  52.328  1.00  0.00    -0.426 N 
HETATM   26  H24 UNL     1      23.929   6.371  53.277  1.00  0.00     0.150 HD
HETATM   27  H25 UNL     1      24.486   7.123  51.790  1.00  0.00     0.150 HD
ENDBRANCH  24  25
ENDBRANCH  13  24
ENDBRANCH   8  13
BRANCH   1  28
HETATM   28  C2  UNL     1      21.569   1.432  52.972  1.00  0.00    -0.022 C 
HETATM   29  C1  UNL     1      20.439   0.786  53.688  1.00  0.00     0.036 C 
ENDBRANCH   1  28
BRANCH  11  30
HETATM   30  C24 UNL     1      27.495  -0.103  53.054  1.00  0.00     0.050 C 
BRANCH  30  31
HETATM   31  C25 UNL     1      28.784   0.688  53.048  1.00  0.00     0.114 C 
BRANCH  31  32
HETATM   32  C26 UNL     1      29.014   1.243  54.428  1.00  0.00     0.139 C 
HETATM   33  O2  UNL     1      28.605   0.556  55.426  1.00  0.00    -0.650 OA
BRANCH  32  34
HETATM   34  O3  UNL     1      29.649   2.462  54.602  1.00  0.00    -0.776 OA
HETATM   35  H30 UNL     1      29.424   3.260  53.987  1.00  0.00     0.167 HD
ENDBRANCH  32  34
ENDBRANCH  31  32
ENDBRANCH  30  31
ENDBRANCH  11  30
TORSDOF 11
ENDMDL
MODEL 3
REMARK VINA RESULT:      -9.2      2.738      4.311
REMARK  11 active torsions:
REMARK  status: ('A' for Active; 'I' for Inactive)
REMARK    1  A    between atoms: C2_2  and  C3_3 
REMARK    2  A    between atoms: C9_10  and  C10_11 
REMARK    3  A    between atoms: C10_11  and  C20_22 
REMARK    4  A    between atoms: C11_12  and  C12_13 
REMARK    5  A    between atoms: C12_13  and  C13_14 
REMARK    6  A    between atoms: C17_18  and  O1_19 
REMARK    7  A    between atoms: C20_22  and  N2_23 
REMARK    8  A    between atoms: C23_26  and  C24_27 
REMARK    9  A    between atoms: C24_27  and  C25_28 
REMARK   10  A    between atoms: C25_28  and  C26_29 
REMARK   11  A    between atoms: C26_29  and  O3_31 
ROOT
HETATM    1  C3  UNL     1      26.916   1.492  53.205  1.00  0.00    -0.035 C 
HETATM    2  C4  UNL     1      27.092   0.328  54.103  1.00  0.00     0.041 C 
HETATM    3  C5  UNL     1      26.343  -0.836  53.456  1.00  0.00     0.009 C 
HETATM    4  C6  UNL     1      24.865  -0.558  53.593  1.00  0.00     0.042 C 
HETATM    5  C7  UNL     1      24.562   0.748  53.027  1.00  0.00    -0.024 C 
HETATM    6  C8  UNL     1      25.530   1.670  52.861  1.00  0.00     0.045 C 
HETATM    7  N1  UNL     1      25.261   2.979  52.311  1.00  0.00    -0.354 N 
HETATM    8  C9  UNL     1      24.151   3.463  51.570  1.00  0.00     0.052 C 
HETATM    9  C21 UNL     1      23.048   2.780  51.499  1.00  0.00     0.016 C 
HETATM   10  C22 UNL     1      22.580   2.031  52.407  1.00  0.00    -0.004 C 
HETATM   11  C23 UNL     1      23.124   0.854  52.698  1.00  0.00    -0.037 C 
HETATM   12  H11 UNL     1      26.015   3.643  52.508  1.00  0.00     0.166 HD
ENDROOT
BRANCH   8  13
HETATM   13  C10 UNL     1      24.221   4.738  50.871  1.00  0.00    -0.017 C 
HETATM   14  C11 UNL     1      24.792   4.909  49.717  1.00  0.00    -0.011 C 
BRANCH  14  15
HETATM   15  C12 UNL     1      25.083   5.924  48.717  1.00  0.00     0.066 C 
BRANCH  15  16
HETATM   16  C13 UNL     1      26.559   6.123  48.536  1.00  0.00    -0.052 A 
HETATM   17  C14 UNL     1      27.360   4.979  48.609  1.00  0.00     0.007 A 
HETATM   18  C15 UNL     1      28.719   5.127  48.448  1.00  0.00     0.003 A 
HETATM   19  C16 UNL     1      29.247   6.369  48.223  1.00  0.00     0.037 A 
HETATM   20  C17 UNL     1      28.495   7.526  48.144  1.00  0.00     0.068 A 
HETATM   21  C19 UNL     1      27.147   7.350  48.307  1.00  0.00     0.044 A 
BRANCH  20  22
HETATM   22  O1  UNL     1      29.062   8.772  47.915  1.00  0.00    -0.356 OA
HETATM   23  C18 UNL     1      30.427   9.000  48.242  1.00  0.00     0.210 C 
ENDBRANCH  20  22
ENDBRANCH  15  16
ENDBRANCH  14  15
BRANCH  13  24
HETATM   24  C20 UNL     1      23.558   5.828  51.635  1.00  0.00     0.152 C 
BRANCH  24  25
HETATM   25  N2  UNL     1      24.431   6.781  52.218  1.00  0.00    -0.426 N 
HETATM   26  H24 UNL     1      25.317   6.350  52.496  1.00  0.00     0.150 HD
HETATM   27  H25 UNL     1      24.025   7.493  52.829  1.00  0.00     0.150 HD
ENDBRANCH  24  25
ENDBRANCH  13  24
ENDBRANCH   8  13
BRANCH   1  28
HETATM   28  C2  UNL     1      27.867   2.288  52.753  1.00  0.00    -0.022 C 
HETATM   29  C1  UNL     1      28.917   2.403  53.797  1.00  0.00     0.036 C 
ENDBRANCH   1  28
BRANCH  11  30
HETATM   30  C24 UNL     1      22.384  -0.437  52.725  1.00  0.00     0.050 C 
BRANCH  30  31
HETATM   31  C25 UNL     1      20.991  -0.224  53.273  1.00  0.00     0.114 C 
BRANCH  31  32
HETATM   32  C26 UNL     1      20.648  -1.380  54.174  1.00  0.00     0.139 C 
HETATM   33  O2  UNL     1      21.558  -1.820  54.957  1.00  0.00    -0.650 OA
BRANCH  32  34
HETATM   34  O3  UNL     1      19.381  -1.943  54.149  1.00  0.00    -0.776 OA
HETATM   35  H30 UNL     1      18.762  -1.870  54.972  1.00  0.00     0.167 HD
ENDBRANCH  32  34
ENDBRANCH  31  32
ENDBRANCH  30  31
ENDBRANCH  11  30
TORSDOF 11
ENDMDL
MODEL 4
REMARK VINA RESULT:      -8.3      3.277      7.262
REMARK  11 active torsions:
REMARK  status: ('A' for Active; 'I' for Inactive)
REMARK    1  A    between atoms: C2_2  and  C3_3 
REMARK    2  A    between atoms: C9_10  and  C10_11 
REMARK    3  A    between atoms: C10_11  and  C20_22 
REMARK    4  A    between atoms: C11_12  and  C12_13 
REMARK    5  A    between atoms: C12_13  and  C13_14 
REMARK    6  A    between atoms: C17_18  and  O1_19 
REMARK    7  A    between atoms: C20_22  and  N2_23 
REMARK    8  A    between atoms: C23_26  and  C24_27 
REMARK    9  A    between atoms: C24_27  and  C25_28 
REMARK   10  A    between atoms: C25_28  and  C26_29 
REMARK   11  A    between atoms: C26_29  and  O3_31 
ROOT
HETATM    1  C3  UNL     1      24.031   3.219  50.372  1.00  0.00    -0.035 C 
HETATM    2  C4  UNL     1      25.285   3.947  50.069  1.00  0.00     0.041 C 
HETATM    3  C5  UNL     1      26.353   2.885  49.816  1.00  0.00     0.009 C 
HETATM    4  C6  UNL     1      26.679   2.242  51.143  1.00  0.00     0.042 C 
HETATM    5  C7  UNL     1      25.456   1.741  51.753  1.00  0.00    -0.024 C 
HETATM    6  C8  UNL     1      24.253   2.212  51.375  1.00  0.00     0.045 C 
HETATM    7  N1  UNL     1      23.021   1.742  51.967  1.00  0.00    -0.354 N 
HETATM    8  C9  UNL     1      22.745   0.579  52.733  1.00  0.00     0.052 C 
HETATM    9  C21 UNL     1      23.709  -0.138  53.227  1.00  0.00     0.016 C 
HETATM   10  C22 UNL     1      24.832   0.299  53.620  1.00  0.00    -0.004 C 
HETATM   11  C23 UNL     1      25.764   0.711  52.768  1.00  0.00    -0.037 C 
HETATM   12  H11 UNL     1      22.239   2.377  51.787  1.00  0.00     0.166 HD
ENDROOT
BRANCH   8  13
HETATM   13  C10 UNL     1      21.373   0.160  52.985  1.00  0.00    -0.017 C 
HETATM   14  C11 UNL     1      20.431   0.169  52.091  1.00  0.00    -0.011 C 
BRANCH  14  15
HETATM   15  C12 UNL     1      19.021  -0.137  51.904  1.00  0.00     0.066 C 
BRANCH  15  16
HETATM   16  C13 UNL     1      18.414   0.678  50.801  1.00  0.00    -0.052 A 
HETATM   17  C14 UNL     1      17.082   0.401  50.475  1.00  0.00     0.007 A 
HETATM   18  C15 UNL     1      16.496   1.131  49.467  1.00  0.00     0.003 A 
HETATM   19  C16 UNL     1      17.215   2.095  48.817  1.00  0.00     0.037 A 
HETATM   20  C17 UNL     1      18.532   2.403  49.104  1.00  0.00     0.068 A 
HETATM   21  C19 UNL     1      19.091   1.663  50.111  1.00  0.00     0.044 A 
BRANCH  20  22
HETATM   22  O1  UNL     1      19.236   3.389  48.425  1.00  0.00    -0.356 OA
HETATM   23  C18 UNL     1      19.178   4.737  48.874  1.00  0.00     0.210 C 
ENDBRANCH  20  22
ENDBRANCH  15  16
ENDBRANCH  14  15
BRANCH  13  24
HETATM   24  C20 UNL     1      21.176  -0.281  54.391  1.00  0.00     0.152 C 
BRANCH  24  25
HETATM   25  N2  UNL     1      20.775  -1.630  54.556  1.00  0.00    -0.426 N 
HETATM   26  H24 UNL     1      21.459  -2.273  54.149  1.00  0.00     0.150 HD
HETATM   27  H25 UNL     1      19.781  -1.851  54.454  1.00  0.00     0.150 HD
ENDBRANCH  24  25
ENDBRANCH  13  24
ENDBRANCH   8  13
BRANCH   1  28
HETATM   28  C2  UNL     1      22.849   3.428  49.825  1.00  0.00    -0.022 C 
HETATM   29  C1  UNL     1      22.802   2.716  48.522  1.00  0.00     0.036 C 
ENDBRANCH   1  28
BRANCH  11  30
HETATM   30  C24 UNL     1      27.164   0.206  52.737  1.00  0.00     0.050 C 
BRANCH  30  31
HETATM   31  C25 UNL     1      27.795   0.342  54.103  1.00  0.00     0.114 C 
BRANCH  31  32
HETATM   32  C26 UNL     1      29.018   1.212  53.984  1.00  0.00     0.139 C 
HETATM   33  O2  UNL     1      28.919   2.436  54.339  1.00  0.00    -0.650 OA
BRANCH  32  34
HETATM   34  O3  UNL     1      30.210   0.692  53.502  1.00  0.00    -0.776 OA
HETATM   35  H30 UNL     1      30.742   1.195  52.775  1.00  0.00     0.167 HD
ENDBRANCH  32  34
ENDBRANCH  31  32
ENDBRANCH  30  31
ENDBRANCH  11  30
TORSDOF 11
ENDMDL
MODEL 5
REMARK VINA RESULT:      -7.8      3.664      8.846
REMARK  11 active torsions:
REMARK  status: ('A' for Active; 'I' for Inactive)
REMARK    1  A    between atoms: C2_2  and  C3_3 
REMARK    2  A    between atoms: C9_10  and  C10_11 
REMARK    3  A    between atoms: C10_11  and  C20_22 
REMARK    4  A    between atoms: C11_12  and  C12_13 
REMARK    5  A    between atoms: C12_13  and  C13_14 
REMARK    6  A    between atoms: C17_18  and  O1_19 
REMARK    7  A    between atoms: C20_22  and  N2_23 
REMARK    8  A    between atoms: C23_26  and  C24_27 
REMARK    9  A    between atoms: C24_27  and  C25_28 
REMARK   10  A    between atoms: C25_28  and  C26_29 
REMARK   11  A    between atoms: C26_29  and  O3_31 
ROOT
HETATM    1  C3  UNL     1      24.580   4.567  49.431  1.00  0.00    -0.035 C 
HETATM    2  C4  UNL     1      26.019   4.914  49.422  1.00  0.00     0.041 C 
HETATM    3  C5  UNL     1      26.783   3.594  49.318  1.00  0.00     0.009 C 
HETATM    4  C6  UNL     1      26.643   2.882  50.643  1.00  0.00     0.042 C 
HETATM    5  C7  UNL     1      25.231   2.743  50.972  1.00  0.00    -0.024 C 
HETATM    6  C8  UNL     1      24.307   3.535  50.396  1.00  0.00     0.045 C 
HETATM    7  N1  UNL     1      22.900   3.429  50.707  1.00  0.00    -0.354 N 
HETATM    8  C9  UNL     1      22.164   2.389  51.334  1.00  0.00     0.052 C 
HETATM    9  C21 UNL     1      22.773   1.428  51.963  1.00  0.00     0.016 C 
HETATM   10  C22 UNL     1      23.868   1.530  52.592  1.00  0.00    -0.004 C 
HETATM   11  C23 UNL     1      25.030   1.665  51.964  1.00  0.00    -0.037 C 
HETATM   12  H11 UNL     1      22.376   4.259  50.417  1.00  0.00     0.166 HD
ENDROOT
BRANCH   8  13
HETATM   13  C10 UNL     1      20.709   2.372  51.289  1.00  0.00    -0.017 C 
HETATM   14  C11 UNL     1      20.002   1.358  50.891  1.00  0.00    -0.011 C 
BRANCH  14  15
HETATM   15  C12 UNL     1      18.629   0.922  50.690  1.00  0.00     0.066 C 
BRANCH  15  16
HETATM   16  C13 UNL     1      18.231  -0.141  51.672  1.00  0.00    -0.052 A 
HETATM   17  C14 UNL     1      19.173  -0.473  52.652  1.00  0.00     0.007 A 
HETATM   18  C15 UNL     1      18.839  -1.445  53.567  1.00  0.00     0.003 A 
HETATM   19  C16 UNL     1      17.616  -2.054  53.500  1.00  0.00     0.037 A 
HETATM   20  C17 UNL     1      16.657  -1.759  52.550  1.00  0.00     0.068 A 
HETATM   21  C19 UNL     1      17.013  -0.789  51.652  1.00  0.00     0.044 A 
BRANCH  20  22
HETATM   22  O1  UNL     1      15.424  -2.396  52.508  1.00  0.00    -0.356 OA
HETATM   23  C18 UNL     1      14.467  -2.021  51.525  1.00  0.00     0.210 C 
ENDBRANCH  20  22
ENDBRANCH  15  16
ENDBRANCH  14  15
BRANCH  13  24
HETATM   24  C20 UNL     1      20.124   3.658  51.753  1.00  0.00     0.152 C 
BRANCH  24  25
HETATM   25  N2  UNL     1      19.509   4.445  50.748  1.00  0.00    -0.426 N 
HETATM   26  H24 UNL     1      18.751   3.933  50.288  1.00  0.00     0.150 HD
HETATM   27  H25 UNL     1      20.107   5.044  50.174  1.00  0.00     0.150 HD
ENDBRANCH  24  25
ENDBRANCH  13  24
ENDBRANCH   8  13
BRANCH   1  28
HETATM   28  C2  UNL     1      23.638   5.102  48.677  1.00  0.00    -0.022 C 
HETATM   29  C1  UNL     1      24.022   6.503  48.370  1.00  0.00     0.036 C 
ENDBRANCH   1  28
BRANCH  11  30
HETATM   30  C24 UNL     1      26.214   0.787  52.176  1.00  0.00     0.050 C 
BRANCH  30  31
HETATM   31  C25 UNL     1      25.898  -0.267  53.212  1.00  0.00     0.114 C 
BRANCH  31  32
HETATM   32  C26 UNL     1      26.910  -0.169  54.322  1.00  0.00     0.139 C 
HETATM   33  O2  UNL     1      26.630   0.576  55.322  1.00  0.00    -0.650 OA
BRANCH  32  34
HETATM   34  O3  UNL     1      28.105  -0.868  54.252  1.00  0.00    -0.776 OA
HETATM   35  H30 UNL     1      28.871  -0.532  53.648  1.00  0.00     0.167 HD
ENDBRANCH  32  34
ENDBRANCH  31  32
ENDBRANCH  30  31
ENDBRANCH  11  30
TORSDOF 11
ENDMDL
MODEL 6
REMARK VINA RESULT:      -7.6      4.582      8.676
REMARK  11 active torsions:
REMARK  status: ('A' for Active; 'I' for Inactive)
REMARK    1  A    between atoms: C2_2  and  C3_3 
REMARK    2  A    between atoms: C9_10  and  C10_11 
REMARK    3  A    between atoms: C10_11  and  C20_22 
REMARK    4  A    between atoms: C11_12  and  C12_13 
REMARK    5  A    between atoms: C12_13  and  C13_14 
REMARK    6  A    between atoms: C17_18  and  O1_19 
REMARK    7  A    between atoms: C20_22  and  N2_23 
REMARK    8  A    between atoms: C23_26  and  C24_27 
REMARK    9  A    between atoms: C24_27  and  C25_28 
REMARK   10  A    between atoms: C25_28  and  C26_29 
REMARK   11  A    between atoms: C26_29  and  O3_31 
ROOT
HETATM    1  C3  UNL     1      22.269   2.584  48.773  1.00  0.00    -0.035 C 
HETATM    2  C4  UNL     1      21.922   3.087  47.424  1.00  0.00     0.041 C 
HETATM    3  C5  UNL     1      20.665   3.939  47.589  1.00  0.00     0.009 C 
HETATM    4  C6  UNL     1      19.515   3.002  47.876  1.00  0.00     0.042 C 
HETATM    5  C7  UNL     1      19.842   2.172  49.027  1.00  0.00    -0.024 C 
HETATM    6  C8  UNL     1      21.120   2.001  49.413  1.00  0.00     0.045 C 
HETATM    7  N1  UNL     1      21.478   1.176  50.545  1.00  0.00    -0.354 N 
HETATM    8  C9  UNL     1      20.691   0.683  51.620  1.00  0.00     0.052 C 
HETATM    9  C21 UNL     1      19.394   0.734  51.573  1.00  0.00     0.016 C 
HETATM   10  C22 UNL     1      18.685   0.635  50.528  1.00  0.00    -0.004 C 
HETATM   11  C23 UNL     1      18.614   1.612  49.631  1.00  0.00    -0.037 C 
HETATM   12  H11 UNL     1      22.469   0.921  50.539  1.00  0.00     0.166 HD
ENDROOT
BRANCH   8  13
HETATM   13  C10 UNL     1      21.319   0.109  52.801  1.00  0.00    -0.017 C 
HETATM   14  C11 UNL     1      22.602  -0.028  52.954  1.00  0.00    -0.011 C 
BRANCH  14  15
HETATM   15  C12 UNL     1      23.603  -0.512  53.892  1.00  0.00     0.066 C 
BRANCH  15  16
HETATM   16  C13 UNL     1      24.992  -0.127  53.474  1.00  0.00    -0.052 A 
HETATM   17  C14 UNL     1      25.102   0.705  52.355  1.00  0.00     0.007 A 
HETATM   18  C15 UNL     1      26.363   1.075  51.946  1.00  0.00     0.003 A 
HETATM   19  C16 UNL     1      27.460   0.630  52.629  1.00  0.00     0.037 A 
HETATM   20  C17 UNL     1      27.399  -0.193  53.738  1.00  0.00     0.068 A 
HETATM   21  C19 UNL     1      26.133  -0.546  54.125  1.00  0.00     0.044 A 
BRANCH  20  22
HETATM   22  O1  UNL     1      28.532  -0.629  54.411  1.00  0.00    -0.356 OA
HETATM   23  C18 UNL     1      29.733  -0.874  53.690  1.00  0.00     0.210 C 
ENDBRANCH  20  22
ENDBRANCH  15  16
ENDBRANCH  14  15
BRANCH  13  24
HETATM   24  C20 UNL     1      20.316  -0.303  53.819  1.00  0.00     0.152 C 
BRANCH  24  25
HETATM   25  N2  UNL     1      20.527  -1.577  54.401  1.00  0.00    -0.426 N 
HETATM   26  H24 UNL     1      20.012  -1.674  55.280  1.00  0.00     0.150 HD
HETATM   27  H25 UNL     1      21.464  -1.983  54.341  1.00  0.00     0.150 HD
ENDBRANCH  24  25
ENDBRANCH  13  24
ENDBRANCH   8  13
BRANCH   1  28
HETATM   28  C2  UNL     1      23.453   2.640  49.353  1.00  0.00    -0.022 C 
HETATM   29  C1  UNL     1      23.636   4.002  49.915  1.00  0.00     0.036 C 
ENDBRANCH   1  28
BRANCH  11  30
HETATM   30  C24 UNL     1      17.347   2.229  49.151  1.00  0.00     0.050 C 
BRANCH  30  31
HETATM   31  C25 UNL     1      16.320   2.233  50.259  1.00  0.00     0.114 C 
BRANCH  31  32
HETATM   32  C26 UNL     1      16.397   3.551  50.982  1.00  0.00     0.139 C 
HETATM   33  O2  UNL     1      15.601   4.482  50.617  1.00  0.00    -0.650 OA
BRANCH  32  34
HETATM   34  O3  UNL     1      17.307   3.740  52.011  1.00  0.00    -0.776 OA
HETATM   35  H30 UNL     1      17.302   3.116  52.833  1.00  0.00     0.167 HD
ENDBRANCH  32  34
ENDBRANCH  31  32
ENDBRANCH  30  31
ENDBRANCH  11  30
TORSDOF 11
ENDMDL
MODEL 7
REMARK VINA RESULT:      -7.6      2.744      3.671
REMARK  11 active torsions:
REMARK  status: ('A' for Active; 'I' for Inactive)
REMARK    1  A    between atoms: C2_2  and  C3_3 
REMARK    2  A    between atoms: C9_10  and  C10_11 
REMARK    3  A    between atoms: C10_11  and  C20_22 
REMARK    4  A    between atoms: C11_12  and  C12_13 
REMARK    5  A    between atoms: C12_13  and  C13_14 
REMARK    6  A    between atoms: C17_18  and  O1_19 
REMARK    7  A    between atoms: C20_22  and  N2_23 
REMARK    8  A    between atoms: C23_26  and  C24_27 
REMARK    9  A    between atoms: C24_27  and  C25_28 
REMARK   10  A    between atoms: C25_28  and  C26_29 
REMARK   11  A    between atoms: C26_29  and  O3_31 
ROOT
HETATM    1  C3  UNL     1      22.112   2.207  50.947  1.00  0.00    -0.035 C 
HETATM    2  C4  UNL     1      21.442   1.013  51.511  1.00  0.00     0.041 C 
HETATM    3  C5  UNL     1      22.041   0.793  52.899  1.00  0.00     0.009 C 
HETATM    4  C6  UNL     1      23.455   0.295  52.710  1.00  0.00     0.042 C 
HETATM    5  C7  UNL     1      24.190   1.231  51.872  1.00  0.00    -0.024 C 
HETATM    6  C8  UNL     1      23.541   2.098  51.071  1.00  0.00     0.045 C 
HETATM    7  N1  UNL     1      24.242   3.033  50.220  1.00  0.00    -0.354 N 
HETATM    8  C9  UNL     1      25.589   3.483  50.248  1.00  0.00     0.052 C 
HETATM    9  C21 UNL     1      26.481   2.870  50.966  1.00  0.00     0.016 C 
HETATM   10  C22 UNL     1      26.507   1.628  51.216  1.00  0.00    -0.004 C 
HETATM   11  C23 UNL     1      25.648   1.061  52.055  1.00  0.00    -0.037 C 
HETATM   12  H11 UNL     1      23.639   3.412  49.485  1.00  0.00     0.166 HD
ENDROOT
BRANCH   8  13
HETATM   13  C10 UNL     1      26.003   4.642  49.471  1.00  0.00    -0.017 C 
HETATM   14  C11 UNL     1      25.292   5.720  49.332  1.00  0.00    -0.011 C 
BRANCH  14  15
HETATM   15  C12 UNL     1      25.302   7.030  48.698  1.00  0.00     0.066 C 
BRANCH  15  16
HETATM   16  C13 UNL     1      24.330   7.106  47.557  1.00  0.00    -0.052 A 
HETATM   17  C14 UNL     1      23.225   6.250  47.617  1.00  0.00     0.007 A 
HETATM   18  C15 UNL     1      22.315   6.294  46.586  1.00  0.00     0.003 A 
HETATM   19  C16 UNL     1      22.507   7.159  45.544  1.00  0.00     0.037 A 
HETATM   20  C17 UNL     1      23.582   8.021  45.443  1.00  0.00     0.068 A 
HETATM   21  C19 UNL     1      24.472   7.957  46.481  1.00  0.00     0.044 A 
BRANCH  20  22
HETATM   22  O1  UNL     1      23.749   8.887  44.371  1.00  0.00    -0.356 OA
HETATM   23  C18 UNL     1      23.946  10.276  44.607  1.00  0.00     0.210 C 
ENDBRANCH  20  22
ENDBRANCH  15  16
ENDBRANCH  14  15
BRANCH  13  24
HETATM   24  C20 UNL     1      27.342   4.447  48.853  1.00  0.00     0.152 C 
BRANCH  24  25
HETATM   25  N2  UNL     1      28.264   5.505  49.052  1.00  0.00    -0.426 N 
HETATM   26  H24 UNL     1      29.181   5.149  49.336  1.00  0.00     0.150 HD
HETATM   27  H25 UNL     1      27.921   6.365  49.487  1.00  0.00     0.150 HD
ENDBRANCH  24  25
ENDBRANCH  13  24
ENDBRANCH   8  13
BRANCH   1  28
HETATM   28  C2  UNL     1      21.525   3.252  50.396  1.00  0.00    -0.022 C 
HETATM   29  C1  UNL     1      21.038   4.142  51.481  1.00  0.00     0.036 C 
ENDBRANCH   1  28
BRANCH  11  30
HETATM   30  C24 UNL     1      26.034   0.227  53.226  1.00  0.00     0.050 C 
BRANCH  30  31
HETATM   31  C25 UNL     1      26.733   1.078  54.261  1.00  0.00     0.114 C 
BRANCH  31  32
HETATM   32  C26 UNL     1      28.064   0.451  54.580  1.00  0.00     0.139 C 
HETATM   33  O2  UNL     1      28.929   1.164  55.194  1.00  0.00    -0.650 OA
BRANCH  32  34
HETATM   34  O3  UNL     1      28.333  -0.859  54.215  1.00  0.00    -0.776 OA
HETATM   35  H30 UNL     1      27.949  -1.245  53.339  1.00  0.00     0.167 HD
ENDBRANCH  32  34
ENDBRANCH  31  32
ENDBRANCH  30  31
ENDBRANCH  11  30
TORSDOF 11
ENDMDL
MODEL 8
REMARK VINA RESULT:      -7.6      4.944      9.529
REMARK  11 active torsions:
REMARK  status: ('A' for Active; 'I' for Inactive)
REMARK    1  A    between atoms: C2_2  and  C3_3 
REMARK    2  A    between atoms: C9_10  and  C10_11 
REMARK    3  A    between atoms: C10_11  and  C20_22 
REMARK    4  A    between atoms: C11_12  and  C12_13 
REMARK    5  A    between atoms: C12_13  and  C13_14 
REMARK    6  A    between atoms: C17_18  and  O1_19 
REMARK    7  A    between atoms: C20_22  and  N2_23 
REMARK    8  A    between atoms: C23_26  and  C24_27 
REMARK    9  A    between atoms: C24_27  and  C25_28 
REMARK   10  A    between atoms: C25_28  and  C26_29 
REMARK   11  A    between atoms: C26_29  and  O3_31 
ROOT
HETATM    1  C3  UNL     1      32.520   3.615  46.864  1.00  0.00    -0.035 C 
HETATM    2  C4  UNL     1      33.744   2.868  46.493  1.00  0.00     0.041 C 
HETATM    3  C5  UNL     1      34.681   2.945  47.697  1.00  0.00     0.009 C 
HETATM    4  C6  UNL     1      35.197   4.362  47.782  1.00  0.00     0.042 C 
HETATM    5  C7  UNL     1      34.072   5.286  47.827  1.00  0.00    -0.024 C 
HETATM    6  C8  UNL     1      32.853   4.910  47.397  1.00  0.00     0.045 C 
HETATM    7  N1  UNL     1      31.718   5.805  47.421  1.00  0.00    -0.354 N 
HETATM    8  C9  UNL     1      31.510   7.020  48.125  1.00  0.00     0.052 C 
HETATM    9  C21 UNL     1      32.500   7.635  48.699  1.00  0.00     0.016 C 
HETATM   10  C22 UNL     1      33.699   7.652  48.292  1.00  0.00    -0.004 C 
HETATM   11  C23 UNL     1      34.490   6.589  48.387  1.00  0.00    -0.037 C 
HETATM   12  H11 UNL     1      30.958   5.481  46.817  1.00  0.00     0.166 HD
ENDROOT
BRANCH   8  13
HETATM   13  C10 UNL     1      30.181   7.607  48.222  1.00  0.00    -0.017 C 
HETATM   14  C11 UNL     1      29.082   6.981  47.928  1.00  0.00    -0.011 C 
BRANCH  14  15
HETATM   15  C12 UNL     1      27.638   7.154  47.876  1.00  0.00     0.066 C 
BRANCH  15  16
HETATM   16  C13 UNL     1      26.920   6.087  48.649  1.00  0.00    -0.052 A 
HETATM   17  C14 UNL     1      27.516   4.822  48.675  1.00  0.00     0.007 A 
HETATM   18  C15 UNL     1      26.882   3.821  49.375  1.00  0.00     0.003 A 
HETATM   19  C16 UNL     1      25.704   4.081  50.019  1.00  0.00     0.037 A 
HETATM   20  C17 UNL     1      25.079   5.314  50.020  1.00  0.00     0.068 A 
HETATM   21  C19 UNL     1      25.730   6.292  49.317  1.00  0.00     0.044 A 
BRANCH  20  22
HETATM   22  O1  UNL     1      23.882   5.546  50.684  1.00  0.00    -0.356 OA
HETATM   23  C18 UNL     1      23.617   4.889  51.917  1.00  0.00     0.210 C 
ENDBRANCH  20  22
ENDBRANCH  15  16
ENDBRANCH  14  15
BRANCH  13  24
HETATM   24  C20 UNL     1      30.229   9.014  48.700  1.00  0.00     0.152 C 
BRANCH  24  25
HETATM   25  N2  UNL     1      29.583   9.260  49.937  1.00  0.00    -0.426 N 
HETATM   26  H24 UNL     1      28.814   8.602  50.091  1.00  0.00     0.150 HD
HETATM   27  H25 UNL     1      29.454  10.232  50.227  1.00  0.00     0.150 HD
ENDBRANCH  24  25
ENDBRANCH  13  24
ENDBRANCH   8  13
BRANCH   1  28
HETATM   28  C2  UNL     1      31.275   3.196  46.743  1.00  0.00    -0.022 C 
HETATM   29  C1  UNL     1      31.297   1.743  46.436  1.00  0.00     0.036 C 
ENDBRANCH   1  28
BRANCH  11  30
HETATM   30  C24 UNL     1      35.828   6.585  49.040  1.00  0.00     0.050 C 
BRANCH  30  31
HETATM   31  C25 UNL     1      36.559   7.871  48.730  1.00  0.00     0.114 C 
BRANCH  31  32
HETATM   32  C26 UNL     1      37.920   7.816  49.370  1.00  0.00     0.139 C 
HETATM   33  O2  UNL     1      38.711   8.802  49.180  1.00  0.00    -0.650 OA
BRANCH  32  34
HETATM   34  O3  UNL     1      38.295   6.726  50.140  1.00  0.00    -0.776 OA
HETATM   35  H30 UNL     1      37.674   6.376  50.886  1.00  0.00     0.167 HD
ENDBRANCH  32  34
ENDBRANCH  31  32
ENDBRANCH  30  31
ENDBRANCH  11  30
TORSDOF 11
ENDMDL
MODEL 9
REMARK VINA RESULT:      -7.5      4.702      8.910
REMARK  11 active torsions:
REMARK  status: ('A' for Active; 'I' for Inactive)
REMARK    1  A    between atoms: C2_2  and  C3_3 
REMARK    2  A    between atoms: C9_10  and  C10_11 
REMARK    3  A    between atoms: C10_11  and  C20_22 
REMARK    4  A    between atoms: C11_12  and  C12_13 
REMARK    5  A    between atoms: C12_13  and  C13_14 
REMARK    6  A    between atoms: C17_18  and  O1_19 
REMARK    7  A    between atoms: C20_22  and  N2_23 
REMARK    8  A    between atoms: C23_26  and  C24_27 
REMARK    9  A    between atoms: C24_27  and  C25_28 
REMARK   10  A    between atoms: C25_28  and  C26_29 
REMARK   11  A    between atoms: C26_29  and  O3_31 
ROOT
HETATM    1  C3  UNL     1      26.532   5.385  49.025  1.00  0.00    -0.035 C 
HETATM    2  C4  UNL     1      25.096   5.547  49.347  1.00  0.00     0.041 C 
HETATM    3  C5  UNL     1      24.494   6.397  48.229  1.00  0.00     0.009 C 
HETATM    4  C6  UNL     1      25.011   7.806  48.399  1.00  0.00     0.042 C 
HETATM    5  C7  UNL     1      26.466   7.787  48.432  1.00  0.00    -0.024 C 
HETATM    6  C8  UNL     1      27.136   6.656  48.724  1.00  0.00     0.045 C 
HETATM    7  N1  UNL     1      28.580   6.606  48.773  1.00  0.00    -0.354 N 
HETATM    8  C9  UNL     1      29.557   7.498  48.258  1.00  0.00     0.052 C 
HETATM    9  C21 UNL     1      29.224   8.686  47.848  1.00  0.00     0.016 C 
HETATM   10  C22 UNL     1      28.294   9.401  48.324  1.00  0.00    -0.004 C 
HETATM   11  C23 UNL     1      27.013   9.123  48.110  1.00  0.00    -0.037 C 
HETATM   12  H11 UNL     1      28.921   5.780  49.272  1.00  0.00     0.166 HD
ENDROOT
BRANCH   8  13
HETATM   13  C10 UNL     1      30.956   7.104  48.175  1.00  0.00    -0.017 C 
HETATM   14  C11 UNL     1      31.560   6.782  47.071  1.00  0.00    -0.011 C 
BRANCH  14  15
HETATM   15  C12 UNL     1      32.849   6.355  46.549  1.00  0.00     0.066 C 
BRANCH  15  16
HETATM   16  C13 UNL     1      33.133   4.917  46.869  1.00  0.00    -0.052 A 
HETATM   17  C14 UNL     1      34.319   4.651  47.562  1.00  0.00     0.007 A 
HETATM   18  C15 UNL     1      34.609   3.342  47.870  1.00  0.00     0.003 A 
HETATM   19  C16 UNL     1      33.747   2.346  47.500  1.00  0.00     0.037 A 
HETATM   20  C17 UNL     1      32.566   2.562  46.815  1.00  0.00     0.068 A 
HETATM   21  C19 UNL     1      32.301   3.873  46.520  1.00  0.00     0.044 A 
BRANCH  20  22
HETATM   22  O1  UNL     1      31.712   1.530  46.452  1.00  0.00    -0.356 OA
HETATM   23  C18 UNL     1      32.047   0.187  46.777  1.00  0.00     0.210 C 
ENDBRANCH  20  22
ENDBRANCH  15  16
ENDBRANCH  14  15
BRANCH  13  24
HETATM   24  C20 UNL     1      31.616   7.115  49.508  1.00  0.00     0.152 C 
BRANCH  24  25
HETATM   25  N2  UNL     1      31.736   5.851  50.137  1.00  0.00    -0.426 N 
HETATM   26  H24 UNL     1      31.032   5.194  49.788  1.00  0.00     0.150 HD
HETATM   27  H25 UNL     1      31.966   5.830  51.133  1.00  0.00     0.150 HD
ENDBRANCH  24  25
ENDBRANCH  13  24
ENDBRANCH   8  13
BRANCH   1  28
HETATM   28  C2  UNL     1      27.210   4.254  49.004  1.00  0.00    -0.022 C 
HETATM   29  C1  UNL     1      26.422   3.220  49.723  1.00  0.00     0.036 C 
ENDBRANCH   1  28
BRANCH  11  30
HETATM   30  C24 UNL     1      26.022  10.080  47.546  1.00  0.00     0.050 C 
BRANCH  30  31
HETATM   31  C25 UNL     1      26.136  11.416  48.244  1.00  0.00     0.114 C 
BRANCH  31  32
HETATM   32  C26 UNL     1      24.997  12.292  47.796  1.00  0.00     0.139 C 
HETATM   33  O2  UNL     1      24.112  11.778  47.030  1.00  0.00    -0.650 OA
BRANCH  32  34
HETATM   34  O3  UNL     1      24.918  13.613  48.208  1.00  0.00    -0.776 OA
HETATM   35  H30 UNL     1      24.422  13.859  49.078  1.00  0.00     0.167 HD
ENDBRANCH  32  34
ENDBRANCH  31  32
ENDBRANCH  30  31
ENDBRANCH  11  30
TORSDOF 11
ENDMDL
