MODEL 1
REMARK VINA RESULT:      -7.7      0.000      0.000
REMARK  4 active torsions:
REMARK  status: ('A' for Active; 'I' for Inactive)
REMARK    1  A    between atoms: C3_3  and  C4_4 
REMARK    2  A    between atoms: C3_3  and  O2_22 
REMARK    3  A    between atoms: C4_4  and  C5_5 
REMARK    4  A    between atoms: C9_14  and  C10_15 
ROOT
HETATM    1  C1  UNL     1      20.667  -1.703  54.298  1.00  0.00     0.015 C 
HETATM    2  C2  UNL     1      21.579  -1.151  53.707  1.00  0.00    -0.085 C 
HETATM    3  C3  UNL     1      22.669  -0.479  53.021  1.00  0.00     0.204 C 
ENDROOT
BRANCH   3   4
HETATM    4  C4  UNL     1      23.672   0.150  53.934  1.00  0.00     0.104 C 
BRANCH   4   5
HETATM    5  C5  UNL     1      24.947   0.543  53.214  1.00  0.00     0.070 C 
HETATM    6  N1  UNL     1      25.421  -0.573  52.642  1.00  0.00    -0.133 NA
HETATM    7  O1  UNL     1      26.769  -0.807  52.324  1.00  0.00    -0.194 OA
HETATM    8  C6  UNL     1      27.988  -0.606  52.934  1.00  0.00     0.194 A 
HETATM    9  C7  UNL     1      29.392  -0.609  53.507  1.00  0.00     0.123 A 
HETATM   10  N2  UNL     1      27.926   0.487  53.491  1.00  0.00    -0.240 N 
HETATM   11  S1  UNL     1      29.307   1.161  54.416  1.00  0.00    -0.017 SA
HETATM   12  C8  UNL     1      27.559   1.510  53.887  1.00  0.00     0.169 A 
HETATM   13  N3  UNL     1      26.453   2.393  53.920  1.00  0.00    -0.355 N 
HETATM   14  C9  UNL     1      25.109   2.011  53.464  1.00  0.00     0.167 C 
HETATM   15  H6  UNL     1      27.095   3.107  54.326  1.00  0.00     0.162 HD
BRANCH  14  16
HETATM   16  C10 UNL     1      24.930   2.804  52.244  1.00  0.00    -0.030 A 
HETATM   17  C11 UNL     1      25.656   2.619  51.083  1.00  0.00     0.011 A 
HETATM   18  C12 UNL     1      25.475   3.350  49.919  1.00  0.00     0.024 A 
HETATM   19  C13 UNL     1      24.502   4.323  49.947  1.00  0.00     0.034 A 
HETATM   20 CL1  UNL     1      24.171   5.320  48.521  1.00  0.00    -0.084 Cl
HETATM   21  C14 UNL     1      23.717   4.586  51.076  1.00  0.00     0.024 A 
HETATM   22  C15 UNL     1      23.984   3.799  52.167  1.00  0.00     0.011 A 
ENDBRANCH  14  16
ENDBRANCH   4   5
ENDBRANCH   3   4
BRANCH   3  23
HETATM   23  O2  UNL     1      22.109   0.430  52.102  1.00  0.00    -0.378 OA
HETATM   24  C16 UNL     1      21.340   1.363  52.820  1.00  0.00     0.203 C 
ENDBRANCH   3  23
TORSDOF 4
ENDMDL
MODEL 2
REMARK VINA RESULT:      -7.2      3.506      5.658
REMARK  4 active torsions:
REMARK  status: ('A' for Active; 'I' for Inactive)
REMARK    1  A    between atoms: C3_3  and  C4_4 
REMARK    2  A    between atoms: C3_3  and  O2_22 
REMARK    3  A    between atoms: C4_4  and  C5_5 
REMARK    4  A    between atoms: C9_14  and  C10_15 
ROOT
HETATM    1  C1  UNL     1      26.020  -0.305  54.843  1.00  0.00     0.015 C 
HETATM    2  C2  UNL     1      26.180   0.777  54.305  1.00  0.00    -0.085 C 
HETATM    3  C3  UNL     1      26.379   2.055  53.645  1.00  0.00     0.204 C 
ENDROOT
BRANCH   3   4
HETATM    4  C4  UNL     1      26.432   1.974  52.153  1.00  0.00     0.104 C 
BRANCH   4   5
HETATM    5  C5  UNL     1      25.295   2.726  51.489  1.00  0.00     0.070 C 
HETATM    6  N1  UNL     1      25.597   2.799  50.185  1.00  0.00    -0.133 NA
HETATM    7  O1  UNL     1      25.137   3.790  49.304  1.00  0.00    -0.194 OA
HETATM    8  C6  UNL     1      24.971   5.158  49.338  1.00  0.00     0.194 A 
HETATM    9  C7  UNL     1      24.872   6.658  49.136  1.00  0.00     0.123 A 
HETATM   10  N2  UNL     1      24.545   5.433  50.456  1.00  0.00    -0.240 N 
HETATM   11  S1  UNL     1      24.179   7.119  50.945  1.00  0.00    -0.017 SA
HETATM   12  C8  UNL     1      24.167   5.360  51.547  1.00  0.00     0.169 A 
HETATM   13  N3  UNL     1      23.907   4.461  52.609  1.00  0.00    -0.355 N 
HETATM   14  C9  UNL     1      24.337   3.055  52.593  1.00  0.00     0.167 C 
HETATM   15  H6  UNL     1      23.433   5.250  53.098  1.00  0.00     0.162 HD
BRANCH  14  16
HETATM   16  C10 UNL     1      23.076   2.320  52.468  1.00  0.00    -0.030 A 
HETATM   17  C11 UNL     1      21.837   2.917  52.333  1.00  0.00     0.011 A 
HETATM   18  C12 UNL     1      20.643   2.226  52.191  1.00  0.00     0.024 A 
HETATM   19  C13 UNL     1      20.722   0.852  52.191  1.00  0.00     0.034 A 
HETATM   20 CL1  UNL     1      19.268  -0.142  52.011  1.00  0.00    -0.084 Cl
HETATM   21  C14 UNL     1      21.930   0.157  52.324  1.00  0.00     0.024 A 
HETATM   22  C15 UNL     1      23.044   0.945  52.456  1.00  0.00     0.011 A 
ENDBRANCH  14  16
ENDBRANCH   4   5
ENDBRANCH   3   4
BRANCH   3  23
HETATM   23  O2  UNL     1      27.521   2.661  54.207  1.00  0.00    -0.378 OA
HETATM   24  C16 UNL     1      28.653   2.184  53.522  1.00  0.00     0.203 C 
ENDBRANCH   3  23
TORSDOF 4
ENDMDL
MODEL 3
REMARK VINA RESULT:      -7.2      3.749      5.857
REMARK  4 active torsions:
REMARK  status: ('A' for Active; 'I' for Inactive)
REMARK    1  A    between atoms: C3_3  and  C4_4 
REMARK    2  A    between atoms: C3_3  and  O2_22 
REMARK    3  A    between atoms: C4_4  and  C5_5 
REMARK    4  A    between atoms: C9_14  and  C10_15 
ROOT
HETATM    1  C1  UNL     1      26.799   0.136  52.373  1.00  0.00     0.015 C 
HETATM    2  C2  UNL     1      25.715   0.694  52.377  1.00  0.00    -0.085 C 
HETATM    3  C3  UNL     1      24.432   1.374  52.396  1.00  0.00     0.204 C 
ENDROOT
BRANCH   3   4
HETATM    4  C4  UNL     1      24.513   2.826  52.741  1.00  0.00     0.104 C 
BRANCH   4   5
HETATM    5  C5  UNL     1      23.882   3.712  51.684  1.00  0.00     0.070 C 
HETATM    6  N1  UNL     1      23.133   4.610  52.339  1.00  0.00    -0.133 NA
HETATM    7  O1  UNL     1      22.014   5.271  51.805  1.00  0.00    -0.194 OA
HETATM    8  C6  UNL     1      20.924   4.926  51.037  1.00  0.00     0.194 A 
HETATM    9  C7  UNL     1      19.594   4.703  50.343  1.00  0.00     0.123 A 
HETATM   10  N2  UNL     1      21.328   4.140  50.184  1.00  0.00    -0.240 N 
HETATM   11  S1  UNL     1      20.235   3.428  48.954  1.00  0.00    -0.017 SA
HETATM   12  C8  UNL     1      22.000   3.453  49.539  1.00  0.00     0.169 A 
HETATM   13  N3  UNL     1      23.321   2.973  49.376  1.00  0.00    -0.355 N 
HETATM   14  C9  UNL     1      24.379   3.184  50.374  1.00  0.00     0.167 C 
HETATM   15  H6  UNL     1      23.014   2.576  48.463  1.00  0.00     0.162 HD
BRANCH  14  16
HETATM   16  C10 UNL     1      25.287   4.123  49.708  1.00  0.00    -0.030 A 
HETATM   17  C11 UNL     1      24.937   5.403  49.322  1.00  0.00     0.011 A 
HETATM   18  C12 UNL     1      25.797   6.303  48.713  1.00  0.00     0.024 A 
HETATM   19  C13 UNL     1      27.082   5.869  48.484  1.00  0.00     0.034 A 
HETATM   20 CL1  UNL     1      28.277   6.928  47.719  1.00  0.00    -0.084 Cl
HETATM   21  C14 UNL     1      27.531   4.591  48.838  1.00  0.00     0.024 A 
HETATM   22  C15 UNL     1      26.593   3.789  49.435  1.00  0.00     0.011 A 
ENDBRANCH  14  16
ENDBRANCH   4   5
ENDBRANCH   3   4
BRANCH   3  23
HETATM   23  O2  UNL     1      23.569   0.650  53.243  1.00  0.00    -0.378 OA
HETATM   24  C16 UNL     1      22.432   0.284  52.502  1.00  0.00     0.203 C 
ENDBRANCH   3  23
TORSDOF 4
ENDMDL
MODEL 4
REMARK VINA RESULT:      -7.0      3.110      4.711
REMARK  4 active torsions:
REMARK  status: ('A' for Active; 'I' for Inactive)
REMARK    1  A    between atoms: C3_3  and  C4_4 
REMARK    2  A    between atoms: C3_3  and  O2_22 
REMARK    3  A    between atoms: C4_4  and  C5_5 
REMARK    4  A    between atoms: C9_14  and  C10_15 
ROOT
HETATM    1  C1  UNL     1      23.541  -0.610  53.370  1.00  0.00     0.015 C 
HETATM    2  C2  UNL     1      24.643  -0.089  53.378  1.00  0.00    -0.085 C 
HETATM    3  C3  UNL     1      25.948   0.550  53.378  1.00  0.00     0.204 C 
ENDROOT
BRANCH   3   4
HETATM    4  C4  UNL     1      25.899   2.043  53.313  1.00  0.00     0.104 C 
BRANCH   4   5
HETATM    5  C5  UNL     1      25.415   2.550  51.969  1.00  0.00     0.070 C 
HETATM    6  N1  UNL     1      26.297   2.116  51.058  1.00  0.00    -0.133 NA
HETATM    7  O1  UNL     1      26.547   2.729  49.820  1.00  0.00    -0.194 OA
HETATM    8  C6  UNL     1      26.710   4.018  49.358  1.00  0.00     0.194 A 
HETATM    9  C7  UNL     1      27.071   5.337  48.703  1.00  0.00     0.123 A 
HETATM   10  N2  UNL     1      25.889   4.711  49.953  1.00  0.00    -0.240 N 
HETATM   11  S1  UNL     1      25.745   6.474  49.659  1.00  0.00    -0.017 SA
HETATM   12  C8  UNL     1      25.042   5.069  50.654  1.00  0.00     0.169 A 
HETATM   13  N3  UNL     1      24.114   4.645  51.636  1.00  0.00    -0.355 N 
HETATM   14  C9  UNL     1      24.160   3.315  52.260  1.00  0.00     0.167 C 
HETATM   15  H6  UNL     1      23.667   5.582  51.551  1.00  0.00     0.162 HD
BRANCH  14  16
HETATM   16  C10 UNL     1      22.969   2.651  51.722  1.00  0.00    -0.030 A 
HETATM   17  C11 UNL     1      22.962   1.868  50.583  1.00  0.00     0.011 A 
HETATM   18  C12 UNL     1      21.845   1.219  50.082  1.00  0.00     0.024 A 
HETATM   19  C13 UNL     1      20.672   1.381  50.784  1.00  0.00     0.034 A 
HETATM   20 CL1  UNL     1      19.177   0.598  50.250  1.00  0.00    -0.084 Cl
HETATM   21  C14 UNL     1      20.579   2.155  51.947  1.00  0.00     0.024 A 
HETATM   22  C15 UNL     1      21.749   2.748  52.347  1.00  0.00     0.011 A 
ENDBRANCH  14  16
ENDBRANCH   4   5
ENDBRANCH   3   4
BRANCH   3  23
HETATM   23  O2  UNL     1      26.712  -0.025  52.343  1.00  0.00    -0.378 OA
HETATM   24  C16 UNL     1      26.867  -1.395  52.620  1.00  0.00     0.203 C 
ENDBRANCH   3  23
TORSDOF 4
ENDMDL
MODEL 5
REMARK VINA RESULT:      -6.8      3.807      5.617
REMARK  4 active torsions:
REMARK  status: ('A' for Active; 'I' for Inactive)
REMARK    1  A    between atoms: C3_3  and  C4_4 
REMARK    2  A    between atoms: C3_3  and  O2_22 
REMARK    3  A    between atoms: C4_4  and  C5_5 
REMARK    4  A    between atoms: C9_14  and  C10_15 
ROOT
HETATM    1  C1  UNL     1      20.686   0.239  51.576  1.00  0.00     0.015 C 
HETATM    2  C2  UNL     1      21.609   0.588  52.292  1.00  0.00    -0.085 C 
HETATM    3  C3  UNL     1      22.723   1.003  53.127  1.00  0.00     0.204 C 
ENDROOT
BRANCH   3   4
HETATM    4  C4  UNL     1      23.814   1.706  52.387  1.00  0.00     0.104 C 
BRANCH   4   5
HETATM    5  C5  UNL     1      23.298   2.854  51.541  1.00  0.00     0.070 C 
HETATM    6  N1  UNL     1      22.626   3.665  52.370  1.00  0.00    -0.133 NA
HETATM    7  O1  UNL     1      21.590   4.533  51.988  1.00  0.00    -0.194 OA
HETATM    8  C6  UNL     1      20.489   4.470  51.162  1.00  0.00     0.194 A 
HETATM    9  C7  UNL     1      19.159   4.534  50.434  1.00  0.00     0.123 A 
HETATM   10  N2  UNL     1      20.833   3.845  50.162  1.00  0.00    -0.240 N 
HETATM   11  S1  UNL     1      19.704   3.523  48.807  1.00  0.00    -0.017 SA
HETATM   12  C8  UNL     1      21.449   3.245  49.387  1.00  0.00     0.169 A 
HETATM   13  N3  UNL     1      22.720   2.680  49.128  1.00  0.00    -0.355 N 
HETATM   14  C9  UNL     1      23.771   2.567  50.150  1.00  0.00     0.167 C 
HETATM   15  H6  UNL     1      22.396   2.517  48.151  1.00  0.00     0.162 HD
BRANCH  14  16
HETATM   16  C10 UNL     1      24.781   3.529  49.699  1.00  0.00    -0.030 A 
HETATM   17  C11 UNL     1      26.134   3.257  49.620  1.00  0.00     0.011 A 
HETATM   18  C12 UNL     1      27.091   4.155  49.172  1.00  0.00     0.024 A 
HETATM   19  C13 UNL     1      26.639   5.397  48.789  1.00  0.00     0.034 A 
HETATM   20 CL1  UNL     1      27.762   6.629  48.193  1.00  0.00    -0.084 Cl
HETATM   21  C14 UNL     1      25.290   5.766  48.834  1.00  0.00     0.024 A 
HETATM   22  C15 UNL     1      24.435   4.796  49.292  1.00  0.00     0.011 A 
ENDBRANCH  14  16
ENDBRANCH   4   5
ENDBRANCH   3   4
BRANCH   3  23
HETATM   23  O2  UNL     1      23.174  -0.126  53.840  1.00  0.00    -0.378 OA
HETATM   24  C16 UNL     1      24.542  -0.302  53.563  1.00  0.00     0.203 C 
ENDBRANCH   3  23
TORSDOF 4
ENDMDL
MODEL 6
REMARK VINA RESULT:      -6.7      3.878      6.352
REMARK  4 active torsions:
REMARK  status: ('A' for Active; 'I' for Inactive)
REMARK    1  A    between atoms: C3_3  and  C4_4 
REMARK    2  A    between atoms: C3_3  and  O2_22 
REMARK    3  A    between atoms: C4_4  and  C5_5 
REMARK    4  A    between atoms: C9_14  and  C10_15 
ROOT
HETATM    1  C1  UNL     1      21.860   7.235  50.729  1.00  0.00     0.015 C 
HETATM    2  C2  UNL     1      22.884   6.575  50.744  1.00  0.00    -0.085 C 
HETATM    3  C3  UNL     1      24.103   5.786  50.783  1.00  0.00     0.204 C 
ENDROOT
BRANCH   3   4
HETATM    4  C4  UNL     1      24.184   4.841  51.939  1.00  0.00     0.104 C 
BRANCH   4   5
HETATM    5  C5  UNL     1      24.004   3.395  51.521  1.00  0.00     0.070 C 
HETATM    6  N1  UNL     1      23.893   3.395  50.185  1.00  0.00    -0.133 NA
HETATM    7  O1  UNL     1      23.231   2.414  49.430  1.00  0.00    -0.194 OA
HETATM    8  C6  UNL     1      22.052   1.707  49.524  1.00  0.00     0.194 A 
HETATM    9  C7  UNL     1      20.739   0.962  49.377  1.00  0.00     0.123 A 
HETATM   10  N2  UNL     1      21.909   1.418  50.709  1.00  0.00    -0.240 N 
HETATM   11  S1  UNL     1      20.494   0.485  51.295  1.00  0.00    -0.017 SA
HETATM   12  C8  UNL     1      22.064   1.311  51.851  1.00  0.00     0.169 A 
HETATM   13  N3  UNL     1      22.926   1.645  52.923  1.00  0.00    -0.355 N 
HETATM   14  C9  UNL     1      24.030   2.607  52.795  1.00  0.00     0.167 C 
HETATM   15  H6  UNL     1      22.372   0.987  53.511  1.00  0.00     0.162 HD
BRANCH  14  16
HETATM   16  C10 UNL     1      25.224   1.762  52.899  1.00  0.00    -0.030 A 
HETATM   17  C11 UNL     1      25.597   0.822  51.957  1.00  0.00     0.011 A 
HETATM   18  C12 UNL     1      26.736   0.037  52.038  1.00  0.00     0.024 A 
HETATM   19  C13 UNL     1      27.535   0.223  53.144  1.00  0.00     0.034 A 
HETATM   20 CL1  UNL     1      29.021  -0.714  53.360  1.00  0.00    -0.084 Cl
HETATM   21  C14 UNL     1      27.240   1.149  54.152  1.00  0.00     0.024 A 
HETATM   22  C15 UNL     1      26.088   1.869  53.963  1.00  0.00     0.011 A 
ENDBRANCH  14  16
ENDBRANCH   4   5
ENDBRANCH   3   4
BRANCH   3  23
HETATM   23  O2  UNL     1      25.197   6.672  50.713  1.00  0.00    -0.378 OA
HETATM   24  C16 UNL     1      25.956   6.345  49.576  1.00  0.00     0.203 C 
ENDBRANCH   3  23
TORSDOF 4
ENDMDL
MODEL 7
REMARK VINA RESULT:      -6.7      4.468      7.209
REMARK  4 active torsions:
REMARK  status: ('A' for Active; 'I' for Inactive)
REMARK    1  A    between atoms: C3_3  and  C4_4 
REMARK    2  A    between atoms: C3_3  and  O2_22 
REMARK    3  A    between atoms: C4_4  and  C5_5 
REMARK    4  A    between atoms: C9_14  and  C10_15 
ROOT
HETATM    1  C1  UNL     1      27.510   4.967  48.592  1.00  0.00     0.015 C 
HETATM    2  C2  UNL     1      26.866   4.232  49.321  1.00  0.00    -0.085 C 
HETATM    3  C3  UNL     1      26.091   3.374  50.201  1.00  0.00     0.204 C 
ENDROOT
BRANCH   3   4
HETATM    4  C4  UNL     1      24.878   4.028  50.781  1.00  0.00     0.104 C 
BRANCH   4   5
HETATM    5  C5  UNL     1      23.592   3.342  50.363  1.00  0.00     0.070 C 
HETATM    6  N1  UNL     1      23.845   2.741  49.192  1.00  0.00    -0.133 NA
HETATM    7  O1  UNL     1      22.882   2.438  48.215  1.00  0.00    -0.194 OA
HETATM    8  C6  UNL     1      21.797   3.073  47.651  1.00  0.00     0.194 A 
HETATM    9  C7  UNL     1      20.682   3.669  46.813  1.00  0.00     0.123 A 
HETATM   10  N2  UNL     1      21.224   3.666  48.562  1.00  0.00    -0.240 N 
HETATM   11  S1  UNL     1      19.742   4.635  48.279  1.00  0.00    -0.017 SA
HETATM   12  C8  UNL     1      20.933   4.090  49.598  1.00  0.00     0.169 A 
HETATM   13  N3  UNL     1      21.311   4.135  50.962  1.00  0.00    -0.355 N 
HETATM   14  C9  UNL     1      22.608   3.644  51.450  1.00  0.00     0.167 C 
HETATM   15  H6  UNL     1      20.386   4.574  51.154  1.00  0.00     0.162 HD
BRANCH  14  16
HETATM   16  C10 UNL     1      22.247   2.449  52.218  1.00  0.00    -0.030 A 
HETATM   17  C11 UNL     1      20.949   2.074  52.510  1.00  0.00     0.011 A 
HETATM   18  C12 UNL     1      20.601   0.933  53.216  1.00  0.00     0.024 A 
HETATM   19  C13 UNL     1      21.636   0.135  53.647  1.00  0.00     0.034 A 
HETATM   20 CL1  UNL     1      21.321  -1.353  54.553  1.00  0.00    -0.084 Cl
HETATM   21  C14 UNL     1      22.982   0.431  53.402  1.00  0.00     0.024 A 
HETATM   22  C15 UNL     1      23.205   1.585  52.694  1.00  0.00     0.011 A 
ENDBRANCH  14  16
ENDBRANCH   4   5
ENDBRANCH   3   4
BRANCH   3  23
HETATM   23  O2  UNL     1      26.963   2.855  51.179  1.00  0.00    -0.378 OA
HETATM   24  C16 UNL     1      26.573   1.532  51.456  1.00  0.00     0.203 C 
ENDBRANCH   3  23
TORSDOF 4
ENDMDL
MODEL 8
REMARK VINA RESULT:      -6.6      3.693      5.290
REMARK  4 active torsions:
REMARK  status: ('A' for Active; 'I' for Inactive)
REMARK    1  A    between atoms: C3_3  and  C4_4 
REMARK    2  A    between atoms: C3_3  and  O2_22 
REMARK    3  A    between atoms: C4_4  and  C5_5 
REMARK    4  A    between atoms: C9_14  and  C10_15 
ROOT
HETATM    1  C1  UNL     1      19.330   0.033  51.726  1.00  0.00     0.015 C 
HETATM    2  C2  UNL     1      20.354   0.660  51.515  1.00  0.00    -0.085 C 
HETATM    3  C3  UNL     1      21.574   1.414  51.285  1.00  0.00     0.204 C 
ENDROOT
BRANCH   3   4
HETATM    4  C4  UNL     1      22.404   1.625  52.510  1.00  0.00     0.104 C 
BRANCH   4   5
HETATM    5  C5  UNL     1      23.552   2.588  52.276  1.00  0.00     0.070 C 
HETATM    6  N1  UNL     1      23.294   3.675  53.017  1.00  0.00    -0.133 NA
HETATM    7  O1  UNL     1      23.770   4.968  52.746  1.00  0.00    -0.194 OA
HETATM    8  C6  UNL     1      23.916   5.766  51.632  1.00  0.00     0.194 A 
HETATM    9  C7  UNL     1      24.001   6.832  50.558  1.00  0.00     0.123 A 
HETATM   10  N2  UNL     1      24.300   5.034  50.724  1.00  0.00    -0.240 N 
HETATM   11  S1  UNL     1      24.625   5.659  49.074  1.00  0.00    -0.017 SA
HETATM   12  C8  UNL     1      24.641   4.114  50.109  1.00  0.00     0.169 A 
HETATM   13  N3  UNL     1      24.877   2.720  50.175  1.00  0.00    -0.355 N 
HETATM   14  C9  UNL     1      24.467   1.891  51.317  1.00  0.00     0.167 C 
HETATM   15  H6  UNL     1      25.322   2.799  49.236  1.00  0.00     0.162 HD
BRANCH  14  16
HETATM   16  C10 UNL     1      25.742   1.520  51.937  1.00  0.00    -0.030 A 
HETATM   17  C11 UNL     1      26.657   2.427  52.437  1.00  0.00     0.011 A 
HETATM   18  C12 UNL     1      27.854   2.082  53.046  1.00  0.00     0.024 A 
HETATM   19  C13 UNL     1      28.128   0.737  53.146  1.00  0.00     0.034 A 
HETATM   20 CL1  UNL     1      29.622   0.169  53.909  1.00  0.00    -0.084 Cl
HETATM   21  C14 UNL     1      27.265  -0.256  52.670  1.00  0.00     0.024 A 
HETATM   22  C15 UNL     1      26.112   0.204  52.088  1.00  0.00     0.011 A 
ENDBRANCH  14  16
ENDBRANCH   4   5
ENDBRANCH   3   4
BRANCH   3  23
HETATM   23  O2  UNL     1      21.226   2.616  50.637  1.00  0.00    -0.378 OA
HETATM   24  C16 UNL     1      21.322   2.411  49.249  1.00  0.00     0.203 C 
ENDBRANCH   3  23
TORSDOF 4
ENDMDL
MODEL 9
REMARK VINA RESULT:      -6.5      3.744      6.454
REMARK  4 active torsions:
REMARK  status: ('A' for Active; 'I' for Inactive)
REMARK    1  A    between atoms: C3_3  and  C4_4 
REMARK    2  A    between atoms: C3_3  and  O2_22 
REMARK    3  A    between atoms: C4_4  and  C5_5 
REMARK    4  A    between atoms: C9_14  and  C10_15 
ROOT
HETATM    1  C1  UNL     1      23.311   6.726  48.152  1.00  0.00     0.015 C 
HETATM    2  C2  UNL     1      24.088   5.936  48.662  1.00  0.00    -0.085 C 
HETATM    3  C3  UNL     1      25.008   5.004  49.289  1.00  0.00     0.204 C 
ENDROOT
BRANCH   3   4
HETATM    4  C4  UNL     1      24.703   4.715  50.724  1.00  0.00     0.104 C 
BRANCH   4   5
HETATM    5  C5  UNL     1      24.281   3.276  50.950  1.00  0.00     0.070 C 
HETATM    6  N1  UNL     1      23.858   2.813  49.765  1.00  0.00    -0.133 NA
HETATM    7  O1  UNL     1      22.939   1.766  49.589  1.00  0.00    -0.194 OA
HETATM    8  C6  UNL     1      21.749   1.375  50.163  1.00  0.00     0.194 A 
HETATM    9  C7  UNL     1      20.369   0.886  50.558  1.00  0.00     0.123 A 
HETATM   10  N2  UNL     1      21.861   1.567  51.371  1.00  0.00    -0.240 N 
HETATM   11  S1  UNL     1      20.536   1.191  52.519  1.00  0.00    -0.017 SA
HETATM   12  C8  UNL     1      22.270   1.854  52.415  1.00  0.00     0.169 A 
HETATM   13  N3  UNL     1      23.390   2.387  53.096  1.00  0.00    -0.355 N 
HETATM   14  C9  UNL     1      24.526   3.013  52.404  1.00  0.00     0.167 C 
HETATM   15  H6  UNL     1      22.926   2.102  53.984  1.00  0.00     0.162 HD
BRANCH  14  16
HETATM   16  C10 UNL     1      25.617   2.057  52.618  1.00  0.00    -0.030 A 
HETATM   17  C11 UNL     1      26.725   2.304  53.405  1.00  0.00     0.011 A 
HETATM   18  C12 UNL     1      27.748   1.396  53.630  1.00  0.00     0.024 A 
HETATM   19  C13 UNL     1      27.630   0.171  53.014  1.00  0.00     0.034 A 
HETATM   20 CL1  UNL     1      28.868  -1.077  53.228  1.00  0.00    -0.084 Cl
HETATM   21  C14 UNL     1      26.546  -0.173  52.197  1.00  0.00     0.024 A 
HETATM   22  C15 UNL     1      25.596   0.805  52.049  1.00  0.00     0.011 A 
ENDBRANCH  14  16
ENDBRANCH   4   5
ENDBRANCH   3   4
BRANCH   3  23
HETATM   23  O2  UNL     1      26.317   5.484  49.086  1.00  0.00    -0.378 OA
HETATM   24  C16 UNL     1      27.177   4.377  48.971  1.00  0.00     0.203 C 
ENDBRANCH   3  23
TORSDOF 4
ENDMDL
