MODEL 1
REMARK VINA RESULT:      -9.0      0.000      0.000
REMARK  5 active torsions:
REMARK  status: ('A' for Active; 'I' for Inactive)
REMARK    1  A    between atoms: N1_1  and  C1_2 
REMARK    2  A    between atoms: C1_2  and  C2_3 
REMARK    3  A    between atoms: C6_9  and  N4_10 
REMARK    4  A    between atoms: N4_10  and  C7_11 
REMARK    5  A    between atoms: C15_20  and  C16_21 
ROOT
HETATM    1  C2  UNL     1      22.911   0.594  53.023  1.00  0.00    -0.015 A 
HETATM    2  C3  UNL     1      21.780   1.235  52.574  1.00  0.00     0.042 A 
HETATM    3  C4  UNL     1      21.864   2.558  52.216  1.00  0.00     0.072 A 
HETATM    4  N2  UNL     1      20.702   3.086  51.790  1.00  0.00    -0.241 NA
HETATM    5  C5  UNL     1      20.597   4.369  51.397  1.00  0.00     0.236 A 
HETATM    6  N3  UNL     1      21.722   5.056  51.463  1.00  0.00    -0.224 NA
HETATM    7  C6  UNL     1      22.924   4.650  51.862  1.00  0.00     0.142 A 
HETATM    8  C13 UNL     1      22.998   3.330  52.259  1.00  0.00     0.040 A 
HETATM    9  C14 UNL     1      24.128   2.689  52.708  1.00  0.00     0.032 A 
HETATM   10  C15 UNL     1      24.059   1.360  53.073  1.00  0.00     0.007 A 
ENDROOT
BRANCH   7  11
HETATM   11  N4  UNL     1      24.098   5.434  51.910  1.00  0.00    -0.340 N 
HETATM   12  H7  UNL     1      24.469   5.824  52.785  1.00  0.00     0.167 HD
BRANCH  11  13
HETATM   13  C7  UNL     1      24.930   5.804  50.824  1.00  0.00     0.035 A 
HETATM   14  C8  UNL     1      25.517   4.896  49.973  1.00  0.00     0.029 A 
HETATM   15  C9  UNL     1      26.324   5.225  48.904  1.00  0.00     0.004 A 
HETATM   16  C10 UNL     1      26.582   6.551  48.641  1.00  0.00     0.019 A 
HETATM   17  C11 UNL     1      26.028   7.515  49.450  1.00  0.00     0.013 A 
HETATM   18 BR1  UNL     1      26.346   9.355  49.137  1.00  0.00    -0.051 Br
HETATM   19  C12 UNL     1      25.238   7.103  50.493  1.00  0.00     0.048 A 
ENDBRANCH  11  13
ENDBRANCH   7  11
BRANCH  10  20
HETATM   20  C16 UNL     1      25.286   0.787  53.522  1.00  0.00     0.106 A 
HETATM   21  O1  UNL     1      26.380   1.391  53.642  1.00  0.00    -0.321 OA
HETATM   22  C17 UNL     1      26.256  -0.170  54.003  1.00  0.00     0.265 A 
HETATM   23  C18 UNL     1      26.607  -1.248  53.004  1.00  0.00     0.237 C 
HETATM   24  N5  UNL     1      27.570   0.459  54.206  1.00  0.00    -0.306 N 
HETATM   25  O2  UNL     1      27.942  -1.607  53.307  1.00  0.00    -0.299 OA
HETATM   26  C19 UNL     1      28.592  -0.498  53.885  1.00  0.00     0.362 C 
HETATM   27  O3  UNL     1      29.841  -0.644  53.957  1.00  0.00    -0.238 OA
HETATM   28  H16 UNL     1      28.077   1.349  54.499  1.00  0.00     0.167 HD
ENDBRANCH  10  20
BRANCH   1  29
HETATM   29  C1  UNL     1      22.860  -0.834  53.421  1.00  0.00     0.306 C 
BRANCH  29  30
HETATM   30  N1  UNL     1      22.315  -0.994  54.763  1.00  0.00     0.082 N 
HETATM   31  H1  UNL     1      22.374  -0.028  55.204  1.00  0.00     0.313 HD
HETATM   32  H2  UNL     1      21.308  -1.231  54.685  1.00  0.00     0.313 HD
ENDBRANCH  29  30
ENDBRANCH   1  29
TORSDOF 5
ENDMDL
MODEL 2
REMARK VINA RESULT:      -8.9      5.013      7.260
REMARK  5 active torsions:
REMARK  status: ('A' for Active; 'I' for Inactive)
REMARK    1  A    between atoms: N1_1  and  C1_2 
REMARK    2  A    between atoms: C1_2  and  C2_3 
REMARK    3  A    between atoms: C6_9  and  N4_10 
REMARK    4  A    between atoms: N4_10  and  C7_11 
REMARK    5  A    between atoms: C15_20  and  C16_21 
ROOT
HETATM    1  C2  UNL     1      19.874  -0.478  53.020  1.00  0.00    -0.015 A 
HETATM    2  C3  UNL     1      20.472  -1.139  54.067  1.00  0.00     0.042 A 
HETATM    3  C4  UNL     1      21.825  -0.994  54.258  1.00  0.00     0.072 A 
HETATM    4  N2  UNL     1      22.307  -1.681  55.310  1.00  0.00    -0.241 NA
HETATM    5  C5  UNL     1      23.609  -1.656  55.648  1.00  0.00     0.236 A 
HETATM    6  N3  UNL     1      24.363  -0.905  54.867  1.00  0.00    -0.224 NA
HETATM    7  C6  UNL     1      24.008  -0.184  53.808  1.00  0.00     0.142 A 
HETATM    8  C13 UNL     1      22.667  -0.232  53.487  1.00  0.00     0.040 A 
HETATM    9  C14 UNL     1      22.067   0.428  52.441  1.00  0.00     0.032 A 
HETATM   10  C15 UNL     1      20.709   0.292  52.236  1.00  0.00     0.007 A 
ENDROOT
BRANCH   7  11
HETATM   11  N4  UNL     1      24.863   0.605  53.008  1.00  0.00    -0.340 N 
HETATM   12  H7  UNL     1      24.535   1.113  52.178  1.00  0.00     0.167 HD
BRANCH  11  13
HETATM   13  C7  UNL     1      26.251   0.826  53.192  1.00  0.00     0.035 A 
HETATM   14  C8  UNL     1      26.807   2.074  53.348  1.00  0.00     0.029 A 
HETATM   15  C9  UNL     1      28.150   2.322  53.537  1.00  0.00     0.004 A 
HETATM   16  C10 UNL     1      29.028   1.263  53.576  1.00  0.00     0.019 A 
HETATM   17  C11 UNL     1      28.544  -0.016  53.427  1.00  0.00     0.013 A 
HETATM   18 BR1  UNL     1      29.703  -1.512  53.475  1.00  0.00    -0.051 Br
HETATM   19  C12 UNL     1      27.194  -0.174  53.243  1.00  0.00     0.048 A 
ENDBRANCH  11  13
ENDBRANCH   7  11
BRANCH  10  20
HETATM   20  C16 UNL     1      20.185   1.019  51.125  1.00  0.00     0.106 A 
HETATM   21  O1  UNL     1      20.124   0.609  49.940  1.00  0.00    -0.321 OA
HETATM   22  C17 UNL     1      19.587   2.072  50.336  1.00  0.00     0.265 A 
HETATM   23  C18 UNL     1      20.453   3.302  50.193  1.00  0.00     0.237 C 
HETATM   24  N5  UNL     1      19.445   1.668  48.929  1.00  0.00    -0.306 N 
HETATM   25  O2  UNL     1      20.098   3.856  48.940  1.00  0.00    -0.299 OA
HETATM   26  C19 UNL     1      19.644   2.821  48.097  1.00  0.00     0.362 C 
HETATM   27  O3  UNL     1      19.542   3.179  46.894  1.00  0.00    -0.238 OA
HETATM   28  H16 UNL     1      19.250   0.855  48.269  1.00  0.00     0.167 HD
ENDBRANCH  10  20
BRANCH   1  29
HETATM   29  C1  UNL     1      18.416  -0.610  52.780  1.00  0.00     0.306 C 
BRANCH  29  30
HETATM   30  N1  UNL     1      17.778  -1.421  53.809  1.00  0.00     0.082 N 
HETATM   31  H1  UNL     1      17.321  -2.226  53.287  1.00  0.00     0.313 HD
HETATM   32  H2  UNL     1      18.517  -1.831  54.412  1.00  0.00     0.313 HD
ENDBRANCH  29  30
ENDBRANCH   1  29
TORSDOF 5
ENDMDL
MODEL 3
REMARK VINA RESULT:      -8.9      1.793      2.188
REMARK  5 active torsions:
REMARK  status: ('A' for Active; 'I' for Inactive)
REMARK    1  A    between atoms: N1_1  and  C1_2 
REMARK    2  A    between atoms: C1_2  and  C2_3 
REMARK    3  A    between atoms: C6_9  and  N4_10 
REMARK    4  A    between atoms: N4_10  and  C7_11 
REMARK    5  A    between atoms: C15_20  and  C16_21 
ROOT
HETATM    1  C2  UNL     1      22.143  -0.062  53.201  1.00  0.00    -0.015 A 
HETATM    2  C3  UNL     1      21.027   0.156  52.429  1.00  0.00     0.042 A 
HETATM    3  C4  UNL     1      21.144   0.920  51.293  1.00  0.00     0.072 A 
HETATM    4  N2  UNL     1      19.993   1.069  50.612  1.00  0.00    -0.241 NA
HETATM    5  C5  UNL     1      19.920   1.785  49.474  1.00  0.00     0.236 A 
HETATM    6  N3  UNL     1      21.064   2.320  49.089  1.00  0.00    -0.224 NA
HETATM    7  C6  UNL     1      22.257   2.244  49.671  1.00  0.00     0.142 A 
HETATM    8  C13 UNL     1      22.298   1.505  50.835  1.00  0.00     0.040 A 
HETATM    9  C14 UNL     1      23.413   1.285  51.608  1.00  0.00     0.032 A 
HETATM   10  C15 UNL     1      23.311   0.520  52.753  1.00  0.00     0.007 A 
ENDROOT
BRANCH   7  11
HETATM   11  N4  UNL     1      23.452   2.839  49.209  1.00  0.00    -0.340 N 
HETATM   12  H7  UNL     1      24.069   2.385  48.524  1.00  0.00     0.167 HD
BRANCH  11  13
HETATM   13  C7  UNL     1      23.987   4.095  49.585  1.00  0.00     0.035 A 
HETATM   14  C8  UNL     1      23.420   4.909  50.538  1.00  0.00     0.029 A 
HETATM   15  C9  UNL     1      23.921   6.132  50.931  1.00  0.00     0.004 A 
HETATM   16  C10 UNL     1      25.074   6.604  50.346  1.00  0.00     0.019 A 
HETATM   17  C11 UNL     1      25.697   5.844  49.385  1.00  0.00     0.013 A 
HETATM   18 BR1  UNL     1      27.287   6.440  48.546  1.00  0.00    -0.051 Br
HETATM   19  C12 UNL     1      25.133   4.640  49.051  1.00  0.00     0.048 A 
ENDBRANCH  11  13
ENDBRANCH   7  11
BRANCH  10  20
HETATM   20  C16 UNL     1      24.526   0.351  53.483  1.00  0.00     0.106 A 
HETATM   21  O1  UNL     1      25.280   1.273  53.880  1.00  0.00    -0.321 OA
HETATM   22  C17 UNL     1      25.634  -0.268  54.173  1.00  0.00     0.265 A 
HETATM   23  C18 UNL     1      26.557  -1.058  53.274  1.00  0.00     0.237 C 
HETATM   24  N5  UNL     1      26.561   0.742  54.705  1.00  0.00    -0.306 N 
HETATM   25  O2  UNL     1      27.828  -0.975  53.893  1.00  0.00    -0.299 OA
HETATM   26  C19 UNL     1      27.898   0.223  54.632  1.00  0.00     0.362 C 
HETATM   27  O3  UNL     1      29.067   0.498  55.009  1.00  0.00    -0.238 OA
HETATM   28  H16 UNL     1      26.642   1.715  55.130  1.00  0.00     0.167 HD
ENDBRANCH  10  20
BRANCH   1  29
HETATM   29  C1  UNL     1      22.056  -0.881  54.436  1.00  0.00     0.306 C 
BRANCH  29  30
HETATM   30  N1  UNL     1      20.769  -1.555  54.538  1.00  0.00     0.082 N 
HETATM   31  H1  UNL     1      21.003  -2.579  54.706  1.00  0.00     0.313 HD
HETATM   32  H2  UNL     1      20.283  -1.213  55.388  1.00  0.00     0.313 HD
ENDBRANCH  29  30
ENDBRANCH   1  29
TORSDOF 5
ENDMDL
MODEL 4
REMARK VINA RESULT:      -8.8      5.006      8.099
REMARK  5 active torsions:
REMARK  status: ('A' for Active; 'I' for Inactive)
REMARK    1  A    between atoms: N1_1  and  C1_2 
REMARK    2  A    between atoms: C1_2  and  C2_3 
REMARK    3  A    between atoms: C6_9  and  N4_10 
REMARK    4  A    between atoms: N4_10  and  C7_11 
REMARK    5  A    between atoms: C15_20  and  C16_21 
ROOT
HETATM    1  C2  UNL     1      28.491   7.176  47.651  1.00  0.00    -0.015 A 
HETATM    2  C3  UNL     1      27.162   7.522  47.719  1.00  0.00     0.042 A 
HETATM    3  C4  UNL     1      26.267   6.622  48.245  1.00  0.00     0.072 A 
HETATM    4  N2  UNL     1      24.996   7.061  48.265  1.00  0.00    -0.241 NA
HETATM    5  C5  UNL     1      23.985   6.314  48.747  1.00  0.00     0.236 A 
HETATM    6  N3  UNL     1      24.348   5.126  49.194  1.00  0.00    -0.224 NA
HETATM    7  C6  UNL     1      25.561   4.583  49.229  1.00  0.00     0.142 A 
HETATM    8  C13 UNL     1      26.574   5.374  48.726  1.00  0.00     0.040 A 
HETATM    9  C14 UNL     1      27.904   5.030  48.659  1.00  0.00     0.032 A 
HETATM   10  C15 UNL     1      28.814   5.923  48.132  1.00  0.00     0.007 A 
ENDROOT
BRANCH   7  11
HETATM   11  N4  UNL     1      25.890   3.302  49.723  1.00  0.00    -0.340 N 
HETATM   12  H7  UNL     1      26.146   2.519  49.109  1.00  0.00     0.167 HD
BRANCH  11  13
HETATM   13  C7  UNL     1      25.925   2.885  51.077  1.00  0.00     0.035 A 
HETATM   14  C8  UNL     1      24.838   2.941  51.917  1.00  0.00     0.029 A 
HETATM   15  C9  UNL     1      24.837   2.535  53.235  1.00  0.00     0.004 A 
HETATM   16  C10 UNL     1      25.996   2.033  53.782  1.00  0.00     0.019 A 
HETATM   17  C11 UNL     1      27.125   1.947  53.001  1.00  0.00     0.013 A 
HETATM   18 BR1  UNL     1      28.747   1.263  53.698  1.00  0.00    -0.051 Br
HETATM   19  C12 UNL     1      27.040   2.372  51.700  1.00  0.00     0.048 A 
ENDBRANCH  11  13
ENDBRANCH   7  11
BRANCH  10  20
HETATM   20  C16 UNL     1      30.168   5.471  48.109  1.00  0.00     0.106 A 
HETATM   21  O1  UNL     1      30.962   5.477  49.081  1.00  0.00    -0.321 OA
HETATM   22  C17 UNL     1      31.423   4.930  47.641  1.00  0.00     0.265 A 
HETATM   23  C18 UNL     1      32.144   5.813  46.649  1.00  0.00     0.237 C 
HETATM   24  N5  UNL     1      32.413   4.867  48.727  1.00  0.00    -0.306 N 
HETATM   25  O2  UNL     1      33.518   5.536  46.843  1.00  0.00    -0.299 OA
HETATM   26  C19 UNL     1      33.715   5.124  48.177  1.00  0.00     0.362 C 
HETATM   27  O3  UNL     1      34.930   5.096  48.507  1.00  0.00    -0.238 OA
HETATM   28  H16 UNL     1      32.557   4.704  49.770  1.00  0.00     0.167 HD
ENDBRANCH  10  20
BRANCH   1  29
HETATM   29  C1  UNL     1      29.488   8.121  47.088  1.00  0.00     0.306 C 
BRANCH  29  30
HETATM   30  N1  UNL     1      29.950   9.068  48.094  1.00  0.00     0.082 N 
HETATM   31  H1  UNL     1      30.979   8.843  48.237  1.00  0.00     0.313 HD
HETATM   32  H2  UNL     1      29.901  10.024  47.694  1.00  0.00     0.313 HD
ENDBRANCH  29  30
ENDBRANCH   1  29
TORSDOF 5
ENDMDL
MODEL 5
REMARK VINA RESULT:      -8.4      5.333      8.404
REMARK  5 active torsions:
REMARK  status: ('A' for Active; 'I' for Inactive)
REMARK    1  A    between atoms: N1_1  and  C1_2 
REMARK    2  A    between atoms: C1_2  and  C2_3 
REMARK    3  A    between atoms: C6_9  and  N4_10 
REMARK    4  A    between atoms: N4_10  and  C7_11 
REMARK    5  A    between atoms: C15_20  and  C16_21 
ROOT
HETATM    1  C2  UNL     1      29.602   7.143  47.511  1.00  0.00    -0.015 A 
HETATM    2  C3  UNL     1      28.427   7.843  47.657  1.00  0.00     0.042 A 
HETATM    3  C4  UNL     1      27.327   7.195  48.164  1.00  0.00     0.072 A 
HETATM    4  N2  UNL     1      26.232   7.972  48.267  1.00  0.00    -0.241 NA
HETATM    5  C5  UNL     1      25.063   7.506  48.744  1.00  0.00     0.236 A 
HETATM    6  N3  UNL     1      25.085   6.235  49.100  1.00  0.00    -0.224 NA
HETATM    7  C6  UNL     1      26.095   5.371  49.049  1.00  0.00     0.142 A 
HETATM    8  C13 UNL     1      27.279   5.880  48.553  1.00  0.00     0.040 A 
HETATM    9  C14 UNL     1      28.454   5.182  48.407  1.00  0.00     0.032 A 
HETATM   10  C15 UNL     1      29.567   5.819  47.899  1.00  0.00     0.007 A 
ENDROOT
BRANCH   7  11
HETATM   11  N4  UNL     1      26.059   4.018  49.447  1.00  0.00    -0.340 N 
HETATM   12  H7  UNL     1      26.903   3.434  49.508  1.00  0.00     0.167 HD
BRANCH  11  13
HETATM   13  C7  UNL     1      24.920   3.259  49.814  1.00  0.00     0.035 A 
HETATM   14  C8  UNL     1      23.789   3.163  49.037  1.00  0.00     0.029 A 
HETATM   15  C9  UNL     1      22.669   2.427  49.361  1.00  0.00     0.004 A 
HETATM   16  C10 UNL     1      22.647   1.724  50.544  1.00  0.00     0.019 A 
HETATM   17  C11 UNL     1      23.744   1.772  51.373  1.00  0.00     0.013 A 
HETATM   18 BR1  UNL     1      23.774   0.825  53.012  1.00  0.00    -0.051 Br
HETATM   19  C12 UNL     1      24.817   2.529  50.975  1.00  0.00     0.048 A 
ENDBRANCH  11  13
ENDBRANCH   7  11
BRANCH  10  20
HETATM   20  C16 UNL     1      30.737   5.007  47.789  1.00  0.00     0.106 A 
HETATM   21  O1  UNL     1      31.596   4.829  48.688  1.00  0.00    -0.321 OA
HETATM   22  C17 UNL     1      31.743   4.120  47.252  1.00  0.00     0.265 A 
HETATM   23  C18 UNL     1      32.575   4.729  46.146  1.00  0.00     0.237 C 
HETATM   24  N5  UNL     1      32.782   3.827  48.251  1.00  0.00    -0.306 N 
HETATM   25  O2  UNL     1      33.833   4.089  46.240  1.00  0.00    -0.299 OA
HETATM   26  C19 UNL     1      34.042   3.690  47.576  1.00  0.00     0.362 C 
HETATM   27  O3  UNL     1      35.230   3.338  47.802  1.00  0.00    -0.238 OA
HETATM   28  H16 UNL     1      32.979   3.670  49.286  1.00  0.00     0.167 HD
ENDBRANCH  10  20
BRANCH   1  29
HETATM   29  C1  UNL     1      30.812   7.807  46.966  1.00  0.00     0.306 C 
BRANCH  29  30
HETATM   30  N1  UNL     1      30.764   7.890  45.512  1.00  0.00     0.082 N 
HETATM   31  H1  UNL     1      31.137   6.956  45.168  1.00  0.00     0.313 HD
HETATM   32  H2  UNL     1      29.771   7.948  45.217  1.00  0.00     0.313 HD
ENDBRANCH  29  30
ENDBRANCH   1  29
TORSDOF 5
ENDMDL
MODEL 6
REMARK VINA RESULT:      -8.3      3.344      5.693
REMARK  5 active torsions:
REMARK  status: ('A' for Active; 'I' for Inactive)
REMARK    1  A    between atoms: N1_1  and  C1_2 
REMARK    2  A    between atoms: C1_2  and  C2_3 
REMARK    3  A    between atoms: C6_9  and  N4_10 
REMARK    4  A    between atoms: N4_10  and  C7_11 
REMARK    5  A    between atoms: C15_20  and  C16_21 
ROOT
HETATM    1  C2  UNL     1      22.955   0.080  53.188  1.00  0.00    -0.015 A 
HETATM    2  C3  UNL     1      24.275   0.126  53.571  1.00  0.00     0.042 A 
HETATM    3  C4  UNL     1      25.149   0.903  52.849  1.00  0.00     0.072 A 
HETATM    4  N2  UNL     1      26.413   0.878  53.310  1.00  0.00    -0.241 NA
HETATM    5  C5  UNL     1      27.403   1.579  52.728  1.00  0.00     0.236 A 
HETATM    6  N3  UNL     1      27.029   2.288  51.678  1.00  0.00    -0.224 NA
HETATM    7  C6  UNL     1      25.821   2.395  51.133  1.00  0.00     0.142 A 
HETATM    8  C13 UNL     1      24.829   1.662  51.752  1.00  0.00     0.040 A 
HETATM    9  C14 UNL     1      23.509   1.615  51.371  1.00  0.00     0.032 A 
HETATM   10  C15 UNL     1      22.619   0.839  52.085  1.00  0.00     0.007 A 
ENDROOT
BRANCH   7  11
HETATM   11  N4  UNL     1      25.479   3.173  50.006  1.00  0.00    -0.340 N 
HETATM   12  H7  UNL     1      24.750   2.893  49.338  1.00  0.00     0.167 HD
BRANCH  11  13
HETATM   13  C7  UNL     1      26.044   4.411  49.612  1.00  0.00     0.035 A 
HETATM   14  C8  UNL     1      27.217   4.518  48.901  1.00  0.00     0.029 A 
HETATM   15  C9  UNL     1      27.789   5.706  48.495  1.00  0.00     0.004 A 
HETATM   16  C10 UNL     1      27.165   6.892  48.809  1.00  0.00     0.019 A 
HETATM   17  C11 UNL     1      25.987   6.863  49.519  1.00  0.00     0.013 A 
HETATM   18 BR1  UNL     1      25.082   8.462  49.978  1.00  0.00    -0.051 Br
HETATM   19  C12 UNL     1      25.487   5.639  49.884  1.00  0.00     0.048 A 
ENDBRANCH  11  13
ENDBRANCH   7  11
BRANCH  10  20
HETATM   20  C16 UNL     1      21.273   0.860  51.610  1.00  0.00     0.106 A 
HETATM   21  O1  UNL     1      20.912   0.710  50.416  1.00  0.00    -0.321 OA
HETATM   22  C17 UNL     1      19.832   0.954  51.582  1.00  0.00     0.265 A 
HETATM   23  C18 UNL     1      19.298   2.333  51.895  1.00  0.00     0.237 C 
HETATM   24  N5  UNL     1      19.312   0.757  50.220  1.00  0.00    -0.306 N 
HETATM   25  O2  UNL     1      18.080   2.424  51.179  1.00  0.00    -0.299 OA
HETATM   26  C19 UNL     1      18.154   1.589  50.046  1.00  0.00     0.362 C 
HETATM   27  O3  UNL     1      17.222   1.794  49.225  1.00  0.00    -0.238 OA
HETATM   28  H16 UNL     1      19.448   0.240  49.299  1.00  0.00     0.167 HD
ENDBRANCH  10  20
BRANCH   1  29
HETATM   29  C1  UNL     1      21.981  -0.749  53.941  1.00  0.00     0.306 C 
BRANCH  29  30
HETATM   30  N1  UNL     1      21.243   0.049  54.912  1.00  0.00     0.082 N 
HETATM   31  H1  UNL     1      20.985  -0.629  55.690  1.00  0.00     0.313 HD
HETATM   32  H2  UNL     1      21.888   0.750  55.322  1.00  0.00     0.313 HD
ENDBRANCH  29  30
ENDBRANCH   1  29
TORSDOF 5
ENDMDL
MODEL 7
REMARK VINA RESULT:      -8.2      4.178      6.944
REMARK  5 active torsions:
REMARK  status: ('A' for Active; 'I' for Inactive)
REMARK    1  A    between atoms: N1_1  and  C1_2 
REMARK    2  A    between atoms: C1_2  and  C2_3 
REMARK    3  A    between atoms: C6_9  and  N4_10 
REMARK    4  A    between atoms: N4_10  and  C7_11 
REMARK    5  A    between atoms: C15_20  and  C16_21 
ROOT
HETATM    1  C2  UNL     1      19.580  -0.902  53.350  1.00  0.00    -0.015 A 
HETATM    2  C3  UNL     1      20.418  -1.386  54.327  1.00  0.00     0.042 A 
HETATM    3  C4  UNL     1      21.754  -1.074  54.270  1.00  0.00     0.072 A 
HETATM    4  N2  UNL     1      22.483  -1.597  55.274  1.00  0.00    -0.241 NA
HETATM    5  C5  UNL     1      23.809  -1.395  55.380  1.00  0.00     0.236 A 
HETATM    6  N3  UNL     1      24.327  -0.646  54.423  1.00  0.00    -0.224 NA
HETATM    7  C6  UNL     1      23.717  -0.076  53.388  1.00  0.00     0.142 A 
HETATM    8  C13 UNL     1      22.358  -0.304  53.308  1.00  0.00     0.040 A 
HETATM    9  C14 UNL     1      21.519   0.179  52.332  1.00  0.00     0.032 A 
HETATM   10  C15 UNL     1      20.174  -0.126  52.375  1.00  0.00     0.007 A 
ENDROOT
BRANCH   7  11
HETATM   11  N4  UNL     1      24.326   0.719  52.393  1.00  0.00    -0.340 N 
HETATM   12  H7  UNL     1      25.032   0.352  51.743  1.00  0.00     0.167 HD
BRANCH  11  13
HETATM   13  C7  UNL     1      24.089   2.090  52.124  1.00  0.00     0.035 A 
HETATM   14  C8  UNL     1      23.998   3.052  53.104  1.00  0.00     0.029 A 
HETATM   15  C9  UNL     1      23.777   4.393  52.875  1.00  0.00     0.004 A 
HETATM   16  C10 UNL     1      23.633   4.837  51.580  1.00  0.00     0.019 A 
HETATM   17  C11 UNL     1      23.713   3.933  50.548  1.00  0.00     0.013 A 
HETATM   18 BR1  UNL     1      23.525   4.485  48.746  1.00  0.00    -0.051 Br
HETATM   19  C12 UNL     1      23.934   2.616  50.862  1.00  0.00     0.048 A 
ENDBRANCH  11  13
ENDBRANCH   7  11
BRANCH  10  20
HETATM   20  C16 UNL     1      19.390   0.426  51.318  1.00  0.00     0.106 A 
HETATM   21  O1  UNL     1      19.833   0.901  50.243  1.00  0.00    -0.321 OA
HETATM   22  C17 UNL     1      18.254   0.870  50.543  1.00  0.00     0.265 A 
HETATM   23  C18 UNL     1      17.533   2.061  51.132  1.00  0.00     0.237 C 
HETATM   24  N5  UNL     1      18.676   1.416  49.244  1.00  0.00    -0.306 N 
HETATM   25  O2  UNL     1      16.989   2.746  50.020  1.00  0.00    -0.299 OA
HETATM   26  C19 UNL     1      17.796   2.495  48.892  1.00  0.00     0.362 C 
HETATM   27  O3  UNL     1      17.534   3.255  47.923  1.00  0.00    -0.238 OA
HETATM   28  H16 UNL     1      19.379   1.333  48.449  1.00  0.00     0.167 HD
ENDBRANCH  10  20
BRANCH   1  29
HETATM   29  C1  UNL     1      18.130  -1.218  53.376  1.00  0.00     0.306 C 
BRANCH  29  30
HETATM   30  N1  UNL     1      17.877  -2.501  54.017  1.00  0.00     0.082 N 
HETATM   31  H1  UNL     1      18.150  -2.363  55.036  1.00  0.00     0.313 HD
HETATM   32  H2  UNL     1      16.856  -2.684  53.999  1.00  0.00     0.313 HD
ENDBRANCH  29  30
ENDBRANCH   1  29
TORSDOF 5
ENDMDL
MODEL 8
REMARK VINA RESULT:      -7.9      4.377      8.399
REMARK  5 active torsions:
REMARK  status: ('A' for Active; 'I' for Inactive)
REMARK    1  A    between atoms: N1_1  and  C1_2 
REMARK    2  A    between atoms: C1_2  and  C2_3 
REMARK    3  A    between atoms: C6_9  and  N4_10 
REMARK    4  A    between atoms: N4_10  and  C7_11 
REMARK    5  A    between atoms: C15_20  and  C16_21 
ROOT
HETATM    1  C2  UNL     1      25.598   4.560  49.759  1.00  0.00    -0.015 A 
HETATM    2  C3  UNL     1      26.405   3.505  50.115  1.00  0.00     0.042 A 
HETATM    3  C4  UNL     1      25.943   2.596  51.036  1.00  0.00     0.072 A 
HETATM    4  N2  UNL     1      26.810   1.605  51.311  1.00  0.00    -0.241 NA
HETATM    5  C5  UNL     1      26.525   0.624  52.188  1.00  0.00     0.236 A 
HETATM    6  N3  UNL     1      25.333   0.719  52.748  1.00  0.00    -0.224 NA
HETATM    7  C6  UNL     1      24.395   1.642  52.559  1.00  0.00     0.142 A 
HETATM    8  C13 UNL     1      24.718   2.634  51.655  1.00  0.00     0.040 A 
HETATM    9  C14 UNL     1      23.913   3.689  51.297  1.00  0.00     0.032 A 
HETATM   10  C15 UNL     1      24.364   4.610  50.375  1.00  0.00     0.007 A 
ENDROOT
BRANCH   7  11
HETATM   11  N4  UNL     1      23.132   1.692  53.188  1.00  0.00    -0.340 N 
HETATM   12  H7  UNL     1      22.718   2.566  53.535  1.00  0.00     0.167 HD
BRANCH  11  13
HETATM   13  C7  UNL     1      22.255   0.608  53.443  1.00  0.00     0.035 A 
HETATM   14  C8  UNL     1      22.591  -0.474  54.224  1.00  0.00     0.029 A 
HETATM   15  C9  UNL     1      21.759  -1.538  54.497  1.00  0.00     0.004 A 
HETATM   16  C10 UNL     1      20.490  -1.552  53.964  1.00  0.00     0.019 A 
HETATM   17  C11 UNL     1      20.084  -0.504  53.172  1.00  0.00     0.013 A 
HETATM   18 BR1  UNL     1      18.350  -0.466  52.412  1.00  0.00    -0.051 Br
HETATM   19  C12 UNL     1      20.974   0.516  52.950  1.00  0.00     0.048 A 
ENDBRANCH  11  13
ENDBRANCH   7  11
BRANCH  10  20
HETATM   20  C16 UNL     1      23.451   5.665  50.071  1.00  0.00     0.106 A 
HETATM   21  O1  UNL     1      23.342   6.747  50.699  1.00  0.00    -0.321 OA
HETATM   22  C17 UNL     1      22.412   6.434  49.426  1.00  0.00     0.265 A 
HETATM   23  C18 UNL     1      21.027   5.848  49.578  1.00  0.00     0.237 C 
HETATM   24  N5  UNL     1      22.234   7.740  50.077  1.00  0.00    -0.306 N 
HETATM   25  O2  UNL     1      20.153   6.961  49.546  1.00  0.00    -0.299 OA
HETATM   26  C19 UNL     1      20.843   8.094  50.023  1.00  0.00     0.362 C 
HETATM   27  O3  UNL     1      20.080   9.067  50.263  1.00  0.00    -0.238 OA
HETATM   28  H16 UNL     1      22.726   8.542  50.577  1.00  0.00     0.167 HD
ENDBRANCH  10  20
BRANCH   1  29
HETATM   29  C1  UNL     1      26.062   5.563  48.769  1.00  0.00     0.306 C 
BRANCH  29  30
HETATM   30  N1  UNL     1      27.052   6.463  49.347  1.00  0.00     0.082 N 
HETATM   31  H1  UNL     1      27.893   6.406  48.699  1.00  0.00     0.313 HD
HETATM   32  H2  UNL     1      26.690   7.433  49.290  1.00  0.00     0.313 HD
ENDBRANCH  29  30
ENDBRANCH   1  29
TORSDOF 5
ENDMDL
MODEL 9
REMARK VINA RESULT:      -7.9      3.047      6.039
REMARK  5 active torsions:
REMARK  status: ('A' for Active; 'I' for Inactive)
REMARK    1  A    between atoms: N1_1  and  C1_2 
REMARK    2  A    between atoms: C1_2  and  C2_3 
REMARK    3  A    between atoms: C6_9  and  N4_10 
REMARK    4  A    between atoms: N4_10  and  C7_11 
REMARK    5  A    between atoms: C15_20  and  C16_21 
ROOT
HETATM    1  C2  UNL     1      25.253   0.476  52.790  1.00  0.00    -0.015 A 
HETATM    2  C3  UNL     1      24.551  -0.517  53.432  1.00  0.00     0.042 A 
HETATM    3  C4  UNL     1      23.195  -0.371  53.598  1.00  0.00     0.072 A 
HETATM    4  N2  UNL     1      22.607  -1.399  54.237  1.00  0.00    -0.241 NA
HETATM    5  C5  UNL     1      21.284  -1.428  54.485  1.00  0.00     0.236 A 
HETATM    6  N3  UNL     1      20.622  -0.372  54.050  1.00  0.00    -0.224 NA
HETATM    7  C6  UNL     1      21.086   0.697  53.410  1.00  0.00     0.142 A 
HETATM    8  C13 UNL     1      22.445   0.697  53.172  1.00  0.00     0.040 A 
HETATM    9  C14 UNL     1      23.148   1.687  52.529  1.00  0.00     0.032 A 
HETATM   10  C15 UNL     1      24.511   1.556  52.356  1.00  0.00     0.007 A 
ENDROOT
BRANCH   7  11
HETATM   11  N4  UNL     1      20.325   1.800  52.966  1.00  0.00    -0.340 N 
HETATM   12  H7  UNL     1      20.208   2.655  53.524  1.00  0.00     0.167 HD
BRANCH  11  13
HETATM   13  C7  UNL     1      19.624   1.924  51.740  1.00  0.00     0.035 A 
HETATM   14  C8  UNL     1      18.812   0.939  51.227  1.00  0.00     0.029 A 
HETATM   15  C9  UNL     1      18.111   1.032  50.043  1.00  0.00     0.004 A 
HETATM   16  C10 UNL     1      18.209   2.183  49.294  1.00  0.00     0.019 A 
HETATM   17  C11 UNL     1      19.002   3.212  49.746  1.00  0.00     0.013 A 
HETATM   18 BR1  UNL     1      19.175   4.820  48.761  1.00  0.00    -0.051 Br
HETATM   19  C12 UNL     1      19.667   3.037  50.933  1.00  0.00     0.048 A 
ENDBRANCH  11  13
ENDBRANCH   7  11
BRANCH  10  20
HETATM   20  C16 UNL     1      25.146   2.638  51.676  1.00  0.00     0.106 A 
HETATM   21  O1  UNL     1      24.605   3.726  51.356  1.00  0.00    -0.321 OA
HETATM   22  C17 UNL     1      26.147   3.437  51.008  1.00  0.00     0.265 A 
HETATM   23  C18 UNL     1      26.571   2.895  49.661  1.00  0.00     0.237 C 
HETATM   24  N5  UNL     1      25.611   4.751  50.622  1.00  0.00    -0.306 N 
HETATM   25  O2  UNL     1      26.941   4.036  48.909  1.00  0.00    -0.299 OA
HETATM   26  C19 UNL     1      26.216   5.148  49.382  1.00  0.00     0.362 C 
HETATM   27  O3  UNL     1      26.295   6.145  48.616  1.00  0.00    -0.238 OA
HETATM   28  H16 UNL     1      24.948   5.538  50.896  1.00  0.00     0.167 HD
ENDBRANCH  10  20
BRANCH   1  29
HETATM   29  C1  UNL     1      26.719   0.356  52.593  1.00  0.00     0.306 C 
BRANCH  29  30
HETATM   30  N1  UNL     1      27.447   0.672  53.815  1.00  0.00     0.082 N 
HETATM   31  H1  UNL     1      28.461   0.431  53.605  1.00  0.00     0.313 HD
HETATM   32  H2  UNL     1      27.405   1.697  53.969  1.00  0.00     0.313 HD
ENDBRANCH  29  30
ENDBRANCH   1  29
TORSDOF 5
ENDMDL
