MODEL 1
REMARK VINA RESULT:      -7.9      0.000      0.000
REMARK  8 active torsions:
REMARK  status: ('A' for Active; 'I' for Inactive)
REMARK    1  A    between atoms: C2_2  and  N1_3 
REMARK    2  A    between atoms: N1_3  and  C3_4 
REMARK    3  A    between atoms: C6_7  and  N2_8 
REMARK    4  A    between atoms: N2_8  and  C7_9 
REMARK    5  A    between atoms: C18_24  and  O1_25 
REMARK    6  A    between atoms: O1_25  and  C19_26 
REMARK    7  A    between atoms: C19_26  and  C20_27 
REMARK    8  A    between atoms: C20_27  and  N5_28 
ROOT
HETATM    1  C3  UNL     1      24.427   3.256  50.439  1.00  0.00     0.062 A 
HETATM    2  C4  UNL     1      24.452   2.494  51.614  1.00  0.00     0.048 A 
HETATM    3  C5  UNL     1      23.466   1.545  51.866  1.00  0.00     0.023 A 
HETATM    4  C6  UNL     1      23.422   0.757  52.997  1.00  0.00     0.067 A 
HETATM    5  C13 UNL     1      22.392  -0.146  53.127  1.00  0.00     0.089 A 
HETATM    6  C14 UNL     1      22.327  -0.985  54.307  1.00  0.00     0.103 C 
HETATM    7  N3  UNL     1      22.270  -1.660  55.261  1.00  0.00    -0.191 NA
HETATM    8  C15 UNL     1      21.382  -0.332  52.205  1.00  0.00     0.142 A 
HETATM    9  N4  UNL     1      21.447   0.461  51.094  1.00  0.00    -0.259 NA
HETATM   10  C16 UNL     1      22.451   1.348  50.956  1.00  0.00     0.071 A 
HETATM   11  C17 UNL     1      22.474   2.122  49.820  1.00  0.00     0.071 A 
HETATM   12  C18 UNL     1      23.403   3.077  49.490  1.00  0.00     0.097 A 
ENDROOT
BRANCH   4  13
HETATM   13  N2  UNL     1      24.442   0.911  53.976  1.00  0.00    -0.354 N 
HETATM   14  H8  UNL     1      24.350   1.413  54.868  1.00  0.00     0.166 HD
BRANCH  13  15
HETATM   15  C7  UNL     1      25.710   0.324  53.713  1.00  0.00     0.034 A 
HETATM   16  C8  UNL     1      25.802  -0.892  53.058  1.00  0.00     0.032 A 
HETATM   17  C9  UNL     1      26.989  -1.532  52.758  1.00  0.00     0.046 A 
HETATM   18  C10 UNL     1      28.147  -0.891  53.155  1.00  0.00     0.138 A 
HETATM   19  F1  UNL     1      29.331  -1.476  52.887  1.00  0.00    -0.204 F 
HETATM   20  C11 UNL     1      28.123   0.305  53.802  1.00  0.00     0.074 A 
HETATM   21 CL1  UNL     1      29.578   1.139  54.311  1.00  0.00    -0.081 Cl
HETATM   22  C12 UNL     1      26.908   0.889  54.069  1.00  0.00     0.056 A 
ENDBRANCH  13  15
ENDBRANCH   4  13
BRANCH   1  23
HETATM   23  N1  UNL     1      25.525   4.147  50.414  1.00  0.00    -0.388 N 
HETATM   24  H6  UNL     1      25.335   4.942  51.093  1.00  0.00     0.159 HD
BRANCH  23  25
HETATM   25  C2  UNL     1      26.759   4.172  49.690  1.00  0.00     0.115 C 
HETATM   26  C1  UNL     1      26.785   5.398  48.802  1.00  0.00     0.026 C 
ENDBRANCH  23  25
ENDBRANCH   1  23
BRANCH  12  27
HETATM   27  O1  UNL     1      23.578   3.910  48.449  1.00  0.00    -0.347 OA
BRANCH  27  28
HETATM   28  C19 UNL     1      22.801   4.955  47.980  1.00  0.00     0.206 C 
BRANCH  28  29
HETATM   29  C20 UNL     1      22.890   6.204  48.804  1.00  0.00     0.297 C 
BRANCH  29  30
HETATM   30  N5  UNL     1      21.753   6.355  49.680  1.00  0.00     0.082 N 
HETATM   31  C21 UNL     1      22.014   6.130  51.060  1.00  0.00     0.309 C 
HETATM   32  C22 UNL     1      20.624   5.690  49.124  1.00  0.00     0.309 C 
ENDBRANCH  29  30
ENDBRANCH  28  29
ENDBRANCH  27  28
ENDBRANCH  12  27
TORSDOF 8
ENDMDL
MODEL 2
REMARK VINA RESULT:      -7.6      1.301      1.674
REMARK  8 active torsions:
REMARK  status: ('A' for Active; 'I' for Inactive)
REMARK    1  A    between atoms: C2_2  and  N1_3 
REMARK    2  A    between atoms: N1_3  and  C3_4 
REMARK    3  A    between atoms: C6_7  and  N2_8 
REMARK    4  A    between atoms: N2_8  and  C7_9 
REMARK    5  A    between atoms: C18_24  and  O1_25 
REMARK    6  A    between atoms: O1_25  and  C19_26 
REMARK    7  A    between atoms: C19_26  and  C20_27 
REMARK    8  A    between atoms: C20_27  and  N5_28 
ROOT
HETATM    1  C3  UNL     1      24.179   3.110  49.970  1.00  0.00     0.062 A 
HETATM    2  C4  UNL     1      24.312   2.470  51.209  1.00  0.00     0.048 A 
HETATM    3  C5  UNL     1      23.371   1.536  51.631  1.00  0.00     0.023 A 
HETATM    4  C6  UNL     1      23.433   0.864  52.834  1.00  0.00     0.067 A 
HETATM    5  C13 UNL     1      22.438  -0.037  53.133  1.00  0.00     0.089 A 
HETATM    6  C14 UNL     1      22.483  -0.754  54.392  1.00  0.00     0.103 C 
HETATM    7  N3  UNL     1      22.517  -1.331  55.409  1.00  0.00    -0.191 NA
HETATM    8  C15 UNL     1      21.365  -0.331  52.316  1.00  0.00     0.142 A 
HETATM    9  N4  UNL     1      21.325   0.347  51.132  1.00  0.00    -0.259 NA
HETATM   10  C16 UNL     1      22.294   1.232  50.827  1.00  0.00     0.071 A 
HETATM   11  C17 UNL     1      22.211   1.889  49.623  1.00  0.00     0.071 A 
HETATM   12  C18 UNL     1      23.090   2.820  49.128  1.00  0.00     0.097 A 
ENDROOT
BRANCH   4  13
HETATM   13  N2  UNL     1      24.521   1.132  53.709  1.00  0.00    -0.354 N 
HETATM   14  H8  UNL     1      24.520   1.807  54.484  1.00  0.00     0.166 HD
BRANCH  13  15
HETATM   15  C7  UNL     1      25.729   0.409  53.508  1.00  0.00     0.034 A 
HETATM   16  C8  UNL     1      25.710  -0.852  52.938  1.00  0.00     0.032 A 
HETATM   17  C9  UNL     1      26.832  -1.623  52.703  1.00  0.00     0.046 A 
HETATM   18  C10 UNL     1      28.043  -1.070  53.076  1.00  0.00     0.138 A 
HETATM   19  F1  UNL     1      29.167  -1.783  52.869  1.00  0.00    -0.204 F 
HETATM   20  C11 UNL     1      28.127   0.164  53.641  1.00  0.00     0.074 A 
HETATM   21 CL1  UNL     1      29.652   0.887  54.121  1.00  0.00    -0.081 Cl
HETATM   22  C12 UNL     1      26.972   0.879  53.848  1.00  0.00     0.056 A 
ENDBRANCH  13  15
ENDBRANCH   4  13
BRANCH   1  23
HETATM   23  N1  UNL     1      25.250   4.011  49.770  1.00  0.00    -0.388 N 
HETATM   24  H6  UNL     1      24.871   5.004  49.798  1.00  0.00     0.159 HD
BRANCH  23  25
HETATM   25  C2  UNL     1      26.653   3.842  49.552  1.00  0.00     0.115 C 
HETATM   26  C1  UNL     1      27.178   5.030  48.773  1.00  0.00     0.026 C 
ENDBRANCH  23  25
ENDBRANCH   1  23
BRANCH  12  27
HETATM   27  O1  UNL     1      23.164   3.547  47.998  1.00  0.00    -0.347 OA
BRANCH  27  28
HETATM   28  C19 UNL     1      22.597   4.764  47.662  1.00  0.00     0.206 C 
BRANCH  28  29
HETATM   29  C20 UNL     1      21.122   4.703  47.398  1.00  0.00     0.297 C 
BRANCH  29  30
HETATM   30  N5  UNL     1      20.790   3.689  46.425  1.00  0.00     0.082 N 
HETATM   31  C21 UNL     1      21.267   3.930  45.108  1.00  0.00     0.309 C 
HETATM   32  C22 UNL     1      19.420   3.326  46.557  1.00  0.00     0.309 C 
ENDBRANCH  29  30
ENDBRANCH  28  29
ENDBRANCH  27  28
ENDBRANCH  12  27
TORSDOF 8
ENDMDL
MODEL 3
REMARK VINA RESULT:      -7.6      3.869      7.705
REMARK  8 active torsions:
REMARK  status: ('A' for Active; 'I' for Inactive)
REMARK    1  A    between atoms: C2_2  and  N1_3 
REMARK    2  A    between atoms: N1_3  and  C3_4 
REMARK    3  A    between atoms: C6_7  and  N2_8 
REMARK    4  A    between atoms: N2_8  and  C7_9 
REMARK    5  A    between atoms: C18_24  and  O1_25 
REMARK    6  A    between atoms: O1_25  and  C19_26 
REMARK    7  A    between atoms: C19_26  and  C20_27 
REMARK    8  A    between atoms: C20_27  and  N5_28 
ROOT
HETATM    1  C3  UNL     1      23.981   0.238  53.086  1.00  0.00     0.062 A 
HETATM    2  C4  UNL     1      23.010   1.228  52.880  1.00  0.00     0.048 A 
HETATM    3  C5  UNL     1      23.313   2.382  52.166  1.00  0.00     0.023 A 
HETATM    4  C6  UNL     1      22.414   3.399  51.920  1.00  0.00     0.067 A 
HETATM    5  C13 UNL     1      22.839   4.490  51.199  1.00  0.00     0.089 A 
HETATM    6  C14 UNL     1      21.910   5.570  50.929  1.00  0.00     0.103 C 
HETATM    7  N3  UNL     1      21.163   6.444  50.714  1.00  0.00    -0.191 NA
HETATM    8  C15 UNL     1      24.111   4.655  50.691  1.00  0.00     0.142 A 
HETATM    9  N4  UNL     1      24.984   3.636  50.948  1.00  0.00    -0.259 NA
HETATM   10  C16 UNL     1      24.579   2.563  51.653  1.00  0.00     0.071 A 
HETATM   11  C17 UNL     1      25.493   1.563  51.884  1.00  0.00     0.071 A 
HETATM   12  C18 UNL     1      25.282   0.395  52.574  1.00  0.00     0.097 A 
ENDROOT
BRANCH   4  13
HETATM   13  N2  UNL     1      21.089   3.273  52.422  1.00  0.00    -0.354 N 
HETATM   14  H8  UNL     1      20.703   3.770  53.235  1.00  0.00     0.166 HD
BRANCH  13  15
HETATM   15  C7  UNL     1      20.205   2.384  51.751  1.00  0.00     0.034 A 
HETATM   16  C8  UNL     1      19.891   2.576  50.417  1.00  0.00     0.032 A 
HETATM   17  C9  UNL     1      19.047   1.761  49.686  1.00  0.00     0.046 A 
HETATM   18  C10 UNL     1      18.492   0.692  50.363  1.00  0.00     0.138 A 
HETATM   19  F1  UNL     1      17.661  -0.131  49.695  1.00  0.00    -0.204 F 
HETATM   20  C11 UNL     1      18.761   0.451  51.674  1.00  0.00     0.074 A 
HETATM   21 CL1  UNL     1      18.071  -0.901  52.553  1.00  0.00    -0.081 Cl
HETATM   22  C12 UNL     1      19.610   1.299  52.343  1.00  0.00     0.056 A 
ENDBRANCH  13  15
ENDBRANCH   4  13
BRANCH   1  23
HETATM   23  N1  UNL     1      23.436  -0.828  53.838  1.00  0.00    -0.388 N 
HETATM   24  H6  UNL     1      23.882  -1.737  53.513  1.00  0.00     0.159 HD
BRANCH  23  25
HETATM   25  C2  UNL     1      22.462  -0.903  54.882  1.00  0.00     0.115 C 
HETATM   26  C1  UNL     1      21.231  -1.613  54.360  1.00  0.00     0.026 C 
ENDBRANCH  23  25
ENDBRANCH   1  23
BRANCH  12  27
HETATM   27  O1  UNL     1      26.042  -0.670  52.892  1.00  0.00    -0.347 OA
BRANCH  27  28
HETATM   28  C19 UNL     1      27.350  -0.753  53.332  1.00  0.00     0.206 C 
BRANCH  28  29
HETATM   29  C20 UNL     1      27.672   0.155  54.480  1.00  0.00     0.297 C 
BRANCH  29  30
HETATM   30  N5  UNL     1      28.889   0.898  54.256  1.00  0.00     0.082 N 
HETATM   31  C21 UNL     1      28.715   2.206  53.725  1.00  0.00     0.309 C 
HETATM   32  C22 UNL     1      29.850   0.068  53.614  1.00  0.00     0.309 C 
ENDBRANCH  29  30
ENDBRANCH  28  29
ENDBRANCH  27  28
ENDBRANCH  12  27
TORSDOF 8
ENDMDL
MODEL 4
REMARK VINA RESULT:      -7.6      2.789      5.514
REMARK  8 active torsions:
REMARK  status: ('A' for Active; 'I' for Inactive)
REMARK    1  A    between atoms: C2_2  and  N1_3 
REMARK    2  A    between atoms: N1_3  and  C3_4 
REMARK    3  A    between atoms: C6_7  and  N2_8 
REMARK    4  A    between atoms: N2_8  and  C7_9 
REMARK    5  A    between atoms: C18_24  and  O1_25 
REMARK    6  A    between atoms: O1_25  and  C19_26 
REMARK    7  A    between atoms: C19_26  and  C20_27 
REMARK    8  A    between atoms: C20_27  and  N5_28 
ROOT
HETATM    1  C3  UNL     1      21.630   0.753  52.933  1.00  0.00     0.062 A 
HETATM    2  C4  UNL     1      22.874   1.388  52.819  1.00  0.00     0.048 A 
HETATM    3  C5  UNL     1      23.300   1.902  51.599  1.00  0.00     0.023 A 
HETATM    4  C6  UNL     1      24.507   2.540  51.406  1.00  0.00     0.067 A 
HETATM    5  C13 UNL     1      24.810   3.004  50.148  1.00  0.00     0.089 A 
HETATM    6  C14 UNL     1      26.074   3.678  49.923  1.00  0.00     0.103 C 
HETATM    7  N3  UNL     1      27.096   4.218  49.740  1.00  0.00    -0.191 NA
HETATM    8  C15 UNL     1      23.993   2.883  49.042  1.00  0.00     0.142 A 
HETATM    9  N4  UNL     1      22.804   2.247  49.257  1.00  0.00    -0.259 NA
HETATM   10  C16 UNL     1      22.496   1.789  50.485  1.00  0.00     0.071 A 
HETATM   11  C17 UNL     1      21.287   1.157  50.652  1.00  0.00     0.071 A 
HETATM   12  C18 UNL     1      20.787   0.623  51.814  1.00  0.00     0.097 A 
ENDROOT
BRANCH   4  13
HETATM   13  N2  UNL     1      25.383   2.690  52.517  1.00  0.00    -0.354 N 
HETATM   14  H8  UNL     1      25.362   3.457  53.202  1.00  0.00     0.166 HD
BRANCH  13  15
HETATM   15  C7  UNL     1      26.386   1.701  52.711  1.00  0.00     0.034 A 
HETATM   16  C8  UNL     1      27.633   2.048  53.201  1.00  0.00     0.032 A 
HETATM   17  C9  UNL     1      28.663   1.154  53.424  1.00  0.00     0.046 A 
HETATM   18  C10 UNL     1      28.400  -0.169  53.125  1.00  0.00     0.138 A 
HETATM   19  F1  UNL     1      29.373  -1.079  53.324  1.00  0.00    -0.204 F 
HETATM   20  C11 UNL     1      27.195  -0.572  52.640  1.00  0.00     0.074 A 
HETATM   21 CL1  UNL     1      26.838  -2.246  52.256  1.00  0.00    -0.081 Cl
HETATM   22  C12 UNL     1      26.213   0.367  52.442  1.00  0.00     0.056 A 
ENDBRANCH  13  15
ENDBRANCH   4  13
BRANCH   1  23
HETATM   23  N1  UNL     1      21.427   0.317  54.263  1.00  0.00    -0.388 N 
HETATM   24  H6  UNL     1      21.163   1.155  54.861  1.00  0.00     0.159 HD
BRANCH  23  25
HETATM   25  C2  UNL     1      21.507  -0.958  54.906  1.00  0.00     0.115 C 
HETATM   26  C1  UNL     1      22.959  -1.276  55.192  1.00  0.00     0.026 C 
ENDBRANCH  23  25
ENDBRANCH   1  23
BRANCH  12  27
HETATM   27  O1  UNL     1      19.653  -0.017  52.153  1.00  0.00    -0.347 OA
BRANCH  27  28
HETATM   28  C19 UNL     1      18.457  -0.168  51.474  1.00  0.00     0.206 C 
BRANCH  28  29
HETATM   29  C20 UNL     1      17.582   1.049  51.492  1.00  0.00     0.297 C 
BRANCH  29  30
HETATM   30  N5  UNL     1      16.202   0.717  51.759  1.00  0.00     0.082 N 
HETATM   31  C21 UNL     1      15.368   1.815  52.106  1.00  0.00     0.309 C 
HETATM   32  C22 UNL     1      16.136  -0.431  52.598  1.00  0.00     0.309 C 
ENDBRANCH  29  30
ENDBRANCH  28  29
ENDBRANCH  27  28
ENDBRANCH  12  27
TORSDOF 8
ENDMDL
MODEL 5
REMARK VINA RESULT:      -7.3      4.075      6.923
REMARK  8 active torsions:
REMARK  status: ('A' for Active; 'I' for Inactive)
REMARK    1  A    between atoms: C2_2  and  N1_3 
REMARK    2  A    between atoms: N1_3  and  C3_4 
REMARK    3  A    between atoms: C6_7  and  N2_8 
REMARK    4  A    between atoms: N2_8  and  C7_9 
REMARK    5  A    between atoms: C18_24  and  O1_25 
REMARK    6  A    between atoms: O1_25  and  C19_26 
REMARK    7  A    between atoms: C19_26  and  C20_27 
REMARK    8  A    between atoms: C20_27  and  N5_28 
ROOT
HETATM    1  C3  UNL     1      20.301  -0.011  52.158  1.00  0.00     0.062 A 
HETATM    2  C4  UNL     1      21.689   0.186  52.146  1.00  0.00     0.048 A 
HETATM    3  C5  UNL     1      22.478  -0.260  53.200  1.00  0.00     0.023 A 
HETATM    4  C6  UNL     1      23.847  -0.106  53.262  1.00  0.00     0.067 A 
HETATM    5  C13 UNL     1      24.514  -0.594  54.362  1.00  0.00     0.089 A 
HETATM    6  C14 UNL     1      25.953  -0.441  54.447  1.00  0.00     0.103 C 
HETATM    7  N3  UNL     1      27.114  -0.316  54.518  1.00  0.00    -0.191 NA
HETATM    8  C15 UNL     1      23.917  -1.237  55.427  1.00  0.00     0.142 A 
HETATM    9  N4  UNL     1      22.561  -1.378  55.343  1.00  0.00    -0.259 NA
HETATM   10  C16 UNL     1      21.898  -0.905  54.272  1.00  0.00     0.071 A 
HETATM   11  C17 UNL     1      20.534  -1.072  54.233  1.00  0.00     0.071 A 
HETATM   12  C18 UNL     1      19.680  -0.666  53.238  1.00  0.00     0.097 A 
ENDROOT
BRANCH   4  13
HETATM   13  N2  UNL     1      24.508   0.550  52.187  1.00  0.00    -0.354 N 
HETATM   14  H8  UNL     1      25.161   0.113  51.524  1.00  0.00     0.166 HD
BRANCH  13  15
HETATM   15  C7  UNL     1      24.255   1.937  51.997  1.00  0.00     0.034 A 
HETATM   16  C8  UNL     1      24.143   2.788  53.083  1.00  0.00     0.032 A 
HETATM   17  C9  UNL     1      23.902   4.145  52.992  1.00  0.00     0.046 A 
HETATM   18  C10 UNL     1      23.766   4.658  51.716  1.00  0.00     0.138 A 
HETATM   19  F1  UNL     1      23.528   5.976  51.575  1.00  0.00    -0.204 F 
HETATM   20  C11 UNL     1      23.865   3.873  50.610  1.00  0.00     0.074 A 
HETATM   21 CL1  UNL     1      23.698   4.502  48.982  1.00  0.00    -0.081 Cl
HETATM   22  C12 UNL     1      24.106   2.530  50.770  1.00  0.00     0.056 A 
ENDBRANCH  13  15
ENDBRANCH   4  13
BRANCH   1  23
HETATM   23  N1  UNL     1      19.723   0.530  50.987  1.00  0.00    -0.388 N 
HETATM   24  H6  UNL     1      19.391  -0.269  50.368  1.00  0.00     0.159 HD
BRANCH  23  25
HETATM   25  C2  UNL     1      19.518   1.864  50.514  1.00  0.00     0.115 C 
HETATM   26  C1  UNL     1      18.926   2.698  51.631  1.00  0.00     0.026 C 
ENDBRANCH  23  25
ENDBRANCH   1  23
BRANCH  12  27
HETATM   27  O1  UNL     1      18.352  -0.742  53.038  1.00  0.00    -0.347 OA
BRANCH  27  28
HETATM   28  C19 UNL     1      17.476  -1.807  53.146  1.00  0.00     0.206 C 
BRANCH  28  29
HETATM   29  C20 UNL     1      16.145  -1.577  52.496  1.00  0.00     0.297 C 
BRANCH  29  30
HETATM   30  N5  UNL     1      15.337  -2.773  52.484  1.00  0.00     0.082 N 
HETATM   31  C21 UNL     1      15.968  -3.940  52.996  1.00  0.00     0.309 C 
HETATM   32  C22 UNL     1      14.677  -2.898  51.229  1.00  0.00     0.309 C 
ENDBRANCH  29  30
ENDBRANCH  28  29
ENDBRANCH  27  28
ENDBRANCH  12  27
TORSDOF 8
ENDMDL
MODEL 6
REMARK VINA RESULT:      -7.2      2.792      4.025
REMARK  8 active torsions:
REMARK  status: ('A' for Active; 'I' for Inactive)
REMARK    1  A    between atoms: C2_2  and  N1_3 
REMARK    2  A    between atoms: N1_3  and  C3_4 
REMARK    3  A    between atoms: C6_7  and  N2_8 
REMARK    4  A    between atoms: N2_8  and  C7_9 
REMARK    5  A    between atoms: C18_24  and  O1_25 
REMARK    6  A    between atoms: O1_25  and  C19_26 
REMARK    7  A    between atoms: C19_26  and  C20_27 
REMARK    8  A    between atoms: C20_27  and  N5_28 
ROOT
HETATM    1  C3  UNL     1      25.792   5.739  49.538  1.00  0.00     0.062 A 
HETATM    2  C4  UNL     1      25.548   4.434  49.985  1.00  0.00     0.048 A 
HETATM    3  C5  UNL     1      24.511   4.169  50.873  1.00  0.00     0.023 A 
HETATM    4  C6  UNL     1      24.207   2.914  51.357  1.00  0.00     0.067 A 
HETATM    5  C13 UNL     1      23.153   2.786  52.231  1.00  0.00     0.089 A 
HETATM    6  C14 UNL     1      22.817   1.475  52.752  1.00  0.00     0.103 C 
HETATM    7  N3  UNL     1      22.547   0.419  53.177  1.00  0.00    -0.191 NA
HETATM    8  C15 UNL     1      22.360   3.825  52.671  1.00  0.00     0.142 A 
HETATM    9  N4  UNL     1      22.679   5.058  52.178  1.00  0.00    -0.259 NA
HETATM   10  C16 UNL     1      23.709   5.197  51.322  1.00  0.00     0.071 A 
HETATM   11  C17 UNL     1      23.992   6.457  50.853  1.00  0.00     0.071 A 
HETATM   12  C18 UNL     1      24.990   6.808  49.979  1.00  0.00     0.097 A 
ENDROOT
BRANCH   4  13
HETATM   13  N2  UNL     1      24.996   1.810  50.931  1.00  0.00    -0.354 N 
HETATM   14  H8  UNL     1      24.929   1.336  50.021  1.00  0.00     0.166 HD
BRANCH  13  15
HETATM   15  C7  UNL     1      25.970   1.302  51.834  1.00  0.00     0.034 A 
HETATM   16  C8  UNL     1      25.946  -0.026  52.223  1.00  0.00     0.032 A 
HETATM   17  C9  UNL     1      26.852  -0.605  53.091  1.00  0.00     0.046 A 
HETATM   18  C10 UNL     1      27.838   0.226  53.589  1.00  0.00     0.138 A 
HETATM   19  F1  UNL     1      28.745  -0.291  54.440  1.00  0.00    -0.204 F 
HETATM   20  C11 UNL     1      27.915   1.539  53.245  1.00  0.00     0.074 A 
HETATM   21 CL1  UNL     1      29.158   2.611  53.862  1.00  0.00    -0.081 Cl
HETATM   22  C12 UNL     1      26.982   2.052  52.376  1.00  0.00     0.056 A 
ENDBRANCH  13  15
ENDBRANCH   4  13
BRANCH   1  23
HETATM   23  N1  UNL     1      26.894   5.752  48.652  1.00  0.00    -0.388 N 
HETATM   24  H6  UNL     1      26.772   6.555  47.966  1.00  0.00     0.159 HD
BRANCH  23  25
HETATM   25  C2  UNL     1      28.062   4.937  48.518  1.00  0.00     0.115 C 
HETATM   26  C1  UNL     1      29.235   5.816  48.139  1.00  0.00     0.026 C 
ENDBRANCH  23  25
ENDBRANCH   1  23
BRANCH  12  27
HETATM   27  O1  UNL     1      25.404   7.963  49.425  1.00  0.00    -0.347 OA
BRANCH  27  28
HETATM   28  C19 UNL     1      25.917   9.113  49.999  1.00  0.00     0.206 C 
BRANCH  28  29
HETATM   29  C20 UNL     1      27.414   9.146  50.076  1.00  0.00     0.297 C 
BRANCH  29  30
HETATM   30  N5  UNL     1      27.975  10.174  49.232  1.00  0.00     0.082 N 
HETATM   31  C21 UNL     1      27.028  10.972  48.533  1.00  0.00     0.309 C 
HETATM   32  C22 UNL     1      29.051   9.639  48.469  1.00  0.00     0.309 C 
ENDBRANCH  29  30
ENDBRANCH  28  29
ENDBRANCH  27  28
ENDBRANCH  12  27
TORSDOF 8
ENDMDL
MODEL 7
REMARK VINA RESULT:      -7.1      3.817      8.117
REMARK  8 active torsions:
REMARK  status: ('A' for Active; 'I' for Inactive)
REMARK    1  A    between atoms: C2_2  and  N1_3 
REMARK    2  A    between atoms: N1_3  and  C3_4 
REMARK    3  A    between atoms: C6_7  and  N2_8 
REMARK    4  A    between atoms: N2_8  and  C7_9 
REMARK    5  A    between atoms: C18_24  and  O1_25 
REMARK    6  A    between atoms: O1_25  and  C19_26 
REMARK    7  A    between atoms: C19_26  and  C20_27 
REMARK    8  A    between atoms: C20_27  and  N5_28 
ROOT
HETATM    1  C3  UNL     1      24.373   1.618  52.155  1.00  0.00     0.062 A 
HETATM    2  C4  UNL     1      23.991   2.778  51.468  1.00  0.00     0.048 A 
HETATM    3  C5  UNL     1      24.900   3.463  50.669  1.00  0.00     0.023 A 
HETATM    4  C6  UNL     1      24.600   4.609  49.962  1.00  0.00     0.067 A 
HETATM    5  C13 UNL     1      25.591   5.191  49.207  1.00  0.00     0.089 A 
HETATM    6  C14 UNL     1      25.298   6.396  48.456  1.00  0.00     0.103 C 
HETATM    7  N3  UNL     1      25.064   7.370  47.852  1.00  0.00    -0.191 NA
HETATM    8  C15 UNL     1      26.883   4.717  49.095  1.00  0.00     0.142 A 
HETATM    9  N4  UNL     1      27.156   3.582  49.805  1.00  0.00    -0.259 NA
HETATM   10  C16 UNL     1      26.194   3.003  50.547  1.00  0.00     0.071 A 
HETATM   11  C17 UNL     1      26.516   1.862  51.242  1.00  0.00     0.071 A 
HETATM   12  C18 UNL     1      25.686   1.124  52.050  1.00  0.00     0.097 A 
ENDROOT
BRANCH   4  13
HETATM   13  N2  UNL     1      23.282   5.135  50.044  1.00  0.00    -0.354 N 
HETATM   14  H8  UNL     1      22.984   5.926  50.630  1.00  0.00     0.166 HD
BRANCH  13  15
HETATM   15  C7  UNL     1      22.271   4.525  49.252  1.00  0.00     0.034 A 
HETATM   16  C8  UNL     1      22.532   4.146  47.946  1.00  0.00     0.032 A 
HETATM   17  C9  UNL     1      21.614   3.544  47.108  1.00  0.00     0.046 A 
HETATM   18  C10 UNL     1      20.356   3.321  47.637  1.00  0.00     0.138 A 
HETATM   19  F1  UNL     1      19.425   2.739  46.857  1.00  0.00    -0.204 F 
HETATM   20  C11 UNL     1      20.039   3.671  48.912  1.00  0.00     0.074 A 
HETATM   21 CL1  UNL     1      18.452   3.395  49.605  1.00  0.00    -0.081 Cl
HETATM   22  C12 UNL     1      20.999   4.265  49.694  1.00  0.00     0.056 A 
ENDBRANCH  13  15
ENDBRANCH   4  13
BRANCH   1  23
HETATM   23  N1  UNL     1      23.281   1.110  52.896  1.00  0.00    -0.388 N 
HETATM   24  H6  UNL     1      23.057   1.789  53.683  1.00  0.00     0.159 HD
BRANCH  23  25
HETATM   25  C2  UNL     1      22.480  -0.070  52.789  1.00  0.00     0.115 C 
HETATM   26  C1  UNL     1      22.579  -0.853  54.081  1.00  0.00     0.026 C 
ENDBRANCH  23  25
ENDBRANCH   1  23
BRANCH  12  27
HETATM   27  O1  UNL     1      25.828   0.010  52.790  1.00  0.00    -0.347 OA
BRANCH  27  28
HETATM   28  C19 UNL     1      26.943  -0.545  53.393  1.00  0.00     0.206 C 
BRANCH  28  29
HETATM   29  C20 UNL     1      27.443   0.219  54.582  1.00  0.00     0.297 C 
BRANCH  29  30
HETATM   30  N5  UNL     1      28.802   0.670  54.400  1.00  0.00     0.082 N 
HETATM   31  C21 UNL     1      28.944   2.014  53.957  1.00  0.00     0.309 C 
HETATM   32  C22 UNL     1      29.549  -0.319  53.700  1.00  0.00     0.309 C 
ENDBRANCH  29  30
ENDBRANCH  28  29
ENDBRANCH  27  28
ENDBRANCH  12  27
TORSDOF 8
ENDMDL
MODEL 8
REMARK VINA RESULT:      -7.0      3.463      6.626
REMARK  8 active torsions:
REMARK  status: ('A' for Active; 'I' for Inactive)
REMARK    1  A    between atoms: C2_2  and  N1_3 
REMARK    2  A    between atoms: N1_3  and  C3_4 
REMARK    3  A    between atoms: C6_7  and  N2_8 
REMARK    4  A    between atoms: N2_8  and  C7_9 
REMARK    5  A    between atoms: C18_24  and  O1_25 
REMARK    6  A    between atoms: O1_25  and  C19_26 
REMARK    7  A    between atoms: C19_26  and  C20_27 
REMARK    8  A    between atoms: C20_27  and  N5_28 
ROOT
HETATM    1  C3  UNL     1      24.738   1.898  53.009  1.00  0.00     0.062 A 
HETATM    2  C4  UNL     1      23.370   1.832  52.711  1.00  0.00     0.048 A 
HETATM    3  C5  UNL     1      22.597   0.765  53.155  1.00  0.00     0.023 A 
HETATM    4  C6  UNL     1      21.248   0.629  52.905  1.00  0.00     0.067 A 
HETATM    5  C13 UNL     1      20.596  -0.476  53.402  1.00  0.00     0.089 A 
HETATM    6  C14 UNL     1      19.178  -0.638  53.150  1.00  0.00     0.103 C 
HETATM    7  N3  UNL     1      18.034  -0.772  52.945  1.00  0.00    -0.191 NA
HETATM    8  C15 UNL     1      21.190  -1.477  54.143  1.00  0.00     0.142 A 
HETATM    9  N4  UNL     1      22.526  -1.321  54.377  1.00  0.00    -0.259 NA
HETATM   10  C16 UNL     1      23.175  -0.244  53.896  1.00  0.00     0.071 A 
HETATM   11  C17 UNL     1      24.519  -0.131  54.159  1.00  0.00     0.071 A 
HETATM   12  C18 UNL     1      25.356   0.883  53.764  1.00  0.00     0.097 A 
ENDROOT
BRANCH   4  13
HETATM   13  N2  UNL     1      20.590   1.637  52.146  1.00  0.00    -0.354 N 
HETATM   14  H8  UNL     1      19.804   2.217  52.467  1.00  0.00     0.166 HD
BRANCH  13  15
HETATM   15  C7  UNL     1      21.049   1.877  50.822  1.00  0.00     0.034 A 
HETATM   16  C8  UNL     1      21.160   0.837  49.915  1.00  0.00     0.032 A 
HETATM   17  C9  UNL     1      21.592   0.979  48.610  1.00  0.00     0.046 A 
HETATM   18  C10 UNL     1      21.931   2.259  48.214  1.00  0.00     0.138 A 
HETATM   19  F1  UNL     1      22.360   2.449  46.951  1.00  0.00    -0.204 F 
HETATM   20  C11 UNL     1      21.844   3.321  49.058  1.00  0.00     0.074 A 
HETATM   21 CL1  UNL     1      22.266   4.954  48.577  1.00  0.00    -0.081 Cl
HETATM   22  C12 UNL     1      21.406   3.112  50.344  1.00  0.00     0.056 A 
ENDBRANCH  13  15
ENDBRANCH   4  13
BRANCH   1  23
HETATM   23  N1  UNL     1      25.302   3.067  52.449  1.00  0.00    -0.388 N 
HETATM   24  H6  UNL     1      25.823   3.594  53.211  1.00  0.00     0.159 HD
BRANCH  23  25
HETATM   25  C2  UNL     1      25.299   3.631  51.135  1.00  0.00     0.115 C 
HETATM   26  C1  UNL     1      26.381   2.966  50.309  1.00  0.00     0.026 C 
ENDBRANCH  23  25
ENDBRANCH   1  23
BRANCH  12  27
HETATM   27  O1  UNL     1      26.664   1.151  53.925  1.00  0.00    -0.347 OA
BRANCH  27  28
HETATM   28  C19 UNL     1      27.690   0.386  54.452  1.00  0.00     0.206 C 
BRANCH  28  29
HETATM   29  C20 UNL     1      28.909   0.310  53.583  1.00  0.00     0.297 C 
BRANCH  29  30
HETATM   30  N5  UNL     1      29.189  -1.043  53.164  1.00  0.00     0.082 N 
HETATM   31  C21 UNL     1      28.047  -1.862  52.948  1.00  0.00     0.309 C 
HETATM   32  C22 UNL     1      30.230  -1.591  53.965  1.00  0.00     0.309 C 
ENDBRANCH  29  30
ENDBRANCH  28  29
ENDBRANCH  27  28
ENDBRANCH  12  27
TORSDOF 8
ENDMDL
MODEL 9
REMARK VINA RESULT:      -6.9      3.435      5.520
REMARK  8 active torsions:
REMARK  status: ('A' for Active; 'I' for Inactive)
REMARK    1  A    between atoms: C2_2  and  N1_3 
REMARK    2  A    between atoms: N1_3  and  C3_4 
REMARK    3  A    between atoms: C6_7  and  N2_8 
REMARK    4  A    between atoms: N2_8  and  C7_9 
REMARK    5  A    between atoms: C18_24  and  O1_25 
REMARK    6  A    between atoms: O1_25  and  C19_26 
REMARK    7  A    between atoms: C19_26  and  C20_27 
REMARK    8  A    between atoms: C20_27  and  N5_28 
ROOT
HETATM    1  C3  UNL     1      27.774   5.758  48.588  1.00  0.00     0.062 A 
HETATM    2  C4  UNL     1      27.206   4.603  49.141  1.00  0.00     0.048 A 
HETATM    3  C5  UNL     1      26.035   4.674  49.888  1.00  0.00     0.023 A 
HETATM    4  C6  UNL     1      25.416   3.584  50.463  1.00  0.00     0.067 A 
HETATM    5  C13 UNL     1      24.259   3.789  51.178  1.00  0.00     0.089 A 
HETATM    6  C14 UNL     1      23.592   2.657  51.791  1.00  0.00     0.103 C 
HETATM    7  N3  UNL     1      23.055   1.745  52.289  1.00  0.00    -0.191 NA
HETATM    8  C15 UNL     1      23.656   5.015  51.373  1.00  0.00     0.142 A 
HETATM    9  N4  UNL     1      24.288   6.079  50.795  1.00  0.00    -0.259 NA
HETATM   10  C16 UNL     1      25.421   5.891  50.091  1.00  0.00     0.071 A 
HETATM   11  C17 UNL     1      26.019   6.992  49.527  1.00  0.00     0.071 A 
HETATM   12  C18 UNL     1      27.169   7.014  48.778  1.00  0.00     0.097 A 
ENDROOT
BRANCH   4  13
HETATM   13  N2  UNL     1      25.999   2.299  50.289  1.00  0.00    -0.354 N 
HETATM   14  H8  UNL     1      26.011   1.754  49.417  1.00  0.00     0.166 HD
BRANCH  13  15
HETATM   15  C7  UNL     1      26.627   1.696  51.414  1.00  0.00     0.034 A 
HETATM   16  C8  UNL     1      27.297   2.470  52.345  1.00  0.00     0.032 A 
HETATM   17  C9  UNL     1      27.931   1.971  53.467  1.00  0.00     0.046 A 
HETATM   18  C10 UNL     1      27.876   0.601  53.642  1.00  0.00     0.138 A 
HETATM   19  F1  UNL     1      28.480   0.066  54.720  1.00  0.00    -0.204 F 
HETATM   20  C11 UNL     1      27.233  -0.212  52.762  1.00  0.00     0.074 A 
HETATM   21 CL1  UNL     1      27.148  -1.952  52.965  1.00  0.00    -0.081 Cl
HETATM   22  C12 UNL     1      26.622   0.348  51.667  1.00  0.00     0.056 A 
ENDBRANCH  13  15
ENDBRANCH   4  13
BRANCH   1  23
HETATM   23  N1  UNL     1      28.953   5.430  47.880  1.00  0.00    -0.388 N 
HETATM   24  H6  UNL     1      28.809   4.499  47.388  1.00  0.00     0.159 HD
BRANCH  23  25
HETATM   25  C2  UNL     1      30.218   6.077  47.717  1.00  0.00     0.115 C 
HETATM   26  C1  UNL     1      30.971   6.028  49.030  1.00  0.00     0.026 C 
ENDBRANCH  23  25
ENDBRANCH   1  23
BRANCH  12  27
HETATM   27  O1  UNL     1      27.882   7.976  48.163  1.00  0.00    -0.347 OA
BRANCH  27  28
HETATM   28  C19 UNL     1      28.145   9.285  48.526  1.00  0.00     0.206 C 
BRANCH  28  29
HETATM   29  C20 UNL     1      29.360   9.452  49.387  1.00  0.00     0.297 C 
BRANCH  29  30
HETATM   30  N5  UNL     1      30.296  10.395  48.822  1.00  0.00     0.082 N 
HETATM   31  C21 UNL     1      29.717  11.434  48.042  1.00  0.00     0.309 C 
HETATM   32  C22 UNL     1      31.396   9.698  48.248  1.00  0.00     0.309 C 
ENDBRANCH  29  30
ENDBRANCH  28  29
ENDBRANCH  27  28
ENDBRANCH  12  27
TORSDOF 8
ENDMDL
