MODEL 1
REMARK VINA RESULT:      -9.3      0.000      0.000
REMARK  3 active torsions:
REMARK  status: ('A' for Active; 'I' for Inactive)
REMARK    1  A    between atoms: C2_4  and  P1_5 
REMARK    2  A    between atoms: P1_5  and  N2_6 
REMARK    3  A    between atoms: N2_6  and  C3_7 
ROOT
HETATM    1  F1  UNL     1      21.797  -2.596  53.465  1.00  0.00    -0.175 F 
HETATM    2  C1  UNL     1      21.718  -1.238  53.613  1.00  0.00     0.239 C 
HETATM    3  N1  UNL     1      21.172  -0.356  52.972  1.00  0.00    -0.376 NA
HETATM    4  C2  UNL     1      20.463   0.241  52.032  1.00  0.00     0.152 C 
HETATM    5  C9  UNL     1      20.828   1.083  51.077  1.00  0.00     0.181 C 
HETATM    6  O1  UNL     1      21.679   1.918  50.265  1.00  0.00    -0.358 OA
HETATM    7  C10 UNL     1      22.863   2.136  50.863  1.00  0.00     0.192 C 
HETATM    8  C11 UNL     1      24.146   2.713  50.371  1.00  0.00     0.166 C 
HETATM    9  N3  UNL     1      24.954   2.603  51.573  1.00  0.00    -0.125 NA
HETATM   10  N4  UNL     1      26.286   2.845  51.569  1.00  0.00    -0.235 NA
HETATM   11  C12 UNL     1      26.942   1.918  52.520  1.00  0.00     0.109 C 
HETATM   12  C13 UNL     1      27.058   0.515  52.102  1.00  0.00     0.042 C 
HETATM   13  C14 UNL     1      27.225  -0.544  53.204  1.00  0.00     0.175 C 
HETATM   14  O2  UNL     1      26.246  -0.711  54.063  1.00  0.00    -0.363 OA
HETATM   15  C15 UNL     1      25.273  -0.878  54.918  1.00  0.00     0.138 C 
HETATM   16  C16 UNL     1      23.947  -0.698  54.633  1.00  0.00    -0.047 C 
HETATM   17  C17 UNL     1      24.253  -0.347  53.218  1.00  0.00     0.065 C 
HETATM   18  C18 UNL     1      24.279   1.165  53.290  1.00  0.00     0.200 C 
HETATM   19  O3  UNL     1      24.761   1.472  52.119  1.00  0.00    -0.288 OA
HETATM   20  C19 UNL     1      22.471  -0.649  54.774  1.00  0.00     0.141 C 
HETATM   21  H12 UNL     1      26.773   2.799  50.652  1.00  0.00     0.142 HD
ENDROOT
BRANCH   4  22
HETATM   22  P1  UNL     1      18.654  -0.144  52.020  1.00  0.00     0.040 P 
HETATM   23  H1  UNL     1      18.489  -1.119  50.930  1.00  0.00     0.088 HD
BRANCH  22  24
HETATM   24  N2  UNL     1      18.127  -0.898  53.532  1.00  0.00    -0.361 N 
HETATM   25  H2  UNL     1      18.254  -0.653  54.546  1.00  0.00     0.164 HD
BRANCH  24  26
HETATM   26  C3  UNL     1      17.365  -2.096  53.297  1.00  0.00     0.033 A 
HETATM   27  C4  UNL     1      17.710  -3.358  53.742  1.00  0.00     0.029 A 
HETATM   28  C5  UNL     1      16.872  -4.413  53.434  1.00  0.00     0.004 A 
HETATM   29  C6  UNL     1      15.710  -4.285  52.707  1.00  0.00     0.024 A 
HETATM   30  C7  UNL     1      15.367  -3.005  52.259  1.00  0.00     0.036 A 
HETATM   31 CL1  UNL     1      13.886  -2.826  51.330  1.00  0.00    -0.084 Cl
HETATM   32  C8  UNL     1      16.200  -1.941  52.564  1.00  0.00     0.053 A 
ENDBRANCH  24  26
ENDBRANCH  22  24
ENDBRANCH   4  22
TORSDOF 3
ENDMDL
MODEL 2
REMARK VINA RESULT:      -9.2      5.049      9.298
REMARK  3 active torsions:
REMARK  status: ('A' for Active; 'I' for Inactive)
REMARK    1  A    between atoms: C2_4  and  P1_5 
REMARK    2  A    between atoms: P1_5  and  N2_6 
REMARK    3  A    between atoms: N2_6  and  C3_7 
ROOT
HETATM    1  F1  UNL     1      27.399   2.692  52.829  1.00  0.00    -0.175 F 
HETATM    2  C1  UNL     1      26.477   2.212  51.939  1.00  0.00     0.239 C 
HETATM    3  N1  UNL     1      25.567   2.731  51.314  1.00  0.00    -0.376 NA
HETATM    4  C2  UNL     1      24.738   3.653  50.859  1.00  0.00     0.152 C 
HETATM    5  C9  UNL     1      23.434   3.804  51.035  1.00  0.00     0.181 C 
HETATM    6  O1  UNL     1      22.095   3.543  51.501  1.00  0.00    -0.358 OA
HETATM    7  C10 UNL     1      21.977   2.289  51.970  1.00  0.00     0.192 C 
HETATM    8  C11 UNL     1      20.911   1.606  52.757  1.00  0.00     0.166 C 
HETATM    9  N3  UNL     1      21.501   0.286  52.897  1.00  0.00    -0.125 NA
HETATM   10  N4  UNL     1      20.968  -0.658  53.708  1.00  0.00    -0.235 NA
HETATM   11  C12 UNL     1      22.068  -1.448  54.308  1.00  0.00     0.109 C 
HETATM   12  C13 UNL     1      22.854  -0.793  55.362  1.00  0.00     0.042 C 
HETATM   13  C14 UNL     1      24.271  -1.324  55.626  1.00  0.00     0.175 C 
HETATM   14  O2  UNL     1      25.166  -1.223  54.671  1.00  0.00    -0.363 OA
HETATM   15  C15 UNL     1      26.056  -1.123  53.720  1.00  0.00     0.138 C 
HETATM   16  C16 UNL     1      26.094  -0.117  52.794  1.00  0.00    -0.047 C 
HETATM   17  C17 UNL     1      24.904   0.545  53.396  1.00  0.00     0.065 C 
HETATM   18  C18 UNL     1      23.793   0.001  52.525  1.00  0.00     0.200 C 
HETATM   19  O3  UNL     1      22.736   0.394  53.178  1.00  0.00    -0.288 OA
HETATM   20  C19 UNL     1      26.526   0.736  51.659  1.00  0.00     0.141 C 
HETATM   21  H12 UNL     1      20.329  -0.331  54.460  1.00  0.00     0.142 HD
ENDROOT
BRANCH   4  22
HETATM   22  P1  UNL     1      25.495   4.964  49.798  1.00  0.00     0.040 P 
HETATM   23  H1  UNL     1      25.530   6.161  50.655  1.00  0.00     0.088 HD
BRANCH  22  24
HETATM   24  N2  UNL     1      27.152   4.563  49.328  1.00  0.00    -0.361 N 
HETATM   25  H2  UNL     1      27.772   3.730  49.496  1.00  0.00     0.164 HD
BRANCH  24  26
HETATM   26  C3  UNL     1      27.760   5.611  48.553  1.00  0.00     0.033 A 
HETATM   27  C4  UNL     1      29.083   5.643  48.154  1.00  0.00     0.029 A 
HETATM   28  C5  UNL     1      29.518   6.723  47.410  1.00  0.00     0.004 A 
HETATM   29  C6  UNL     1      28.712   7.777  47.040  1.00  0.00     0.024 A 
HETATM   30  C7  UNL     1      27.375   7.740  47.448  1.00  0.00     0.036 A 
HETATM   31 CL1  UNL     1      26.334   9.077  46.984  1.00  0.00    -0.084 Cl
HETATM   32  C8  UNL     1      26.929   6.660  48.193  1.00  0.00     0.053 A 
ENDBRANCH  24  26
ENDBRANCH  22  24
ENDBRANCH   4  22
TORSDOF 3
ENDMDL
MODEL 3
REMARK VINA RESULT:      -9.1      3.867      8.650
REMARK  3 active torsions:
REMARK  status: ('A' for Active; 'I' for Inactive)
REMARK    1  A    between atoms: C2_4  and  P1_5 
REMARK    2  A    between atoms: P1_5  and  N2_6 
REMARK    3  A    between atoms: N2_6  and  C3_7 
ROOT
HETATM    1  F1  UNL     1      22.679   3.464  50.002  1.00  0.00    -0.175 F 
HETATM    2  C1  UNL     1      22.618   3.203  51.344  1.00  0.00     0.239 C 
HETATM    3  N1  UNL     1      23.319   2.555  52.104  1.00  0.00    -0.376 NA
HETATM    4  C2  UNL     1      24.301   1.788  52.541  1.00  0.00     0.152 C 
HETATM    5  C9  UNL     1      24.285   0.556  53.026  1.00  0.00     0.181 C 
HETATM    6  O1  UNL     1      23.767  -0.719  53.459  1.00  0.00    -0.358 OA
HETATM    7  C10 UNL     1      22.435  -0.673  53.625  1.00  0.00     0.192 C 
HETATM    8  C11 UNL     1      21.410  -1.737  53.826  1.00  0.00     0.166 C 
HETATM    9  N3  UNL     1      20.208  -0.924  53.903  1.00  0.00    -0.125 NA
HETATM   10  N4  UNL     1      18.970  -1.470  53.906  1.00  0.00    -0.235 NA
HETATM   11  C12 UNL     1      18.051  -0.573  53.168  1.00  0.00     0.109 C 
HETATM   12  C13 UNL     1      18.184  -0.550  51.705  1.00  0.00     0.042 C 
HETATM   13  C14 UNL     1      17.666   0.693  50.965  1.00  0.00     0.175 C 
HETATM   14  O2  UNL     1      18.245   1.848  51.199  1.00  0.00    -0.363 OA
HETATM   15  C15 UNL     1      18.821   2.997  51.432  1.00  0.00     0.138 C 
HETATM   16  C16 UNL     1      20.142   3.154  51.751  1.00  0.00    -0.047 C 
HETATM   17  C17 UNL     1      20.385   1.688  51.658  1.00  0.00     0.065 C 
HETATM   18  C18 UNL     1      20.249   1.275  53.107  1.00  0.00     0.200 C 
HETATM   19  O3  UNL     1      20.239  -0.024  53.006  1.00  0.00    -0.288 OA
HETATM   20  C19 UNL     1      21.444   3.782  52.084  1.00  0.00     0.141 C 
HETATM   21  H12 UNL     1      18.877  -2.438  53.538  1.00  0.00     0.142 HD
ENDROOT
BRANCH   4  22
HETATM   22  P1  UNL     1      25.993   2.532  52.478  1.00  0.00     0.040 P 
HETATM   23  H1  UNL     1      25.758   3.980  52.354  1.00  0.00     0.088 HD
BRANCH  22  24
HETATM   24  N2  UNL     1      26.903   2.238  53.967  1.00  0.00    -0.361 N 
HETATM   25  H2  UNL     1      26.874   2.660  54.929  1.00  0.00     0.164 HD
BRANCH  24  26
HETATM   26  C3  UNL     1      27.883   1.198  53.801  1.00  0.00     0.033 A 
HETATM   27  C4  UNL     1      29.240   1.341  54.021  1.00  0.00     0.029 A 
HETATM   28  C5  UNL     1      30.056   0.244  53.817  1.00  0.00     0.004 A 
HETATM   29  C6  UNL     1      29.599  -0.988  53.405  1.00  0.00     0.024 A 
HETATM   30  C7  UNL     1      28.225  -1.125  53.182  1.00  0.00     0.036 A 
HETATM   31 CL1  UNL     1      27.627  -2.692  52.655  1.00  0.00    -0.084 Cl
HETATM   32  C8  UNL     1      27.400  -0.031  53.385  1.00  0.00     0.053 A 
ENDBRANCH  24  26
ENDBRANCH  22  24
ENDBRANCH   4  22
TORSDOF 3
ENDMDL
MODEL 4
REMARK VINA RESULT:      -8.9      4.570      5.945
REMARK  3 active torsions:
REMARK  status: ('A' for Active; 'I' for Inactive)
REMARK    1  A    between atoms: C2_4  and  P1_5 
REMARK    2  A    between atoms: P1_5  and  N2_6 
REMARK    3  A    between atoms: N2_6  and  C3_7 
ROOT
HETATM    1  F1  UNL     1      23.410   5.102  51.764  1.00  0.00    -0.175 F 
HETATM    2  C1  UNL     1      23.188   3.811  51.369  1.00  0.00     0.239 C 
HETATM    3  N1  UNL     1      22.347   2.978  51.665  1.00  0.00    -0.376 NA
HETATM    4  C2  UNL     1      21.301   2.417  52.245  1.00  0.00     0.152 C 
HETATM    5  C9  UNL     1      21.224   1.414  53.105  1.00  0.00     0.181 C 
HETATM    6  O1  UNL     1      21.650   0.343  53.972  1.00  0.00    -0.358 OA
HETATM    7  C10 UNL     1      22.917  -0.022  53.712  1.00  0.00     0.192 C 
HETATM    8  C11 UNL     1      23.884  -0.886  54.446  1.00  0.00     0.166 C 
HETATM    9  N3  UNL     1      25.035  -0.788  53.565  1.00  0.00    -0.125 NA
HETATM   10  N4  UNL     1      26.250  -1.276  53.911  1.00  0.00    -0.235 NA
HETATM   11  C12 UNL     1      27.296  -0.383  53.362  1.00  0.00     0.109 C 
HETATM   12  C13 UNL     1      27.476   0.913  54.030  1.00  0.00     0.042 C 
HETATM   13  C14 UNL     1      28.129   2.045  53.221  1.00  0.00     0.175 C 
HETATM   14  O2  UNL     1      27.503   2.496  52.158  1.00  0.00    -0.363 OA
HETATM   15  C15 UNL     1      26.881   2.944  51.101  1.00  0.00     0.138 C 
HETATM   16  C16 UNL     1      25.521   2.985  50.958  1.00  0.00    -0.047 C 
HETATM   17  C17 UNL     1      25.316   2.416  52.318  1.00  0.00     0.065 C 
HETATM   18  C18 UNL     1      25.145   0.946  51.999  1.00  0.00     0.200 C 
HETATM   19  O3  UNL     1      25.188   0.417  53.189  1.00  0.00    -0.288 OA
HETATM   20  C19 UNL     1      24.173   3.233  50.392  1.00  0.00     0.141 C 
HETATM   21  H12 UNL     1      26.427  -1.433  54.923  1.00  0.00     0.142 HD
ENDROOT
BRANCH   4  22
HETATM   22  P1  UNL     1      19.655   3.133  51.801  1.00  0.00     0.040 P 
HETATM   23  H1  UNL     1      19.883   4.587  51.750  1.00  0.00     0.088 HD
BRANCH  22  24
HETATM   24  N2  UNL     1      19.106   2.596  50.207  1.00  0.00    -0.361 N 
HETATM   25  H2  UNL     1      18.164   2.354  49.809  1.00  0.00     0.164 HD
BRANCH  24  26
HETATM   26  C3  UNL     1      20.196   2.474  49.276  1.00  0.00     0.033 A 
HETATM   27  C4  UNL     1      20.877   1.304  48.997  1.00  0.00     0.029 A 
HETATM   28  C5  UNL     1      21.906   1.348  48.075  1.00  0.00     0.004 A 
HETATM   29  C6  UNL     1      22.298   2.491  47.415  1.00  0.00     0.024 A 
HETATM   30  C7  UNL     1      21.606   3.672  47.703  1.00  0.00     0.036 A 
HETATM   31 CL1  UNL     1      22.095   5.139  46.868  1.00  0.00    -0.084 Cl
HETATM   32  C8  UNL     1      20.573   3.637  48.625  1.00  0.00     0.053 A 
ENDBRANCH  24  26
ENDBRANCH  22  24
ENDBRANCH   4  22
TORSDOF 3
ENDMDL
MODEL 5
REMARK VINA RESULT:      -8.8      2.862      4.154
REMARK  3 active torsions:
REMARK  status: ('A' for Active; 'I' for Inactive)
REMARK    1  A    between atoms: C2_4  and  P1_5 
REMARK    2  A    between atoms: P1_5  and  N2_6 
REMARK    3  A    between atoms: N2_6  and  C3_7 
ROOT
HETATM    1  F1  UNL     1      23.230   4.917  51.515  1.00  0.00    -0.175 F 
HETATM    2  C1  UNL     1      23.071   3.596  51.195  1.00  0.00     0.239 C 
HETATM    3  N1  UNL     1      22.276   2.740  51.545  1.00  0.00    -0.376 NA
HETATM    4  C2  UNL     1      21.263   2.161  52.165  1.00  0.00     0.152 C 
HETATM    5  C9  UNL     1      21.243   1.205  53.081  1.00  0.00     0.181 C 
HETATM    6  O1  UNL     1      21.728   0.208  54.003  1.00  0.00    -0.358 OA
HETATM    7  C10 UNL     1      23.010  -0.107  53.752  1.00  0.00     0.192 C 
HETATM    8  C11 UNL     1      24.025  -0.879  54.524  1.00  0.00     0.166 C 
HETATM    9  N3  UNL     1      25.164  -0.773  53.628  1.00  0.00    -0.125 NA
HETATM   10  N4  UNL     1      26.404  -1.178  53.989  1.00  0.00    -0.235 NA
HETATM   11  C12 UNL     1      27.400  -0.266  53.382  1.00  0.00     0.109 C 
HETATM   12  C13 UNL     1      27.519   1.073  53.974  1.00  0.00     0.042 C 
HETATM   13  C14 UNL     1      28.108   2.188  53.096  1.00  0.00     0.175 C 
HETATM   14  O2  UNL     1      27.453   2.546  52.016  1.00  0.00    -0.363 OA
HETATM   15  C15 UNL     1      26.802   2.902  50.941  1.00  0.00     0.138 C 
HETATM   16  C16 UNL     1      25.441   2.866  50.809  1.00  0.00    -0.047 C 
HETATM   17  C17 UNL     1      25.273   2.366  52.201  1.00  0.00     0.065 C 
HETATM   18  C18 UNL     1      25.176   0.874  51.966  1.00  0.00     0.200 C 
HETATM   19  O3  UNL     1      25.252   0.415  53.184  1.00  0.00    -0.288 OA
HETATM   20  C19 UNL     1      24.078   3.014  50.242  1.00  0.00     0.141 C 
HETATM   21  H12 UNL     1      26.596  -1.269  55.007  1.00  0.00     0.142 HD
ENDROOT
BRANCH   4  22
HETATM   22  P1  UNL     1      19.580   2.767  51.697  1.00  0.00     0.040 P 
HETATM   23  H1  UNL     1      19.827   4.009  50.947  1.00  0.00     0.088 HD
BRANCH  22  24
HETATM   24  N2  UNL     1      18.737   1.630  50.636  1.00  0.00    -0.361 N 
HETATM   25  H2  UNL     1      18.823   1.391  49.616  1.00  0.00     0.164 HD
BRANCH  24  26
HETATM   26  C3  UNL     1      17.725   0.888  51.340  1.00  0.00     0.033 A 
HETATM   27  C4  UNL     1      16.389   1.233  51.411  1.00  0.00     0.029 A 
HETATM   28  C5  UNL     1      15.538   0.415  52.130  1.00  0.00     0.004 A 
HETATM   29  C6  UNL     1      15.940  -0.729  52.783  1.00  0.00     0.024 A 
HETATM   30  C7  UNL     1      17.293  -1.073  52.707  1.00  0.00     0.036 A 
HETATM   31 CL1  UNL     1      17.822  -2.530  53.536  1.00  0.00    -0.084 Cl
HETATM   32  C8  UNL     1      18.154  -0.258  51.989  1.00  0.00     0.053 A 
ENDBRANCH  24  26
ENDBRANCH  22  24
ENDBRANCH   4  22
TORSDOF 3
ENDMDL
MODEL 6
REMARK VINA RESULT:      -8.8      4.551      8.468
REMARK  3 active torsions:
REMARK  status: ('A' for Active; 'I' for Inactive)
REMARK    1  A    between atoms: C2_4  and  P1_5 
REMARK    2  A    between atoms: P1_5  and  N2_6 
REMARK    3  A    between atoms: N2_6  and  C3_7 
ROOT
HETATM    1  F1  UNL     1      22.430   3.839  49.224  1.00  0.00    -0.175 F 
HETATM    2  C1  UNL     1      23.201   3.888  50.353  1.00  0.00     0.239 C 
HETATM    3  N1  UNL     1      24.387   3.694  50.566  1.00  0.00    -0.376 NA
HETATM    4  C2  UNL     1      25.658   3.407  50.354  1.00  0.00     0.152 C 
HETATM    5  C9  UNL     1      26.392   2.382  50.760  1.00  0.00     0.181 C 
HETATM    6  O1  UNL     1      26.740   1.145  51.414  1.00  0.00    -0.358 OA
HETATM    7  C10 UNL     1      25.812   0.796  52.322  1.00  0.00     0.192 C 
HETATM    8  C11 UNL     1      25.574  -0.464  53.081  1.00  0.00     0.166 C 
HETATM    9  N3  UNL     1      24.394  -0.087  53.840  1.00  0.00    -0.125 NA
HETATM   10  N4  UNL     1      23.685  -0.987  54.562  1.00  0.00    -0.235 NA
HETATM   11  C12 UNL     1      22.249  -0.629  54.492  1.00  0.00     0.109 C 
HETATM   12  C13 UNL     1      21.561  -0.902  53.223  1.00  0.00     0.042 C 
HETATM   13  C14 UNL     1      20.287  -0.098  52.919  1.00  0.00     0.175 C 
HETATM   14  O2  UNL     1      20.388   1.203  52.772  1.00  0.00    -0.363 OA
HETATM   15  C15 UNL     1      20.488   2.497  52.627  1.00  0.00     0.138 C 
HETATM   16  C16 UNL     1      21.584   3.140  52.121  1.00  0.00    -0.047 C 
HETATM   17  C17 UNL     1      22.297   1.851  51.905  1.00  0.00     0.065 C 
HETATM   18  C18 UNL     1      23.130   1.762  53.166  1.00  0.00     0.200 C 
HETATM   19  O3  UNL     1      23.583   0.542  53.091  1.00  0.00    -0.288 OA
HETATM   20  C19 UNL     1      22.488   4.213  51.636  1.00  0.00     0.141 C 
HETATM   21  H12 UNL     1      23.802  -1.990  54.317  1.00  0.00     0.142 HD
ENDROOT
BRANCH   4  22
HETATM   22  P1  UNL     1      26.596   4.620  49.321  1.00  0.00     0.040 P 
HETATM   23  H1  UNL     1      25.945   4.566  48.001  1.00  0.00     0.088 HD
BRANCH  22  24
HETATM   24  N2  UNL     1      26.459   6.270  49.946  1.00  0.00    -0.361 N 
HETATM   25  H2  UNL     1      27.129   6.919  50.430  1.00  0.00     0.164 HD
BRANCH  24  26
HETATM   26  C3  UNL     1      25.146   6.817  49.734  1.00  0.00     0.033 A 
HETATM   27  C4  UNL     1      24.376   7.436  50.701  1.00  0.00     0.029 A 
HETATM   28  C5  UNL     1      23.129   7.911  50.341  1.00  0.00     0.004 A 
HETATM   29  C6  UNL     1      22.603   7.806  49.073  1.00  0.00     0.024 A 
HETATM   30  C7  UNL     1      23.386   7.178  48.100  1.00  0.00     0.036 A 
HETATM   31 CL1  UNL     1      22.727   7.035  46.477  1.00  0.00    -0.084 Cl
HETATM   32  C8  UNL     1      24.637   6.698  48.452  1.00  0.00     0.053 A 
ENDBRANCH  24  26
ENDBRANCH  22  24
ENDBRANCH   4  22
TORSDOF 3
ENDMDL
MODEL 7
REMARK VINA RESULT:      -8.7      4.388      6.165
REMARK  3 active torsions:
REMARK  status: ('A' for Active; 'I' for Inactive)
REMARK    1  A    between atoms: C2_4  and  P1_5 
REMARK    2  A    between atoms: P1_5  and  N2_6 
REMARK    3  A    between atoms: N2_6  and  C3_7 
ROOT
HETATM    1  F1  UNL     1      23.304   2.121  48.109  1.00  0.00    -0.175 F 
HETATM    2  C1  UNL     1      23.170   2.749  49.317  1.00  0.00     0.239 C 
HETATM    3  N1  UNL     1      22.258   3.365  49.844  1.00  0.00    -0.376 NA
HETATM    4  C2  UNL     1      21.076   3.925  50.025  1.00  0.00     0.152 C 
HETATM    5  C9  UNL     1      20.729   5.198  50.129  1.00  0.00     0.181 C 
HETATM    6  O1  UNL     1      20.860   6.634  50.180  1.00  0.00    -0.358 OA
HETATM    7  C10 UNL     1      22.138   7.001  50.373  1.00  0.00     0.192 C 
HETATM    8  C11 UNL     1      22.832   8.316  50.271  1.00  0.00     0.166 C 
HETATM    9  N3  UNL     1      24.189   7.917  50.600  1.00  0.00    -0.125 NA
HETATM   10  N4  UNL     1      25.240   8.759  50.463  1.00  0.00    -0.235 NA
HETATM   11  C12 UNL     1      26.424   7.979  50.032  1.00  0.00     0.109 C 
HETATM   12  C13 UNL     1      26.439   7.517  48.638  1.00  0.00     0.042 C 
HETATM   13  C14 UNL     1      27.326   6.308  48.300  1.00  0.00     0.175 C 
HETATM   14  O2  UNL     1      27.043   5.151  48.851  1.00  0.00    -0.363 OA
HETATM   15  C15 UNL     1      26.762   3.999  49.400  1.00  0.00     0.138 C 
HETATM   16  C16 UNL     1      25.501   3.582  49.730  1.00  0.00    -0.047 C 
HETATM   17  C17 UNL     1      24.900   4.841  49.211  1.00  0.00     0.065 C 
HETATM   18  C18 UNL     1      24.789   5.659  50.479  1.00  0.00     0.200 C 
HETATM   19  O3  UNL     1      24.475   6.831  50.004  1.00  0.00    -0.288 OA
HETATM   20  C19 UNL     1      24.378   2.740  50.212  1.00  0.00     0.141 C 
HETATM   21  H12 UNL     1      25.116   9.574  49.830  1.00  0.00     0.142 HD
ENDROOT
BRANCH   4  22
HETATM   22  P1  UNL     1      19.645   2.760  50.155  1.00  0.00     0.040 P 
HETATM   23  H1  UNL     1      18.793   3.088  49.000  1.00  0.00     0.088 HD
BRANCH  22  24
HETATM   24  N2  UNL     1      20.151   1.070  50.016  1.00  0.00    -0.361 N 
HETATM   25  H2  UNL     1      20.342   0.436  49.201  1.00  0.00     0.164 HD
BRANCH  24  26
HETATM   26  C3  UNL     1      20.332   0.457  51.305  1.00  0.00     0.033 A 
HETATM   27  C4  UNL     1      19.311   0.050  52.144  1.00  0.00     0.029 A 
HETATM   28  C5  UNL     1      19.647  -0.525  53.354  1.00  0.00     0.004 A 
HETATM   29  C6  UNL     1      20.942  -0.719  53.780  1.00  0.00     0.024 A 
HETATM   30  C7  UNL     1      21.970  -0.305  52.928  1.00  0.00     0.036 A 
HETATM   31 CL1  UNL     1      23.629  -0.546  53.458  1.00  0.00    -0.084 Cl
HETATM   32  C8  UNL     1      21.643   0.272  51.711  1.00  0.00     0.053 A 
ENDBRANCH  24  26
ENDBRANCH  22  24
ENDBRANCH   4  22
TORSDOF 3
ENDMDL
MODEL 8
REMARK VINA RESULT:      -8.6      2.935      3.588
REMARK  3 active torsions:
REMARK  status: ('A' for Active; 'I' for Inactive)
REMARK    1  A    between atoms: C2_4  and  P1_5 
REMARK    2  A    between atoms: P1_5  and  N2_6 
REMARK    3  A    between atoms: N2_6  and  C3_7 
ROOT
HETATM    1  F1  UNL     1      20.576  -0.109  51.030  1.00  0.00    -0.175 F 
HETATM    2  C1  UNL     1      21.003   1.146  51.369  1.00  0.00     0.239 C 
HETATM    3  N1  UNL     1      21.129   2.185  50.742  1.00  0.00    -0.376 NA
HETATM    4  C2  UNL     1      21.111   3.042  49.738  1.00  0.00     0.152 C 
HETATM    5  C9  UNL     1      22.100   3.652  49.104  1.00  0.00     0.181 C 
HETATM    6  O1  UNL     1      23.445   4.042  48.757  1.00  0.00    -0.358 OA
HETATM    7  C10 UNL     1      24.314   3.717  49.730  1.00  0.00     0.192 C 
HETATM    8  C11 UNL     1      25.803   3.684  49.777  1.00  0.00     0.166 C 
HETATM    9  N3  UNL     1      26.006   3.219  51.138  1.00  0.00    -0.125 NA
HETATM   10  N4  UNL     1      27.226   2.857  51.599  1.00  0.00    -0.235 NA
HETATM   11  C12 UNL     1      27.063   1.726  52.542  1.00  0.00     0.109 C 
HETATM   12  C13 UNL     1      26.747   0.417  51.956  1.00  0.00     0.042 C 
HETATM   13  C14 UNL     1      26.065  -0.621  52.861  1.00  0.00     0.175 C 
HETATM   14  O2  UNL     1      24.864  -0.355  53.322  1.00  0.00    -0.363 OA
HETATM   15  C15 UNL     1      23.671  -0.092  53.782  1.00  0.00     0.138 C 
HETATM   16  C16 UNL     1      22.730   0.651  53.121  1.00  0.00    -0.047 C 
HETATM   17  C17 UNL     1      23.638   0.850  51.958  1.00  0.00     0.065 C 
HETATM   18  C18 UNL     1      24.242   2.199  52.285  1.00  0.00     0.200 C 
HETATM   19  O3  UNL     1      25.192   2.278  51.397  1.00  0.00    -0.288 OA
HETATM   20  C19 UNL     1      21.456   1.335  52.789  1.00  0.00     0.141 C 
HETATM   21  H12 UNL     1      27.948   2.615  50.892  1.00  0.00     0.142 HD
ENDROOT
BRANCH   4  22
HETATM   22  P1  UNL     1      19.437   3.482  49.085  1.00  0.00     0.040 P 
HETATM   23  H1  UNL     1      19.707   4.251  47.859  1.00  0.00     0.088 HD
BRANCH  22  24
HETATM   24  N2  UNL     1      18.496   2.048  48.652  1.00  0.00    -0.361 N 
HETATM   25  H2  UNL     1      18.410   1.476  47.774  1.00  0.00     0.164 HD
BRANCH  24  26
HETATM   26  C3  UNL     1      17.685   1.587  49.747  1.00  0.00     0.033 A 
HETATM   27  C4  UNL     1      17.483   0.262  50.085  1.00  0.00     0.029 A 
HETATM   28  C5  UNL     1      16.673  -0.022  51.168  1.00  0.00     0.004 A 
HETATM   29  C6  UNL     1      16.051   0.938  51.936  1.00  0.00     0.024 A 
HETATM   30  C7  UNL     1      16.259   2.276  51.588  1.00  0.00     0.036 A 
HETATM   31 CL1  UNL     1      15.472   3.512  52.559  1.00  0.00    -0.084 Cl
HETATM   32  C8  UNL     1      17.070   2.570  50.504  1.00  0.00     0.053 A 
ENDBRANCH  24  26
ENDBRANCH  22  24
ENDBRANCH   4  22
TORSDOF 3
ENDMDL
MODEL 9
REMARK VINA RESULT:      -8.5      6.169     10.402
REMARK  3 active torsions:
REMARK  status: ('A' for Active; 'I' for Inactive)
REMARK    1  A    between atoms: C2_4  and  P1_5 
REMARK    2  A    between atoms: P1_5  and  N2_6 
REMARK    3  A    between atoms: N2_6  and  C3_7 
ROOT
HETATM    1  F1  UNL     1      21.751   4.602  49.294  1.00  0.00    -0.175 F 
HETATM    2  C1  UNL     1      22.671   4.708  50.301  1.00  0.00     0.239 C 
HETATM    3  N1  UNL     1      23.890   4.770  50.318  1.00  0.00    -0.376 NA
HETATM    4  C2  UNL     1      25.140   4.807  49.893  1.00  0.00     0.152 C 
HETATM    5  C9  UNL     1      26.130   3.941  50.045  1.00  0.00     0.181 C 
HETATM    6  O1  UNL     1      26.834   2.755  50.465  1.00  0.00    -0.358 OA
HETATM    7  C10 UNL     1      26.166   2.108  51.436  1.00  0.00     0.192 C 
HETATM    8  C11 UNL     1      26.328   0.754  52.037  1.00  0.00     0.166 C 
HETATM    9  N3  UNL     1      25.238   0.768  52.997  1.00  0.00    -0.125 NA
HETATM   10  N4  UNL     1      24.865  -0.341  53.677  1.00  0.00    -0.235 NA
HETATM   11  C12 UNL     1      23.395  -0.318  53.858  1.00  0.00     0.109 C 
HETATM   12  C13 UNL     1      22.578  -0.606  52.672  1.00  0.00     0.042 C 
HETATM   13  C14 UNL     1      21.131  -0.089  52.663  1.00  0.00     0.175 C 
HETATM   14  O2  UNL     1      20.930   1.208  52.687  1.00  0.00    -0.363 OA
HETATM   15  C15 UNL     1      20.729   2.498  52.712  1.00  0.00     0.138 C 
HETATM   16  C16 UNL     1      21.566   3.426  52.153  1.00  0.00    -0.047 C 
HETATM   17  C17 UNL     1      22.488   2.365  51.663  1.00  0.00     0.065 C 
HETATM   18  C18 UNL     1      23.519   2.338  52.770  1.00  0.00     0.200 C 
HETATM   19  O3  UNL     1      24.200   1.270  52.463  1.00  0.00    -0.288 OA
HETATM   20  C19 UNL     1      22.129   4.722  51.703  1.00  0.00     0.141 C 
HETATM   21  H12 UNL     1      25.148  -1.259  53.280  1.00  0.00     0.142 HD
ENDROOT
BRANCH   4  22
HETATM   22  P1  UNL     1      25.615   6.305  48.919  1.00  0.00     0.040 P 
HETATM   23  H1  UNL     1      24.375   7.092  48.818  1.00  0.00     0.088 HD
BRANCH  22  24
HETATM   24  N2  UNL     1      26.831   7.282  49.756  1.00  0.00    -0.361 N 
HETATM   25  H2  UNL     1      26.917   7.645  50.738  1.00  0.00     0.164 HD
BRANCH  24  26
HETATM   26  C3  UNL     1      27.921   7.641  48.888  1.00  0.00     0.033 A 
HETATM   27  C4  UNL     1      28.304   6.942  47.759  1.00  0.00     0.029 A 
HETATM   28  C5  UNL     1      29.375   7.416  47.027  1.00  0.00     0.004 A 
HETATM   29  C6  UNL     1      30.090   8.547  47.353  1.00  0.00     0.024 A 
HETATM   30  C7  UNL     1      29.698   9.250  48.496  1.00  0.00     0.036 A 
HETATM   31 CL1  UNL     1      30.600  10.695  48.926  1.00  0.00    -0.084 Cl
HETATM   32  C8  UNL     1      28.624   8.782  49.237  1.00  0.00     0.053 A 
ENDBRANCH  24  26
ENDBRANCH  22  24
ENDBRANCH   4  22
TORSDOF 3
ENDMDL
