MODEL 1
REMARK VINA RESULT:      -7.7      0.000      0.000
REMARK  6 active torsions:
REMARK  status: ('A' for Active; 'I' for Inactive)
REMARK    1  A    between atoms: C2_2  and  C3_3 
REMARK       I    between atoms: C3_3  and  N1_5 
REMARK    2  A    between atoms: N1_5  and  C4_6 
REMARK    3  A    between atoms: C7_9  and  N2_10 
REMARK    4  A    between atoms: C9_12  and  C10_13 
REMARK    5  A    between atoms: C10_13  and  N3_14 
REMARK    6  A    between atoms: N3_14  and  C11_15 
ROOT
HETATM    1  C4  UNL     1      26.045  -0.053  52.952  1.00  0.00     0.035 A 
HETATM    2  C5  UNL     1      25.005  -0.567  53.696  1.00  0.00     0.032 A 
HETATM    3  C6  UNL     1      23.772   0.001  53.483  1.00  0.00     0.032 A 
HETATM    4  C7  UNL     1      23.562   1.034  52.575  1.00  0.00     0.035 A 
HETATM    5  C9  UNL     1      24.627   1.539  51.832  1.00  0.00    -0.012 A 
HETATM    6  C17 UNL     1      25.865   0.969  52.046  1.00  0.00     0.040 A 
ENDROOT
BRANCH   5   7
HETATM    7  C10 UNL     1      24.187   2.620  50.939  1.00  0.00     0.160 C 
BRANCH   7   8
HETATM    8  N3  UNL     1      24.722   3.899  51.344  1.00  0.00    -0.386 N 
HETATM    9  H15 UNL     1      24.617   4.471  52.233  1.00  0.00     0.160 HD
BRANCH   8  10
HETATM   10  C11 UNL     1      25.560   4.547  50.383  1.00  0.00     0.029 A 
HETATM   11  C12 UNL     1      26.601   3.917  49.693  1.00  0.00     0.029 A 
HETATM   12  C13 UNL     1      27.401   4.542  48.776  1.00  0.00     0.004 A 
HETATM   13  C14 UNL     1      27.192   5.870  48.493  1.00  0.00     0.019 A 
HETATM   14  C15 UNL     1      26.192   6.566  49.122  1.00  0.00     0.013 A 
HETATM   15 BR1  UNL     1      25.878   8.413  48.749  1.00  0.00    -0.051 Br
HETATM   16  C16 UNL     1      25.429   5.872  50.033  1.00  0.00     0.048 A 
ENDBRANCH   8  10
ENDBRANCH   7   8
ENDBRANCH   5   7
BRANCH   4  17
HETATM   17  N2  UNL     1      22.194   1.466  52.523  1.00  0.00    -0.394 N 
HETATM   18  C8  UNL     1      21.072   0.811  53.194  1.00  0.00     0.146 C 
HETATM   19  H9  UNL     1      22.045   2.328  51.939  1.00  0.00     0.159 HD
ENDBRANCH   4  17
BRANCH   1  20
HETATM   20  N1  UNL     1      27.391  -0.510  53.033  1.00  0.00    -0.327 N 
HETATM   21  C3  UNL     1      28.305  -0.054  54.040  1.00  0.00     0.221 C 
HETATM   22  O1  UNL     1      27.871   0.775  54.861  1.00  0.00    -0.273 OA
HETATM   23  H6  UNL     1      27.478  -1.192  52.228  1.00  0.00     0.169 HD
BRANCH  21  24
HETATM   24  C2  UNL     1      29.636  -0.694  53.888  1.00  0.00     0.098 C 
HETATM   25  C1  UNL     1      29.567  -2.104  53.411  1.00  0.00     0.014 C 
ENDBRANCH  21  24
ENDBRANCH   1  20
TORSDOF 6
ENDMDL
MODEL 2
REMARK VINA RESULT:      -7.4      2.703      3.516
REMARK  6 active torsions:
REMARK  status: ('A' for Active; 'I' for Inactive)
REMARK    1  A    between atoms: C2_2  and  C3_3 
REMARK       I    between atoms: C3_3  and  N1_5 
REMARK    2  A    between atoms: N1_5  and  C4_6 
REMARK    3  A    between atoms: C7_9  and  N2_10 
REMARK    4  A    between atoms: C9_12  and  C10_13 
REMARK    5  A    between atoms: C10_13  and  N3_14 
REMARK    6  A    between atoms: N3_14  and  C11_15 
ROOT
HETATM    1  C4  UNL     1      24.866  -0.768  54.340  1.00  0.00     0.035 A 
HETATM    2  C5  UNL     1      24.168  -1.466  55.302  1.00  0.00     0.032 A 
HETATM    3  C6  UNL     1      22.807  -1.283  55.315  1.00  0.00     0.032 A 
HETATM    4  C7  UNL     1      22.149  -0.446  54.418  1.00  0.00     0.035 A 
HETATM    5  C9  UNL     1      22.873   0.252  53.454  1.00  0.00    -0.012 A 
HETATM    6  C17 UNL     1      24.239   0.068  53.442  1.00  0.00     0.040 A 
ENDROOT
BRANCH   5   7
HETATM    7  C10 UNL     1      21.988   1.073  52.616  1.00  0.00     0.160 C 
BRANCH   7   8
HETATM    8  N3  UNL     1      21.750   0.461  51.330  1.00  0.00    -0.386 N 
HETATM    9  H15 UNL     1      21.364  -0.488  51.047  1.00  0.00     0.160 HD
BRANCH   8  10
HETATM   10  C11 UNL     1      22.089   1.262  50.195  1.00  0.00     0.029 A 
HETATM   11  C12 UNL     1      21.507   1.124  48.930  1.00  0.00     0.029 A 
HETATM   12  C13 UNL     1      21.835   1.893  47.846  1.00  0.00     0.004 A 
HETATM   13  C14 UNL     1      22.791   2.870  47.978  1.00  0.00     0.019 A 
HETATM   14  C15 UNL     1      23.414   3.076  49.183  1.00  0.00     0.013 A 
HETATM   15 BR1  UNL     1      24.748   4.426  49.396  1.00  0.00    -0.051 Br
HETATM   16  C16 UNL     1      23.033   2.265  50.227  1.00  0.00     0.048 A 
ENDBRANCH   8  10
ENDBRANCH   7   8
ENDBRANCH   5   7
BRANCH   4  17
HETATM   17  N2  UNL     1      20.729  -0.411  54.622  1.00  0.00    -0.394 N 
HETATM   18  C8  UNL     1      19.754  -1.263  53.941  1.00  0.00     0.146 C 
HETATM   19  H9  UNL     1      20.419   0.304  55.327  1.00  0.00     0.159 HD
ENDBRANCH   4  17
BRANCH   1  20
HETATM   20  N1  UNL     1      26.278  -0.829  54.171  1.00  0.00    -0.327 N 
HETATM   21  C3  UNL     1      27.159   0.206  54.631  1.00  0.00     0.221 C 
HETATM   22  O1  UNL     1      26.635   1.183  55.196  1.00  0.00    -0.273 OA
HETATM   23  H6  UNL     1      26.436  -1.748  53.672  1.00  0.00     0.169 HD
BRANCH  21  24
HETATM   24  C2  UNL     1      28.575  -0.118  54.323  1.00  0.00     0.098 C 
HETATM   25  C1  UNL     1      28.732  -1.147  53.258  1.00  0.00     0.014 C 
ENDBRANCH  21  24
ENDBRANCH   1  20
TORSDOF 6
ENDMDL
MODEL 3
REMARK VINA RESULT:      -7.3      2.818      6.913
REMARK  6 active torsions:
REMARK  status: ('A' for Active; 'I' for Inactive)
REMARK    1  A    between atoms: C2_2  and  C3_3 
REMARK       I    between atoms: C3_3  and  N1_5 
REMARK    2  A    between atoms: N1_5  and  C4_6 
REMARK    3  A    between atoms: C7_9  and  N2_10 
REMARK    4  A    between atoms: C9_12  and  C10_13 
REMARK    5  A    between atoms: C10_13  and  N3_14 
REMARK    6  A    between atoms: N3_14  and  C11_15 
ROOT
HETATM    1  C4  UNL     1      26.850   2.457  52.059  1.00  0.00     0.035 A 
HETATM    2  C5  UNL     1      28.140   2.482  52.546  1.00  0.00     0.032 A 
HETATM    3  C6  UNL     1      28.555   1.357  53.216  1.00  0.00     0.032 A 
HETATM    4  C7  UNL     1      27.739   0.245  53.404  1.00  0.00     0.035 A 
HETATM    5  C9  UNL     1      26.438   0.240  52.905  1.00  0.00    -0.012 A 
HETATM    6  C17 UNL     1      26.022   1.370  52.232  1.00  0.00     0.040 A 
ENDROOT
BRANCH   5   7
HETATM    7  C10 UNL     1      25.755  -1.024  53.214  1.00  0.00     0.160 C 
BRANCH   7   8
HETATM    8  N3  UNL     1      24.892  -0.897  54.364  1.00  0.00    -0.386 N 
HETATM    9  H15 UNL     1      25.088  -0.862  55.408  1.00  0.00     0.160 HD
BRANCH   8  10
HETATM   10  C11 UNL     1      23.495  -0.795  54.077  1.00  0.00     0.029 A 
HETATM   11  C12 UNL     1      22.479  -1.205  54.948  1.00  0.00     0.029 A 
HETATM   12  C13 UNL     1      21.143  -1.106  54.669  1.00  0.00     0.004 A 
HETATM   13  C14 UNL     1      20.744  -0.573  53.467  1.00  0.00     0.019 A 
HETATM   14  C15 UNL     1      21.673  -0.143  52.554  1.00  0.00     0.013 A 
HETATM   15 BR1  UNL     1      21.147   0.601  50.875  1.00  0.00    -0.051 Br
HETATM   16  C16 UNL     1      22.997  -0.275  52.903  1.00  0.00     0.048 A 
ENDBRANCH   8  10
ENDBRANCH   7   8
ENDBRANCH   5   7
BRANCH   4  17
HETATM   17  N2  UNL     1      28.386  -0.808  54.132  1.00  0.00    -0.394 N 
HETATM   18  C8  UNL     1      29.484  -1.635  53.632  1.00  0.00     0.146 C 
HETATM   19  H9  UNL     1      27.998  -0.956  55.099  1.00  0.00     0.159 HD
ENDBRANCH   4  17
BRANCH   1  20
HETATM   20  N1  UNL     1      26.244   3.526  51.340  1.00  0.00    -0.327 N 
HETATM   21  C3  UNL     1      26.384   3.683  49.921  1.00  0.00     0.221 C 
HETATM   22  O1  UNL     1      27.070   2.833  49.325  1.00  0.00    -0.273 OA
HETATM   23  H6  UNL     1      25.734   4.078  52.086  1.00  0.00     0.169 HD
BRANCH  21  24
HETATM   24  C2  UNL     1      25.648   4.879  49.438  1.00  0.00     0.098 C 
HETATM   25  C1  UNL     1      24.200   4.628  49.197  1.00  0.00     0.014 C 
ENDBRANCH  21  24
ENDBRANCH   1  20
TORSDOF 6
ENDMDL
MODEL 4
REMARK VINA RESULT:      -7.1      3.372      6.081
REMARK  6 active torsions:
REMARK  status: ('A' for Active; 'I' for Inactive)
REMARK    1  A    between atoms: C2_2  and  C3_3 
REMARK       I    between atoms: C3_3  and  N1_5 
REMARK    2  A    between atoms: N1_5  and  C4_6 
REMARK    3  A    between atoms: C7_9  and  N2_10 
REMARK    4  A    between atoms: C9_12  and  C10_13 
REMARK    5  A    between atoms: C10_13  and  N3_14 
REMARK    6  A    between atoms: N3_14  and  C11_15 
ROOT
HETATM    1  C4  UNL     1      26.592   2.019  51.897  1.00  0.00     0.035 A 
HETATM    2  C5  UNL     1      26.818   2.863  50.830  1.00  0.00     0.032 A 
HETATM    3  C6  UNL     1      25.740   3.598  50.402  1.00  0.00     0.032 A 
HETATM    4  C7  UNL     1      24.484   3.513  50.995  1.00  0.00     0.035 A 
HETATM    5  C9  UNL     1      24.275   2.654  52.072  1.00  0.00    -0.012 A 
HETATM    6  C17 UNL     1      25.358   1.916  52.501  1.00  0.00     0.040 A 
ENDROOT
BRANCH   5   7
HETATM    7  C10 UNL     1      22.885   2.718  52.543  1.00  0.00     0.160 C 
BRANCH   7   8
HETATM    8  N3  UNL     1      22.050   1.747  51.878  1.00  0.00    -0.386 N 
HETATM    9  H15 UNL     1      21.703   1.664  50.877  1.00  0.00     0.160 HD
BRANCH   8  10
HETATM   10  C11 UNL     1      21.583   0.672  52.699  1.00  0.00     0.029 A 
HETATM   11  C12 UNL     1      22.373  -0.007  53.633  1.00  0.00     0.029 A 
HETATM   12  C13 UNL     1      21.921  -1.035  54.415  1.00  0.00     0.004 A 
HETATM   13  C14 UNL     1      20.616  -1.447  54.300  1.00  0.00     0.019 A 
HETATM   14  C15 UNL     1      19.770  -0.836  53.409  1.00  0.00     0.013 A 
HETATM   15 BR1  UNL     1      17.950  -1.387  53.227  1.00  0.00    -0.051 Br
HETATM   16  C16 UNL     1      20.294   0.189  52.656  1.00  0.00     0.048 A 
ENDBRANCH   8  10
ENDBRANCH   7   8
ENDBRANCH   5   7
BRANCH   4  17
HETATM   17  N2  UNL     1      23.513   4.373  50.380  1.00  0.00    -0.394 N 
HETATM   18  C8  UNL     1      23.040   4.267  49.000  1.00  0.00     0.146 C 
HETATM   19  H9  UNL     1      23.147   5.123  51.019  1.00  0.00     0.159 HD
ENDBRANCH   4  17
BRANCH   1  20
HETATM   20  N1  UNL     1      27.584   1.180  52.479  1.00  0.00    -0.327 N 
HETATM   21  C3  UNL     1      28.364   1.577  53.616  1.00  0.00     0.221 C 
HETATM   22  O1  UNL     1      28.139   2.707  54.088  1.00  0.00    -0.273 OA
HETATM   23  H6  UNL     1      27.556   0.304  51.887  1.00  0.00     0.169 HD
BRANCH  21  24
HETATM   24  C2  UNL     1      29.318   0.510  54.012  1.00  0.00     0.098 C 
HETATM   25  C1  UNL     1      28.874  -0.858  53.624  1.00  0.00     0.014 C 
ENDBRANCH  21  24
ENDBRANCH   1  20
TORSDOF 6
ENDMDL
MODEL 5
REMARK VINA RESULT:      -7.0      1.620      2.445
REMARK  6 active torsions:
REMARK  status: ('A' for Active; 'I' for Inactive)
REMARK    1  A    between atoms: C2_2  and  C3_3 
REMARK       I    between atoms: C3_3  and  N1_5 
REMARK    2  A    between atoms: N1_5  and  C4_6 
REMARK    3  A    between atoms: C7_9  and  N2_10 
REMARK    4  A    between atoms: C9_12  and  C10_13 
REMARK    5  A    between atoms: C10_13  and  N3_14 
REMARK    6  A    between atoms: N3_14  and  C11_15 
ROOT
HETATM    1  C4  UNL     1      26.290   1.261  52.140  1.00  0.00     0.035 A 
HETATM    2  C5  UNL     1      24.965   1.034  52.446  1.00  0.00     0.032 A 
HETATM    3  C6  UNL     1      24.049   1.810  51.780  1.00  0.00     0.032 A 
HETATM    4  C7  UNL     1      24.412   2.774  50.845  1.00  0.00     0.035 A 
HETATM    5  C9  UNL     1      25.757   2.989  50.549  1.00  0.00    -0.012 A 
HETATM    6  C17 UNL     1      26.677   2.210  51.219  1.00  0.00     0.040 A 
ENDROOT
BRANCH   5   7
HETATM    7  C10 UNL     1      25.918   4.046  49.541  1.00  0.00     0.160 C 
BRANCH   7   8
HETATM    8  N3  UNL     1      27.305   4.406  49.361  1.00  0.00    -0.386 N 
HETATM    9  H15 UNL     1      28.211   3.959  49.691  1.00  0.00     0.160 HD
BRANCH   8  10
HETATM   10  C11 UNL     1      27.539   5.590  48.593  1.00  0.00     0.029 A 
HETATM   11  C12 UNL     1      28.784   5.959  48.074  1.00  0.00     0.029 A 
HETATM   12  C13 UNL     1      29.004   7.093  47.340  1.00  0.00     0.004 A 
HETATM   13  C14 UNL     1      27.954   7.941  47.080  1.00  0.00     0.019 A 
HETATM   14  C15 UNL     1      26.697   7.656  47.550  1.00  0.00     0.013 A 
HETATM   15 BR1  UNL     1      25.220   8.816  47.204  1.00  0.00    -0.051 Br
HETATM   16  C16 UNL     1      26.553   6.499  48.280  1.00  0.00     0.048 A 
ENDBRANCH   8  10
ENDBRANCH   7   8
ENDBRANCH   5   7
BRANCH   4  17
HETATM   17  N2  UNL     1      23.287   3.460  50.278  1.00  0.00    -0.394 N 
HETATM   18  C8  UNL     1      22.423   4.403  50.988  1.00  0.00     0.146 C 
HETATM   19  H9  UNL     1      23.113   3.227  49.268  1.00  0.00     0.159 HD
ENDBRANCH   4  17
BRANCH   1  20
HETATM   20  N1  UNL     1      27.381   0.558  52.725  1.00  0.00    -0.327 N 
HETATM   21  C3  UNL     1      28.127   1.073  53.837  1.00  0.00     0.221 C 
HETATM   22  O1  UNL     1      27.781   2.183  54.283  1.00  0.00    -0.273 OA
HETATM   23  H6  UNL     1      27.446  -0.332  52.157  1.00  0.00     0.169 HD
BRANCH  21  24
HETATM   24  C2  UNL     1      29.204   0.135  54.242  1.00  0.00     0.098 C 
HETATM   25  C1  UNL     1      29.298  -1.072  53.374  1.00  0.00     0.014 C 
ENDBRANCH  21  24
ENDBRANCH   1  20
TORSDOF 6
ENDMDL
MODEL 6
REMARK VINA RESULT:      -6.7      3.770      7.129
REMARK  6 active torsions:
REMARK  status: ('A' for Active; 'I' for Inactive)
REMARK    1  A    between atoms: C2_2  and  C3_3 
REMARK       I    between atoms: C3_3  and  N1_5 
REMARK    2  A    between atoms: N1_5  and  C4_6 
REMARK    3  A    between atoms: C7_9  and  N2_10 
REMARK    4  A    between atoms: C9_12  and  C10_13 
REMARK    5  A    between atoms: C10_13  and  N3_14 
REMARK    6  A    between atoms: N3_14  and  C11_15 
ROOT
HETATM    1  C4  UNL     1      28.849   5.813  48.028  1.00  0.00     0.035 A 
HETATM    2  C5  UNL     1      28.260   7.056  47.941  1.00  0.00     0.032 A 
HETATM    3  C6  UNL     1      26.976   7.150  48.417  1.00  0.00     0.032 A 
HETATM    4  C7  UNL     1      26.289   6.069  48.961  1.00  0.00     0.035 A 
HETATM    5  C9  UNL     1      26.903   4.820  49.040  1.00  0.00    -0.012 A 
HETATM    6  C17 UNL     1      28.192   4.725  48.561  1.00  0.00     0.040 A 
ENDROOT
BRANCH   5   7
HETATM    7  C10 UNL     1      26.006   3.824  49.643  1.00  0.00     0.160 C 
BRANCH   7   8
HETATM    8  N3  UNL     1      26.259   3.665  51.056  1.00  0.00    -0.386 N 
HETATM    9  H15 UNL     1      26.634   4.327  51.797  1.00  0.00     0.160 HD
BRANCH   8  10
HETATM   10  C11 UNL     1      25.955   2.375  51.594  1.00  0.00     0.029 A 
HETATM   11  C12 UNL     1      26.877   1.328  51.702  1.00  0.00     0.029 A 
HETATM   12  C13 UNL     1      26.581   0.095  52.217  1.00  0.00     0.004 A 
HETATM   13  C14 UNL     1      25.307  -0.159  52.665  1.00  0.00     0.019 A 
HETATM   14  C15 UNL     1      24.339   0.810  52.598  1.00  0.00     0.013 A 
HETATM   15 BR1  UNL     1      22.561   0.484  53.214  1.00  0.00    -0.051 Br
HETATM   16  C16 UNL     1      24.710   2.024  52.068  1.00  0.00     0.048 A 
ENDBRANCH   8  10
ENDBRANCH   7   8
ENDBRANCH   5   7
BRANCH   4  17
HETATM   17  N2  UNL     1      24.963   6.405  49.392  1.00  0.00    -0.394 N 
HETATM   18  C8  UNL     1      24.629   7.164  50.597  1.00  0.00     0.146 C 
HETATM   19  H9  UNL     1      24.207   6.050  48.752  1.00  0.00     0.159 HD
ENDBRANCH   4  17
BRANCH   1  20
HETATM   20  N1  UNL     1      30.171   5.519  47.587  1.00  0.00    -0.327 N 
HETATM   21  C3  UNL     1      31.325   5.710  48.418  1.00  0.00     0.221 C 
HETATM   22  O1  UNL     1      31.127   6.151  49.565  1.00  0.00    -0.273 OA
HETATM   23  H6  UNL     1      30.038   5.168  46.598  1.00  0.00     0.169 HD
BRANCH  21  24
HETATM   24  C2  UNL     1      32.570   5.323  47.706  1.00  0.00     0.098 C 
HETATM   25  C1  UNL     1      32.544   3.931  47.179  1.00  0.00     0.014 C 
ENDBRANCH  21  24
ENDBRANCH   1  20
TORSDOF 6
ENDMDL
MODEL 7
REMARK VINA RESULT:      -6.7      3.643      7.657
REMARK  6 active torsions:
REMARK  status: ('A' for Active; 'I' for Inactive)
REMARK    1  A    between atoms: C2_2  and  C3_3 
REMARK       I    between atoms: C3_3  and  N1_5 
REMARK    2  A    between atoms: N1_5  and  C4_6 
REMARK    3  A    between atoms: C7_9  and  N2_10 
REMARK    4  A    between atoms: C9_12  and  C10_13 
REMARK    5  A    between atoms: C10_13  and  N3_14 
REMARK    6  A    between atoms: N3_14  and  C11_15 
ROOT
HETATM    1  C4  UNL     1      23.627   5.196  49.117  1.00  0.00     0.035 A 
HETATM    2  C5  UNL     1      24.260   6.309  48.607  1.00  0.00     0.032 A 
HETATM    3  C6  UNL     1      25.633   6.274  48.601  1.00  0.00     0.032 A 
HETATM    4  C7  UNL     1      26.364   5.189  49.076  1.00  0.00     0.035 A 
HETATM    5  C9  UNL     1      25.705   4.073  49.588  1.00  0.00    -0.012 A 
HETATM    6  C17 UNL     1      24.326   4.109  49.594  1.00  0.00     0.040 A 
ENDROOT
BRANCH   5   7
HETATM    7  C10 UNL     1      26.660   3.048  50.032  1.00  0.00     0.160 C 
BRANCH   7   8
HETATM    8  N3  UNL     1      26.741   2.982  51.472  1.00  0.00    -0.386 N 
HETATM    9  H15 UNL     1      27.050   3.686  52.206  1.00  0.00     0.160 HD
BRANCH   8  10
HETATM   10  C11 UNL     1      26.331   1.743  52.056  1.00  0.00     0.029 A 
HETATM   11  C12 UNL     1      27.204   0.702  52.390  1.00  0.00     0.029 A 
HETATM   12  C13 UNL     1      26.807  -0.483  52.948  1.00  0.00     0.004 A 
HETATM   13  C14 UNL     1      25.474  -0.692  53.209  1.00  0.00     0.019 A 
HETATM   14  C15 UNL     1      24.548   0.276  52.914  1.00  0.00     0.013 A 
HETATM   15 BR1  UNL     1      22.689   0.013  53.265  1.00  0.00    -0.051 Br
HETATM   16  C16 UNL     1      25.021   1.440  52.354  1.00  0.00     0.048 A 
ENDBRANCH   8  10
ENDBRANCH   7   8
ENDBRANCH   5   7
BRANCH   4  17
HETATM   17  N2  UNL     1      27.782   5.377  48.969  1.00  0.00    -0.394 N 
HETATM   18  C8  UNL     1      28.443   6.398  48.157  1.00  0.00     0.146 C 
HETATM   19  H9  UNL     1      28.344   4.697  49.542  1.00  0.00     0.159 HD
ENDBRANCH   4  17
BRANCH   1  20
HETATM   20  N1  UNL     1      22.214   5.047  49.206  1.00  0.00    -0.327 N 
HETATM   21  C3  UNL     1      21.450   5.550  50.312  1.00  0.00     0.221 C 
HETATM   22  O1  UNL     1      22.079   6.134  51.212  1.00  0.00    -0.273 OA
HETATM   23  H6  UNL     1      21.956   4.525  48.323  1.00  0.00     0.169 HD
BRANCH  21  24
HETATM   24  C2  UNL     1      20.004   5.256  50.144  1.00  0.00     0.098 C 
HETATM   25  C1  UNL     1      19.534   4.101  50.958  1.00  0.00     0.014 C 
ENDBRANCH  21  24
ENDBRANCH   1  20
TORSDOF 6
ENDMDL
MODEL 8
REMARK VINA RESULT:      -6.6      1.845      4.542
REMARK  6 active torsions:
REMARK  status: ('A' for Active; 'I' for Inactive)
REMARK    1  A    between atoms: C2_2  and  C3_3 
REMARK       I    between atoms: C3_3  and  N1_5 
REMARK    2  A    between atoms: N1_5  and  C4_6 
REMARK    3  A    between atoms: C7_9  and  N2_10 
REMARK    4  A    between atoms: C9_12  and  C10_13 
REMARK    5  A    between atoms: C10_13  and  N3_14 
REMARK    6  A    between atoms: N3_14  and  C11_15 
ROOT
HETATM    1  C4  UNL     1      23.859   0.481  53.282  1.00  0.00     0.035 A 
HETATM    2  C5  UNL     1      24.576  -0.395  54.068  1.00  0.00     0.032 A 
HETATM    3  C6  UNL     1      25.944  -0.317  53.968  1.00  0.00     0.032 A 
HETATM    4  C7  UNL     1      26.589   0.587  53.129  1.00  0.00     0.035 A 
HETATM    5  C9  UNL     1      25.846   1.464  52.342  1.00  0.00    -0.012 A 
HETATM    6  C17 UNL     1      24.473   1.384  52.443  1.00  0.00     0.040 A 
ENDROOT
BRANCH   5   7
HETATM    7  C10 UNL     1      26.720   2.326  51.535  1.00  0.00     0.160 C 
BRANCH   7   8
HETATM    8  N3  UNL     1      26.132   2.633  50.252  1.00  0.00    -0.386 N 
HETATM    9  H15 UNL     1      25.603   2.041  49.546  1.00  0.00     0.160 HD
BRANCH   8  10
HETATM   10  C11 UNL     1      26.271   3.989  49.820  1.00  0.00     0.029 A 
HETATM   11  C12 UNL     1      27.274   4.442  48.957  1.00  0.00     0.029 A 
HETATM   12  C13 UNL     1      27.403   5.742  48.546  1.00  0.00     0.004 A 
HETATM   13  C14 UNL     1      26.506   6.681  48.992  1.00  0.00     0.019 A 
HETATM   14  C15 UNL     1      25.489   6.325  49.841  1.00  0.00     0.013 A 
HETATM   15 BR1  UNL     1      24.227   7.610  50.478  1.00  0.00    -0.051 Br
HETATM   16  C16 UNL     1      25.423   5.001  50.211  1.00  0.00     0.048 A 
ENDBRANCH   8  10
ENDBRANCH   7   8
ENDBRANCH   5   7
BRANCH   4  17
HETATM   17  N2  UNL     1      28.019   0.486  53.190  1.00  0.00    -0.394 N 
HETATM   18  C8  UNL     1      28.809   0.360  54.415  1.00  0.00     0.146 C 
HETATM   19  H9  UNL     1      28.487   0.512  52.248  1.00  0.00     0.159 HD
ENDBRANCH   4  17
BRANCH   1  20
HETATM   20  N1  UNL     1      22.437   0.549  53.249  1.00  0.00    -0.327 N 
HETATM   21  C3  UNL     1      21.604  -0.619  53.282  1.00  0.00     0.221 C 
HETATM   22  O1  UNL     1      22.180  -1.721  53.342  1.00  0.00    -0.273 OA
HETATM   23  H6  UNL     1      22.232   1.586  53.201  1.00  0.00     0.169 HD
BRANCH  21  24
HETATM   24  C2  UNL     1      20.165  -0.254  53.237  1.00  0.00     0.098 C 
HETATM   25  C1  UNL     1      19.720   0.245  51.907  1.00  0.00     0.014 C 
ENDBRANCH  21  24
ENDBRANCH   1  20
TORSDOF 6
ENDMDL
MODEL 9
REMARK VINA RESULT:      -6.6      2.503      2.951
REMARK  6 active torsions:
REMARK  status: ('A' for Active; 'I' for Inactive)
REMARK    1  A    between atoms: C2_2  and  C3_3 
REMARK       I    between atoms: C3_3  and  N1_5 
REMARK    2  A    between atoms: N1_5  and  C4_6 
REMARK    3  A    between atoms: C7_9  and  N2_10 
REMARK    4  A    between atoms: C9_12  and  C10_13 
REMARK    5  A    between atoms: C10_13  and  N3_14 
REMARK    6  A    between atoms: N3_14  and  C11_15 
ROOT
HETATM    1  C4  UNL     1      24.701   0.123  53.093  1.00  0.00     0.035 A 
HETATM    2  C5  UNL     1      23.655  -0.630  53.581  1.00  0.00     0.032 A 
HETATM    3  C6  UNL     1      22.410  -0.056  53.506  1.00  0.00     0.032 A 
HETATM    4  C7  UNL     1      22.193   1.211  52.972  1.00  0.00     0.035 A 
HETATM    5  C9  UNL     1      23.264   1.957  52.484  1.00  0.00    -0.012 A 
HETATM    6  C17 UNL     1      24.514   1.379  52.560  1.00  0.00     0.040 A 
ENDROOT
BRANCH   5   7
HETATM    7  C10 UNL     1      22.816   3.258  51.969  1.00  0.00     0.160 C 
BRANCH   7   8
HETATM    8  N3  UNL     1      23.639   3.710  50.872  1.00  0.00    -0.386 N 
HETATM    9  H15 UNL     1      24.595   4.172  50.835  1.00  0.00     0.160 HD
BRANCH   8  10
HETATM   10  C11 UNL     1      23.088   3.511  49.567  1.00  0.00     0.029 A 
HETATM   11  C12 UNL     1      22.703   2.267  49.056  1.00  0.00     0.029 A 
HETATM   12  C13 UNL     1      22.177   2.082  47.806  1.00  0.00     0.004 A 
HETATM   13  C14 UNL     1      22.004   3.166  46.980  1.00  0.00     0.019 A 
HETATM   14  C15 UNL     1      22.353   4.424  47.401  1.00  0.00     0.013 A 
HETATM   15 BR1  UNL     1      22.123   5.949  46.274  1.00  0.00    -0.051 Br
HETATM   16  C16 UNL     1      22.876   4.533  48.669  1.00  0.00     0.048 A 
ENDBRANCH   8  10
ENDBRANCH   7   8
ENDBRANCH   5   7
BRANCH   4  17
HETATM   17  N2  UNL     1      20.813   1.603  52.999  1.00  0.00    -0.394 N 
HETATM   18  C8  UNL     1      19.726   0.931  52.288  1.00  0.00     0.146 C 
HETATM   19  H9  UNL     1      20.625   2.450  53.594  1.00  0.00     0.159 HD
ENDBRANCH   4  17
BRANCH   1  20
HETATM   20  N1  UNL     1      26.060  -0.303  53.084  1.00  0.00    -0.327 N 
HETATM   21  C3  UNL     1      27.003   0.096  54.089  1.00  0.00     0.221 C 
HETATM   22  O1  UNL     1      26.583   0.844  54.991  1.00  0.00    -0.273 OA
HETATM   23  H6  UNL     1      26.130  -0.915  52.225  1.00  0.00     0.169 HD
BRANCH  21  24
HETATM   24  C2  UNL     1      28.342  -0.494  53.834  1.00  0.00     0.098 C 
HETATM   25  C1  UNL     1      29.444   0.507  53.846  1.00  0.00     0.014 C 
ENDBRANCH  21  24
ENDBRANCH   1  20
TORSDOF 6
ENDMDL
