MODEL 1
REMARK VINA RESULT:      -8.3      0.000      0.000
REMARK  4 active torsions:
REMARK  status: ('A' for Active; 'I' for Inactive)
REMARK    1  A    between atoms: C11_15  and  N4_16 
REMARK    2  A    between atoms: N4_16  and  C12_17 
REMARK    3  A    between atoms: C12_17  and  C13_18 
REMARK    4  A    between atoms: C14_19  and  C15_20 
ROOT
HETATM    1  O1  UNL     1      21.791  -1.996  53.954  1.00  0.00    -0.256 OA
HETATM    2  C1  UNL     1      22.439  -1.030  53.442  1.00  0.00     0.321 C 
HETATM    3  C2  UNL     1      21.887  -0.264  52.412  1.00  0.00    -0.003 C 
HETATM    4  C3  UNL     1      21.419   0.369  51.579  1.00  0.00    -0.096 C 
HETATM    5  C4  UNL     1      20.861   1.160  50.549  1.00  0.00     0.094 C 
HETATM    6  C5  UNL     1      21.840   1.497  49.454  1.00  0.00     0.014 C 
HETATM    7  C6  UNL     1      23.076   2.188  49.865  1.00  0.00     0.034 C 
HETATM    8  C7  UNL     1      22.968   3.500  50.548  1.00  0.00     0.161 A 
HETATM    9  N1  UNL     1      21.723   4.114  50.763  1.00  0.00    -0.288 NA
HETATM   10  C8  UNL     1      21.828   4.072  52.021  1.00  0.00     0.140 A 
HETATM   11  C9  UNL     1      23.107   3.438  51.996  1.00  0.00     0.077 A 
HETATM   12  N2  UNL     1      23.770   3.103  53.081  1.00  0.00    -0.243 NA
HETATM   13  C10 UNL     1      25.041   2.446  52.925  1.00  0.00     0.235 C 
HETATM   14  N3  UNL     1      26.076   1.738  53.050  1.00  0.00    -0.225 NA
HETATM   15  C11 UNL     1      26.430   0.836  54.059  1.00  0.00     0.126 C 
HETATM   16  C16 UNL     1      25.917  -0.187  54.678  1.00  0.00     0.069 C 
HETATM   17  C17 UNL     1      24.604  -0.771  54.447  1.00  0.00     0.125 C 
HETATM   18  N5  UNL     1      23.718  -0.380  53.595  1.00  0.00    -0.215 NA
ENDROOT
BRANCH  15  19
HETATM   19  N4  UNL     1      27.731   1.305  54.379  1.00  0.00    -0.371 N 
HETATM   20  H10 UNL     1      27.781   2.338  54.166  1.00  0.00     0.161 HD
BRANCH  19  21
HETATM   21  C12 UNL     1      28.857   0.550  54.917  1.00  0.00     0.148 C 
BRANCH  21  22
HETATM   22  C13 UNL     1      29.791   0.222  53.827  1.00  0.00    -0.009 C 
HETATM   23  C14 UNL     1      29.792  -0.885  53.107  1.00  0.00     0.002 C 
BRANCH  23  24
HETATM   24  C15 UNL     1      28.890  -2.052  53.195  1.00  0.00     0.249 C 
HETATM   25  F1  UNL     1      29.608  -3.067  53.833  1.00  0.00    -0.251 F 
ENDBRANCH  23  24
ENDBRANCH  21  22
ENDBRANCH  19  21
ENDBRANCH  15  19
TORSDOF 4
ENDMDL
MODEL 2
REMARK VINA RESULT:      -7.7      1.514      2.127
REMARK  4 active torsions:
REMARK  status: ('A' for Active; 'I' for Inactive)
REMARK    1  A    between atoms: C11_15  and  N4_16 
REMARK    2  A    between atoms: N4_16  and  C12_17 
REMARK    3  A    between atoms: C12_17  and  C13_18 
REMARK    4  A    between atoms: C14_19  and  C15_20 
ROOT
HETATM    1  O1  UNL     1      18.694  -1.006  53.416  1.00  0.00    -0.256 OA
HETATM    2  C1  UNL     1      19.768  -0.503  52.958  1.00  0.00     0.321 C 
HETATM    3  C2  UNL     1      19.753   0.291  51.809  1.00  0.00    -0.003 C 
HETATM    4  C3  UNL     1      19.729   0.956  50.874  1.00  0.00    -0.096 C 
HETATM    5  C4  UNL     1      19.720   1.774  49.723  1.00  0.00     0.094 C 
HETATM    6  C5  UNL     1      20.865   1.499  48.783  1.00  0.00     0.014 C 
HETATM    7  C6  UNL     1      22.223   1.612  49.346  1.00  0.00     0.034 C 
HETATM    8  C7  UNL     1      22.650   2.910  49.922  1.00  0.00     0.161 A 
HETATM    9  N1  UNL     1      21.811   4.036  49.897  1.00  0.00    -0.288 NA
HETATM   10  C8  UNL     1      21.737   4.112  51.155  1.00  0.00     0.140 A 
HETATM   11  C9  UNL     1      22.576   2.977  51.375  1.00  0.00     0.077 A 
HETATM   12  N2  UNL     1      22.880   2.522  52.571  1.00  0.00    -0.243 NA
HETATM   13  C10 UNL     1      23.715   1.354  52.662  1.00  0.00     0.235 C 
HETATM   14  N3  UNL     1      24.287   0.281  52.994  1.00  0.00    -0.225 NA
HETATM   15  C11 UNL     1      24.067  -0.548  54.099  1.00  0.00     0.126 C 
HETATM   16  C16 UNL     1      23.073  -1.148  54.687  1.00  0.00     0.069 C 
HETATM   17  C17 UNL     1      21.675  -1.110  54.282  1.00  0.00     0.125 C 
HETATM   18  N5  UNL     1      21.174  -0.476  53.276  1.00  0.00    -0.215 NA
ENDROOT
BRANCH  15  19
HETATM   19  N4  UNL     1      25.390  -0.671  54.596  1.00  0.00    -0.371 N 
HETATM   20  H10 UNL     1      25.347  -0.899  55.626  1.00  0.00     0.161 HD
BRANCH  19  21
HETATM   21  C12 UNL     1      26.646  -0.526  53.869  1.00  0.00     0.148 C 
BRANCH  21  22
HETATM   22  C13 UNL     1      27.612   0.208  54.704  1.00  0.00    -0.009 C 
HETATM   23  C14 UNL     1      28.922   0.234  54.541  1.00  0.00     0.002 C 
BRANCH  23  24
HETATM   24  C15 UNL     1      29.746  -0.439  53.515  1.00  0.00     0.249 C 
HETATM   25  F1  UNL     1      29.740  -1.801  53.827  1.00  0.00    -0.251 F 
ENDBRANCH  23  24
ENDBRANCH  21  22
ENDBRANCH  19  21
ENDBRANCH  15  19
TORSDOF 4
ENDMDL
MODEL 3
REMARK VINA RESULT:      -7.3      3.931      6.165
REMARK  4 active torsions:
REMARK  status: ('A' for Active; 'I' for Inactive)
REMARK    1  A    between atoms: C11_15  and  N4_16 
REMARK    2  A    between atoms: N4_16  and  C12_17 
REMARK    3  A    between atoms: C12_17  and  C13_18 
REMARK    4  A    between atoms: C14_19  and  C15_20 
ROOT
HETATM    1  O1  UNL     1      21.202   0.836  51.307  1.00  0.00    -0.256 OA
HETATM    2  C1  UNL     1      22.420   1.061  51.593  1.00  0.00     0.321 C 
HETATM    3  C2  UNL     1      23.078   0.307  52.567  1.00  0.00    -0.003 C 
HETATM    4  C3  UNL     1      23.615  -0.329  53.356  1.00  0.00    -0.096 C 
HETATM    5  C4  UNL     1      24.293  -1.098  54.327  1.00  0.00     0.094 C 
HETATM    6  C5  UNL     1      25.179  -0.280  55.231  1.00  0.00     0.014 C 
HETATM    7  C6  UNL     1      26.214   0.539  54.574  1.00  0.00     0.034 C 
HETATM    8  C7  UNL     1      27.232  -0.136  53.734  1.00  0.00     0.161 A 
HETATM    9  N1  UNL     1      27.258  -1.534  53.594  1.00  0.00    -0.288 NA
HETATM   10  C8  UNL     1      27.036  -1.496  52.352  1.00  0.00     0.140 A 
HETATM   11  C9  UNL     1      26.971  -0.070  52.303  1.00  0.00     0.077 A 
HETATM   12  N2  UNL     1      26.735   0.605  51.199  1.00  0.00    -0.243 NA
HETATM   13  C10 UNL     1      26.669   2.041  51.283  1.00  0.00     0.235 C 
HETATM   14  N3  UNL     1      26.416   3.265  51.128  1.00  0.00    -0.225 NA
HETATM   15  C11 UNL     1      25.560   3.897  50.218  1.00  0.00     0.126 C 
HETATM   16  C16 UNL     1      24.324   3.810  49.819  1.00  0.00     0.069 C 
HETATM   17  C17 UNL     1      23.323   2.867  50.294  1.00  0.00     0.125 C 
HETATM   18  N5  UNL     1      23.481   1.950  51.189  1.00  0.00    -0.215 NA
ENDROOT
BRANCH  15  19
HETATM   19  N4  UNL     1      26.437   4.870  49.673  1.00  0.00    -0.371 N 
HETATM   20  H10 UNL     1      26.170   5.818  50.053  1.00  0.00     0.161 HD
BRANCH  19  21
HETATM   21  C12 UNL     1      27.544   4.671  48.745  1.00  0.00     0.148 C 
BRANCH  21  22
HETATM   22  C13 UNL     1      27.960   5.972  48.195  1.00  0.00    -0.009 C 
HETATM   23  C14 UNL     1      29.202   6.396  48.052  1.00  0.00     0.002 C 
BRANCH  23  24
HETATM   24  C15 UNL     1      30.465   5.707  48.388  1.00  0.00     0.249 C 
HETATM   25  F1  UNL     1      30.597   4.648  47.485  1.00  0.00    -0.251 F 
ENDBRANCH  23  24
ENDBRANCH  21  22
ENDBRANCH  19  21
ENDBRANCH  15  19
TORSDOF 4
ENDMDL
MODEL 4
REMARK VINA RESULT:      -7.2      4.430      7.202
REMARK  4 active torsions:
REMARK  status: ('A' for Active; 'I' for Inactive)
REMARK    1  A    between atoms: C11_15  and  N4_16 
REMARK    2  A    between atoms: N4_16  and  C12_17 
REMARK    3  A    between atoms: C12_17  and  C13_18 
REMARK    4  A    between atoms: C14_19  and  C15_20 
ROOT
HETATM    1  O1  UNL     1      25.326  -0.774  53.696  1.00  0.00    -0.256 OA
HETATM    2  C1  UNL     1      24.280  -0.193  53.267  1.00  0.00     0.321 C 
HETATM    3  C2  UNL     1      24.372   0.929  52.440  1.00  0.00    -0.003 C 
HETATM    4  C3  UNL     1      24.458   1.839  51.747  1.00  0.00    -0.096 C 
HETATM    5  C4  UNL     1      24.542   2.962  50.895  1.00  0.00     0.094 C 
HETATM    6  C5  UNL     1      23.552   4.047  51.233  1.00  0.00     0.014 C 
HETATM    7  C6  UNL     1      22.129   3.660  51.246  1.00  0.00     0.034 C 
HETATM    8  C7  UNL     1      21.526   3.116  50.005  1.00  0.00     0.161 A 
HETATM    9  N1  UNL     1      22.264   3.011  48.815  1.00  0.00    -0.288 NA
HETATM   10  C8  UNL     1      22.173   1.752  48.772  1.00  0.00     0.140 A 
HETATM   11  C9  UNL     1      21.411   1.665  49.978  1.00  0.00     0.077 A 
HETATM   12  N2  UNL     1      20.999   0.526  50.492  1.00  0.00    -0.243 NA
HETATM   13  C10 UNL     1      20.260   0.567  51.726  1.00  0.00     0.235 C 
HETATM   14  N3  UNL     1      19.742   0.332  52.850  1.00  0.00    -0.225 NA
HETATM   15  C11 UNL     1      19.890  -0.775  53.694  1.00  0.00     0.126 C 
HETATM   16  C16 UNL     1      20.849  -1.472  54.229  1.00  0.00     0.069 C 
HETATM   17  C17 UNL     1      22.279  -1.250  54.066  1.00  0.00     0.125 C 
HETATM   18  N5  UNL     1      22.847  -0.330  53.364  1.00  0.00    -0.215 NA
ENDROOT
BRANCH  15  19
HETATM   19  N4  UNL     1      18.530  -1.096  53.938  1.00  0.00    -0.371 N 
HETATM   20  H10 UNL     1      18.217  -0.604  54.817  1.00  0.00     0.161 HD
BRANCH  19  21
HETATM   21  C12 UNL     1      17.648  -1.951  53.151  1.00  0.00     0.148 C 
BRANCH  21  22
HETATM   22  C13 UNL     1      17.642  -3.307  53.725  1.00  0.00    -0.009 C 
HETATM   23  C14 UNL     1      16.747  -4.249  53.491  1.00  0.00     0.002 C 
BRANCH  23  24
HETATM   24  C15 UNL     1      15.553  -4.203  52.622  1.00  0.00     0.249 C 
HETATM   25  F1  UNL     1      15.096  -5.518  52.497  1.00  0.00    -0.251 F 
ENDBRANCH  23  24
ENDBRANCH  21  22
ENDBRANCH  19  21
ENDBRANCH  15  19
TORSDOF 4
ENDMDL
MODEL 5
REMARK VINA RESULT:      -7.2      3.729      4.881
REMARK  4 active torsions:
REMARK  status: ('A' for Active; 'I' for Inactive)
REMARK    1  A    between atoms: C11_15  and  N4_16 
REMARK    2  A    between atoms: N4_16  and  C12_17 
REMARK    3  A    between atoms: C12_17  and  C13_18 
REMARK    4  A    between atoms: C14_19  and  C15_20 
ROOT
HETATM    1  O1  UNL     1      24.292  -0.869  54.616  1.00  0.00    -0.256 OA
HETATM    2  C1  UNL     1      23.984  -0.080  53.668  1.00  0.00     0.321 C 
HETATM    3  C2  UNL     1      22.671  -0.002  53.200  1.00  0.00    -0.003 C 
HETATM    4  C3  UNL     1      21.586   0.068  52.834  1.00  0.00    -0.096 C 
HETATM    5  C4  UNL     1      20.257   0.167  52.366  1.00  0.00     0.094 C 
HETATM    6  C5  UNL     1      20.153   0.251  50.866  1.00  0.00     0.014 C 
HETATM    7  C6  UNL     1      20.890   1.350  50.214  1.00  0.00     0.034 C 
HETATM    8  C7  UNL     1      20.564   2.747  50.588  1.00  0.00     0.161 A 
HETATM    9  N1  UNL     1      19.543   3.042  51.506  1.00  0.00    -0.288 NA
HETATM   10  C8  UNL     1      20.331   3.569  52.340  1.00  0.00     0.140 A 
HETATM   11  C9  UNL     1      21.492   3.347  51.537  1.00  0.00     0.077 A 
HETATM   12  N2  UNL     1      22.705   3.695  51.907  1.00  0.00    -0.243 NA
HETATM   13  C10 UNL     1      23.798   3.395  51.021  1.00  0.00     0.235 C 
HETATM   14  N3  UNL     1      24.910   3.109  50.503  1.00  0.00    -0.225 NA
HETATM   15  C11 UNL     1      26.144   2.851  51.112  1.00  0.00     0.126 C 
HETATM   16  C16 UNL     1      26.629   2.094  52.052  1.00  0.00     0.069 C 
HETATM   17  C17 UNL     1      25.889   1.144  52.869  1.00  0.00     0.125 C 
HETATM   18  N5  UNL     1      24.626   0.886  52.810  1.00  0.00    -0.215 NA
ENDROOT
BRANCH  15  19
HETATM   19  N4  UNL     1      26.980   3.736  50.383  1.00  0.00    -0.371 N 
HETATM   20  H10 UNL     1      27.910   3.811  50.878  1.00  0.00     0.161 HD
BRANCH  19  21
HETATM   21  C12 UNL     1      26.678   4.456  49.150  1.00  0.00     0.148 C 
BRANCH  21  22
HETATM   22  C13 UNL     1      27.927   4.981  48.574  1.00  0.00    -0.009 C 
HETATM   23  C14 UNL     1      28.152   6.229  48.206  1.00  0.00     0.002 C 
BRANCH  23  24
HETATM   24  C15 UNL     1      27.247   7.396  48.272  1.00  0.00     0.249 C 
HETATM   25  F1  UNL     1      27.413   7.960  49.540  1.00  0.00    -0.251 F 
ENDBRANCH  23  24
ENDBRANCH  21  22
ENDBRANCH  19  21
ENDBRANCH  15  19
TORSDOF 4
ENDMDL
MODEL 6
REMARK VINA RESULT:      -7.2      3.157      4.232
REMARK  4 active torsions:
REMARK  status: ('A' for Active; 'I' for Inactive)
REMARK    1  A    between atoms: C11_15  and  N4_16 
REMARK    2  A    between atoms: N4_16  and  C12_17 
REMARK    3  A    between atoms: C12_17  and  C13_18 
REMARK    4  A    between atoms: C14_19  and  C15_20 
ROOT
HETATM    1  O1  UNL     1      22.650  -1.774  55.703  1.00  0.00    -0.256 OA
HETATM    2  C1  UNL     1      22.582  -1.060  54.654  1.00  0.00     0.321 C 
HETATM    3  C2  UNL     1      21.348  -0.754  54.076  1.00  0.00    -0.003 C 
HETATM    4  C3  UNL     1      20.329  -0.493  53.617  1.00  0.00    -0.096 C 
HETATM    5  C4  UNL     1      19.085  -0.164  53.036  1.00  0.00     0.094 C 
HETATM    6  C5  UNL     1      19.084  -0.245  51.532  1.00  0.00     0.014 C 
HETATM    7  C6  UNL     1      20.086   0.576  50.827  1.00  0.00     0.034 C 
HETATM    8  C7  UNL     1      20.067   2.046  51.020  1.00  0.00     0.161 A 
HETATM    9  N1  UNL     1      19.092   2.669  51.816  1.00  0.00    -0.288 NA
HETATM   10  C8  UNL     1      19.933   3.109  52.648  1.00  0.00     0.140 A 
HETATM   11  C9  UNL     1      21.054   2.540  51.970  1.00  0.00     0.077 A 
HETATM   12  N2  UNL     1      22.293   2.656  52.397  1.00  0.00    -0.243 NA
HETATM   13  C10 UNL     1      23.335   2.016  51.639  1.00  0.00     0.235 C 
HETATM   14  N3  UNL     1      24.380   1.430  51.247  1.00  0.00    -0.225 NA
HETATM   15  C11 UNL     1      25.487   0.985  51.977  1.00  0.00     0.126 C 
HETATM   16  C16 UNL     1      25.736   0.262  53.030  1.00  0.00     0.069 C 
HETATM   17  C17 UNL     1      24.755  -0.394  53.883  1.00  0.00     0.125 C 
HETATM   18  N5  UNL     1      23.472  -0.373  53.750  1.00  0.00    -0.215 NA
ENDROOT
BRANCH  15  19
HETATM   19  N4  UNL     1      26.541   1.568  51.227  1.00  0.00    -0.371 N 
HETATM   20  H10 UNL     1      27.075   0.800  50.737  1.00  0.00     0.161 HD
BRANCH  19  21
HETATM   21  C12 UNL     1      26.889   2.979  51.102  1.00  0.00     0.148 C 
BRANCH  21  22
HETATM   22  C13 UNL     1      26.604   3.433  49.730  1.00  0.00    -0.009 C 
HETATM   23  C14 UNL     1      25.725   4.354  49.380  1.00  0.00     0.002 C 
BRANCH  23  24
HETATM   24  C15 UNL     1      24.823   5.152  50.235  1.00  0.00     0.249 C 
HETATM   25  F1  UNL     1      23.518   4.827  49.855  1.00  0.00    -0.251 F 
ENDBRANCH  23  24
ENDBRANCH  21  22
ENDBRANCH  19  21
ENDBRANCH  15  19
TORSDOF 4
ENDMDL
MODEL 7
REMARK VINA RESULT:      -7.0      3.697      6.788
REMARK  4 active torsions:
REMARK  status: ('A' for Active; 'I' for Inactive)
REMARK    1  A    between atoms: C11_15  and  N4_16 
REMARK    2  A    between atoms: N4_16  and  C12_17 
REMARK    3  A    between atoms: C12_17  and  C13_18 
REMARK    4  A    between atoms: C14_19  and  C15_20 
ROOT
HETATM    1  O1  UNL     1      21.339   0.485  51.877  1.00  0.00    -0.256 OA
HETATM    2  C1  UNL     1      22.554   0.813  52.056  1.00  0.00     0.321 C 
HETATM    3  C2  UNL     1      23.340   0.157  53.005  1.00  0.00    -0.003 C 
HETATM    4  C3  UNL     1      23.984  -0.399  53.776  1.00  0.00    -0.096 C 
HETATM    5  C4  UNL     1      24.791  -1.069  54.721  1.00  0.00     0.094 C 
HETATM    6  C5  UNL     1      25.676  -0.146  55.517  1.00  0.00     0.014 C 
HETATM    7  C6  UNL     1      26.592   0.716  54.746  1.00  0.00     0.034 C 
HETATM    8  C7  UNL     1      27.593   0.078  53.857  1.00  0.00     0.161 A 
HETATM    9  N1  UNL     1      27.716  -1.319  53.774  1.00  0.00    -0.288 NA
HETATM   10  C8  UNL     1      27.398  -1.357  52.553  1.00  0.00     0.140 A 
HETATM   11  C9  UNL     1      27.220   0.056  52.450  1.00  0.00     0.077 A 
HETATM   12  N2  UNL     1      26.850   0.659  51.341  1.00  0.00    -0.243 NA
HETATM   13  C10 UNL     1      26.679   2.088  51.370  1.00  0.00     0.235 C 
HETATM   14  N3  UNL     1      26.321   3.282  51.185  1.00  0.00    -0.225 NA
HETATM   15  C11 UNL     1      25.352   3.804  50.320  1.00  0.00     0.126 C 
HETATM   16  C16 UNL     1      24.100   3.608  50.024  1.00  0.00     0.069 C 
HETATM   17  C17 UNL     1      23.214   2.617  50.616  1.00  0.00     0.125 C 
HETATM   18  N5  UNL     1      23.510   1.758  51.532  1.00  0.00    -0.215 NA
ENDROOT
BRANCH  15  19
HETATM   19  N4  UNL     1      26.107   4.813  49.667  1.00  0.00    -0.371 N 
HETATM   20  H10 UNL     1      27.099   4.471  49.547  1.00  0.00     0.161 HD
BRANCH  19  21
HETATM   21  C12 UNL     1      25.659   6.123  49.207  1.00  0.00     0.148 C 
BRANCH  21  22
HETATM   22  C13 UNL     1      25.412   6.990  50.370  1.00  0.00    -0.009 C 
HETATM   23  C14 UNL     1      24.245   7.487  50.739  1.00  0.00     0.002 C 
BRANCH  23  24
HETATM   24  C15 UNL     1      22.920   7.313  50.110  1.00  0.00     0.249 C 
HETATM   25  F1  UNL     1      21.968   7.609  51.090  1.00  0.00    -0.251 F 
ENDBRANCH  23  24
ENDBRANCH  21  22
ENDBRANCH  19  21
ENDBRANCH  15  19
TORSDOF 4
ENDMDL
MODEL 8
REMARK VINA RESULT:      -7.0      3.080      4.671
REMARK  4 active torsions:
REMARK  status: ('A' for Active; 'I' for Inactive)
REMARK    1  A    between atoms: C11_15  and  N4_16 
REMARK    2  A    between atoms: N4_16  and  C12_17 
REMARK    3  A    between atoms: C12_17  and  C13_18 
REMARK    4  A    between atoms: C14_19  and  C15_20 
ROOT
HETATM    1  O1  UNL     1      27.332   4.693  48.617  1.00  0.00    -0.256 OA
HETATM    2  C1  UNL     1      26.315   4.470  49.345  1.00  0.00     0.321 C 
HETATM    3  C2  UNL     1      25.188   5.291  49.271  1.00  0.00    -0.003 C 
HETATM    4  C3  UNL     1      24.260   5.960  49.192  1.00  0.00    -0.096 C 
HETATM    5  C4  UNL     1      23.109   6.775  49.111  1.00  0.00     0.094 C 
HETATM    6  C5  UNL     1      22.504   7.096  50.453  1.00  0.00     0.014 C 
HETATM    7  C6  UNL     1      22.125   5.947  51.297  1.00  0.00     0.034 C 
HETATM    8  C7  UNL     1      21.131   4.977  50.776  1.00  0.00     0.161 A 
HETATM    9  N1  UNL     1      20.515   5.157  49.527  1.00  0.00    -0.288 NA
HETATM   10  C8  UNL     1      21.005   4.100  49.040  1.00  0.00     0.140 A 
HETATM   11  C9  UNL     1      21.711   3.756  50.234  1.00  0.00     0.077 A 
HETATM   12  N2  UNL     1      22.467   2.686  50.344  1.00  0.00    -0.243 NA
HETATM   13  C10 UNL     1      23.148   2.461  51.592  1.00  0.00     0.235 C 
HETATM   14  N3  UNL     1      23.950   2.133  52.507  1.00  0.00    -0.225 NA
HETATM   15  C11 UNL     1      25.179   1.469  52.427  1.00  0.00     0.126 C 
HETATM   16  C16 UNL     1      26.300   1.564  51.772  1.00  0.00     0.069 C 
HETATM   17  C17 UNL     1      26.636   2.563  50.769  1.00  0.00     0.125 C 
HETATM   18  N5  UNL     1      25.887   3.526  50.349  1.00  0.00    -0.215 NA
ENDROOT
BRANCH  15  19
HETATM   19  N4  UNL     1      24.980   0.443  53.387  1.00  0.00    -0.371 N 
HETATM   20  H10 UNL     1      23.968   0.451  53.687  1.00  0.00     0.161 HD
BRANCH  19  21
HETATM   21  C12 UNL     1      25.957  -0.501  53.917  1.00  0.00     0.148 C 
BRANCH  21  22
HETATM   22  C13 UNL     1      26.832   0.189  54.879  1.00  0.00    -0.009 C 
HETATM   23  C14 UNL     1      28.152   0.178  54.880  1.00  0.00     0.002 C 
BRANCH  23  24
HETATM   24  C15 UNL     1      29.077  -0.501  53.949  1.00  0.00     0.249 C 
HETATM   25  F1  UNL     1      29.741   0.503  53.238  1.00  0.00    -0.251 F 
ENDBRANCH  23  24
ENDBRANCH  21  22
ENDBRANCH  19  21
ENDBRANCH  15  19
TORSDOF 4
ENDMDL
MODEL 9
REMARK VINA RESULT:      -7.0      2.904      6.160
REMARK  4 active torsions:
REMARK  status: ('A' for Active; 'I' for Inactive)
REMARK    1  A    between atoms: C11_15  and  N4_16 
REMARK    2  A    between atoms: N4_16  and  C12_17 
REMARK    3  A    between atoms: C12_17  and  C13_18 
REMARK    4  A    between atoms: C14_19  and  C15_20 
ROOT
HETATM    1  O1  UNL     1      20.740  -0.615  53.351  1.00  0.00    -0.256 OA
HETATM    2  C1  UNL     1      21.700   0.213  53.273  1.00  0.00     0.321 C 
HETATM    3  C2  UNL     1      23.001  -0.164  53.615  1.00  0.00    -0.003 C 
HETATM    4  C3  UNL     1      24.068  -0.487  53.882  1.00  0.00    -0.096 C 
HETATM    5  C4  UNL     1      25.389  -0.865  54.209  1.00  0.00     0.094 C 
HETATM    6  C5  UNL     1      26.135   0.180  54.998  1.00  0.00     0.014 C 
HETATM    7  C6  UNL     1      26.241   1.517  54.385  1.00  0.00     0.034 C 
HETATM    8  C7  UNL     1      26.904   1.648  53.065  1.00  0.00     0.161 A 
HETATM    9  N1  UNL     1      27.472   0.538  52.417  1.00  0.00    -0.288 NA
HETATM   10  C8  UNL     1      26.688   0.610  51.430  1.00  0.00     0.140 A 
HETATM   11  C9  UNL     1      25.987   1.746  51.939  1.00  0.00     0.077 A 
HETATM   12  N2  UNL     1      24.978   2.312  51.314  1.00  0.00    -0.243 NA
HETATM   13  C10 UNL     1      24.336   3.438  51.941  1.00  0.00     0.235 C 
HETATM   14  N3  UNL     1      23.530   4.317  52.347  1.00  0.00    -0.225 NA
HETATM   15  C11 UNL     1      22.165   4.474  52.081  1.00  0.00     0.126 C 
HETATM   16  C16 UNL     1      21.075   3.764  52.118  1.00  0.00     0.069 C 
HETATM   17  C17 UNL     1      20.962   2.369  52.515  1.00  0.00     0.125 C 
HETATM   18  N5  UNL     1      21.917   1.589  52.897  1.00  0.00    -0.215 NA
ENDROOT
BRANCH  15  19
HETATM   19  N4  UNL     1      22.136   5.834  51.676  1.00  0.00    -0.371 N 
HETATM   20  H10 UNL     1      21.237   6.271  52.014  1.00  0.00     0.161 HD
BRANCH  19  21
HETATM   21  C12 UNL     1      23.143   6.574  50.922  1.00  0.00     0.148 C 
BRANCH  21  22
HETATM   22  C13 UNL     1      23.112   6.145  49.514  1.00  0.00    -0.009 C 
HETATM   23  C14 UNL     1      24.141   5.717  48.807  1.00  0.00     0.002 C 
BRANCH  23  24
HETATM   24  C15 UNL     1      25.551   5.555  49.219  1.00  0.00     0.249 C 
HETATM   25  F1  UNL     1      25.902   4.232  48.938  1.00  0.00    -0.251 F 
ENDBRANCH  23  24
ENDBRANCH  21  22
ENDBRANCH  19  21
ENDBRANCH  15  19
TORSDOF 4
ENDMDL
