MODEL 1
REMARK VINA RESULT:      -7.8      0.000      0.000
REMARK  5 active torsions:
REMARK  status: ('A' for Active; 'I' for Inactive)
REMARK    1  A    between atoms: C1_2  and  N1_3 
REMARK    2  A    between atoms: C2_4  and  C3_5 
REMARK    3  A    between atoms: C6_8  and  O2_9 
REMARK    4  A    between atoms: O2_9  and  C7_10 
REMARK    5  A    between atoms: C7_10  and  C8_11 
ROOT
HETATM    1  C3  UNL     1      26.695   0.447  53.065  1.00  0.00    -0.040 C 
HETATM    2  C4  UNL     1      27.163   1.506  52.428  1.00  0.00     0.011 C 
HETATM    3  C5  UNL     1      26.658   2.262  51.287  1.00  0.00     0.037 C 
HETATM    4  C6  UNL     1      25.416   2.415  50.794  1.00  0.00     0.068 C 
HETATM    5  C14 UNL     1      24.088   1.900  51.190  1.00  0.00     0.033 C 
HETATM    6  C15 UNL     1      23.668   1.091  52.177  1.00  0.00    -0.024 C 
HETATM    7  C16 UNL     1      24.237   0.325  53.323  1.00  0.00     0.032 C 
HETATM    8  C17 UNL     1      25.495  -0.418  52.915  1.00  0.00     0.043 C 
ENDROOT
BRANCH   4   9
HETATM    9  O2  UNL     1      25.378   3.222  49.690  1.00  0.00    -0.347 OA
BRANCH   9  10
HETATM   10  C7  UNL     1      25.069   4.595  49.674  1.00  0.00     0.214 C 
BRANCH  10  11
HETATM   11  C8  UNL     1      26.254   5.268  49.035  1.00  0.00    -0.034 A 
HETATM   12  C9  UNL     1      25.994   6.583  48.635  1.00  0.00     0.009 A 
HETATM   13  C10 UNL     1      27.003   7.309  48.034  1.00  0.00     0.001 A 
HETATM   14  C11 UNL     1      28.236   6.711  47.850  1.00  0.00     0.000 A 
HETATM   15  C12 UNL     1      28.474   5.413  48.251  1.00  0.00     0.001 A 
HETATM   16  C13 UNL     1      27.477   4.657  48.858  1.00  0.00     0.009 A 
ENDBRANCH  10  11
ENDBRANCH   9  10
ENDBRANCH   4   9
BRANCH   1  17
HETATM   17  C2  UNL     1      27.554   0.055  54.146  1.00  0.00     0.126 C 
HETATM   18  N1  UNL     1      28.640  -0.521  54.441  1.00  0.00    -0.234 NA
BRANCH  18  19
HETATM   19  C1  UNL     1      29.581  -1.103  53.581  1.00  0.00     0.376 C 
HETATM   20  O1  UNL     1      28.925  -2.177  53.535  1.00  0.00    -0.281 OA
ENDBRANCH  18  19
ENDBRANCH   1  17
TORSDOF 5
ENDMDL
MODEL 2
REMARK VINA RESULT:      -7.8      1.631      1.803
REMARK  5 active torsions:
REMARK  status: ('A' for Active; 'I' for Inactive)
REMARK    1  A    between atoms: C1_2  and  N1_3 
REMARK    2  A    between atoms: C2_4  and  C3_5 
REMARK    3  A    between atoms: C6_8  and  O2_9 
REMARK    4  A    between atoms: O2_9  and  C7_10 
REMARK    5  A    between atoms: C7_10  and  C8_11 
ROOT
HETATM    1  C3  UNL     1      25.687   0.613  53.871  1.00  0.00    -0.040 C 
HETATM    2  C4  UNL     1      25.723   1.916  53.655  1.00  0.00     0.011 C 
HETATM    3  C5  UNL     1      25.055   2.762  52.672  1.00  0.00     0.037 C 
HETATM    4  C6  UNL     1      23.914   2.598  51.978  1.00  0.00     0.068 C 
HETATM    5  C14 UNL     1      22.895   1.529  51.924  1.00  0.00     0.033 C 
HETATM    6  C15 UNL     1      22.764   0.345  52.546  1.00  0.00    -0.024 C 
HETATM    7  C16 UNL     1      23.493  -0.487  53.545  1.00  0.00     0.032 C 
HETATM    8  C17 UNL     1      24.979  -0.533  53.240  1.00  0.00     0.043 C 
ENDROOT
BRANCH   4   9
HETATM    9  O2  UNL     1      23.643   3.649  51.145  1.00  0.00    -0.347 OA
BRANCH   9  10
HETATM   10  C7  UNL     1      23.670   3.624  49.738  1.00  0.00     0.214 C 
BRANCH  10  11
HETATM   11  C8  UNL     1      24.955   4.306  49.348  1.00  0.00    -0.034 A 
HETATM   12  C9  UNL     1      24.776   5.632  48.943  1.00  0.00     0.009 A 
HETATM   13  C10 UNL     1      25.880   6.367  48.559  1.00  0.00     0.001 A 
HETATM   14  C11 UNL     1      27.125   5.766  48.589  1.00  0.00     0.000 A 
HETATM   15  C12 UNL     1      27.282   4.455  48.991  1.00  0.00     0.001 A 
HETATM   16  C13 UNL     1      26.188   3.691  49.382  1.00  0.00     0.009 A 
ENDBRANCH  10  11
ENDBRANCH   9  10
ENDBRANCH   4   9
BRANCH   1  17
HETATM   17  C2  UNL     1      26.527   0.233  54.971  1.00  0.00     0.126 C 
HETATM   18  N1  UNL     1      27.723   0.047  55.336  1.00  0.00    -0.234 NA
BRANCH  18  19
HETATM   19  C1  UNL     1      28.897   0.191  54.586  1.00  0.00     0.376 C 
HETATM   20  O1  UNL     1      29.041   1.380  54.976  1.00  0.00    -0.281 OA
ENDBRANCH  18  19
ENDBRANCH   1  17
TORSDOF 5
ENDMDL
MODEL 3
REMARK VINA RESULT:      -7.7      2.483      3.720
REMARK  5 active torsions:
REMARK  status: ('A' for Active; 'I' for Inactive)
REMARK    1  A    between atoms: C1_2  and  N1_3 
REMARK    2  A    between atoms: C2_4  and  C3_5 
REMARK    3  A    between atoms: C6_8  and  O2_9 
REMARK    4  A    between atoms: O2_9  and  C7_10 
REMARK    5  A    between atoms: C7_10  and  C8_11 
ROOT
HETATM    1  C3  UNL     1      23.602   0.447  52.605  1.00  0.00    -0.040 C 
HETATM    2  C4  UNL     1      23.439   1.351  51.653  1.00  0.00     0.011 C 
HETATM    3  C5  UNL     1      24.318   2.393  51.136  1.00  0.00     0.037 C 
HETATM    4  C6  UNL     1      25.659   2.513  51.131  1.00  0.00     0.068 C 
HETATM    5  C14 UNL     1      26.763   1.666  51.630  1.00  0.00     0.033 C 
HETATM    6  C15 UNL     1      26.805   0.486  52.272  1.00  0.00    -0.024 C 
HETATM    7  C16 UNL     1      25.862  -0.543  52.795  1.00  0.00     0.032 C 
HETATM    8  C17 UNL     1      24.705   0.099  53.538  1.00  0.00     0.043 C 
ENDROOT
BRANCH   4   9
HETATM    9  O2  UNL     1      26.087   3.667  50.534  1.00  0.00    -0.347 OA
BRANCH   9  10
HETATM   10  C7  UNL     1      25.383   4.416  49.573  1.00  0.00     0.214 C 
BRANCH  10  11
HETATM   11  C8  UNL     1      26.407   5.317  48.934  1.00  0.00    -0.034 A 
HETATM   12  C9  UNL     1      27.661   4.713  48.792  1.00  0.00     0.009 A 
HETATM   13  C10 UNL     1      28.688   5.436  48.219  1.00  0.00     0.001 A 
HETATM   14  C11 UNL     1      28.440   6.733  47.804  1.00  0.00     0.000 A 
HETATM   15  C12 UNL     1      27.197   7.311  47.954  1.00  0.00     0.001 A 
HETATM   16  C13 UNL     1      26.144   6.607  48.528  1.00  0.00     0.009 A 
ENDBRANCH  10  11
ENDBRANCH   9  10
ENDBRANCH   4   9
BRANCH   1  17
HETATM   17  C2  UNL     1      22.438  -0.378  52.759  1.00  0.00     0.126 C 
HETATM   18  N1  UNL     1      21.573  -0.794  53.582  1.00  0.00    -0.234 NA
BRANCH  18  19
HETATM   19  C1  UNL     1      21.456  -0.502  54.947  1.00  0.00     0.376 C 
HETATM   20  O1  UNL     1      21.974  -1.606  55.263  1.00  0.00    -0.281 OA
ENDBRANCH  18  19
ENDBRANCH   1  17
TORSDOF 5
ENDMDL
MODEL 4
REMARK VINA RESULT:      -7.5      3.491      6.707
REMARK  5 active torsions:
REMARK  status: ('A' for Active; 'I' for Inactive)
REMARK    1  A    between atoms: C1_2  and  N1_3 
REMARK    2  A    between atoms: C2_4  and  C3_5 
REMARK    3  A    between atoms: C6_8  and  O2_9 
REMARK    4  A    between atoms: O2_9  and  C7_10 
REMARK    5  A    between atoms: C7_10  and  C8_11 
ROOT
HETATM    1  C3  UNL     1      26.488   0.499  54.262  1.00  0.00    -0.040 C 
HETATM    2  C4  UNL     1      25.578  -0.460  54.268  1.00  0.00     0.011 C 
HETATM    3  C5  UNL     1      24.206  -0.507  53.776  1.00  0.00     0.037 C 
HETATM    4  C6  UNL     1      23.573   0.198  52.820  1.00  0.00     0.068 C 
HETATM    5  C14 UNL     1      23.990   1.277  51.900  1.00  0.00     0.033 C 
HETATM    6  C15 UNL     1      25.147   1.933  51.710  1.00  0.00    -0.024 C 
HETATM    7  C16 UNL     1      26.533   1.950  52.258  1.00  0.00     0.032 C 
HETATM    8  C17 UNL     1      26.524   1.903  53.775  1.00  0.00     0.043 C 
ENDROOT
BRANCH   4   9
HETATM    9  O2  UNL     1      22.263  -0.167  52.671  1.00  0.00    -0.347 OA
BRANCH   9  10
HETATM   10  C7  UNL     1      21.234   0.023  53.613  1.00  0.00     0.214 C 
BRANCH  10  11
HETATM   11  C8  UNL     1      19.949  -0.134  52.844  1.00  0.00    -0.034 A 
HETATM   12  C9  UNL     1      19.951   0.545  51.622  1.00  0.00     0.009 A 
HETATM   13  C10 UNL     1      18.828   0.479  50.821  1.00  0.00     0.001 A 
HETATM   14  C11 UNL     1      17.741  -0.258  51.256  1.00  0.00     0.000 A 
HETATM   15  C12 UNL     1      17.758  -0.921  52.466  1.00  0.00     0.001 A 
HETATM   16  C13 UNL     1      18.875  -0.872  53.293  1.00  0.00     0.009 A 
ENDBRANCH  10  11
ENDBRANCH   9  10
ENDBRANCH   4   9
BRANCH   1  17
HETATM   17  C2  UNL     1      27.716   0.071  54.870  1.00  0.00     0.126 C 
HETATM   18  N1  UNL     1      28.845  -0.455  54.649  1.00  0.00    -0.234 NA
BRANCH  18  19
HETATM   19  C1  UNL     1      29.381  -0.893  53.431  1.00  0.00     0.376 C 
HETATM   20  O1  UNL     1      28.866  -2.033  53.576  1.00  0.00    -0.281 OA
ENDBRANCH  18  19
ENDBRANCH   1  17
TORSDOF 5
ENDMDL
MODEL 5
REMARK VINA RESULT:      -7.5      4.590      7.078
REMARK  5 active torsions:
REMARK  status: ('A' for Active; 'I' for Inactive)
REMARK    1  A    between atoms: C1_2  and  N1_3 
REMARK    2  A    between atoms: C2_4  and  C3_5 
REMARK    3  A    between atoms: C6_8  and  O2_9 
REMARK    4  A    between atoms: O2_9  and  C7_10 
REMARK    5  A    between atoms: C7_10  and  C8_11 
ROOT
HETATM    1  C3  UNL     1      20.645   0.468  52.745  1.00  0.00    -0.040 C 
HETATM    2  C4  UNL     1      21.500   0.726  51.770  1.00  0.00     0.011 C 
HETATM    3  C5  UNL     1      22.948   0.900  51.762  1.00  0.00     0.037 C 
HETATM    4  C6  UNL     1      23.908   0.457  52.594  1.00  0.00     0.068 C 
HETATM    5  C14 UNL     1      23.896  -0.366  53.822  1.00  0.00     0.033 C 
HETATM    6  C15 UNL     1      22.917  -0.946  54.536  1.00  0.00    -0.024 C 
HETATM    7  C16 UNL     1      21.433  -1.083  54.506  1.00  0.00     0.032 C 
HETATM    8  C17 UNL     1      20.766   0.248  54.210  1.00  0.00     0.043 C 
ENDROOT
BRANCH   4   9
HETATM    9  O2  UNL     1      25.162   0.854  52.218  1.00  0.00    -0.347 OA
BRANCH   9  10
HETATM   10  C7  UNL     1      26.280   0.018  52.039  1.00  0.00     0.214 C 
BRANCH  10  11
HETATM   11  C8  UNL     1      27.390   0.654  52.834  1.00  0.00    -0.034 A 
HETATM   12  C9  UNL     1      28.208  -0.276  53.483  1.00  0.00     0.009 A 
HETATM   13  C10 UNL     1      29.264   0.182  54.245  1.00  0.00     0.001 A 
HETATM   14  C11 UNL     1      29.477   1.545  54.339  1.00  0.00     0.000 A 
HETATM   15  C12 UNL     1      28.659   2.448  53.692  1.00  0.00     0.001 A 
HETATM   16  C13 UNL     1      27.587   2.016  52.917  1.00  0.00     0.009 A 
ENDBRANCH  10  11
ENDBRANCH   9  10
ENDBRANCH   4   9
BRANCH   1  17
HETATM   17  C2  UNL     1      19.297   0.383  52.260  1.00  0.00     0.126 C 
HETATM   18  N1  UNL     1      18.216  -0.270  52.333  1.00  0.00    -0.234 NA
BRANCH  18  19
HETATM   19  C1  UNL     1      17.930  -1.402  53.108  1.00  0.00     0.376 C 
HETATM   20  O1  UNL     1      16.798  -0.946  53.418  1.00  0.00    -0.281 OA
ENDBRANCH  18  19
ENDBRANCH   1  17
TORSDOF 5
ENDMDL
MODEL 6
REMARK VINA RESULT:      -7.4      4.949      7.421
REMARK  5 active torsions:
REMARK  status: ('A' for Active; 'I' for Inactive)
REMARK    1  A    between atoms: C1_2  and  N1_3 
REMARK    2  A    between atoms: C2_4  and  C3_5 
REMARK    3  A    between atoms: C6_8  and  O2_9 
REMARK    4  A    between atoms: O2_9  and  C7_10 
REMARK    5  A    between atoms: C7_10  and  C8_11 
ROOT
HETATM    1  C3  UNL     1      20.843   0.975  52.363  1.00  0.00    -0.040 C 
HETATM    2  C4  UNL     1      22.008   1.107  51.752  1.00  0.00     0.011 C 
HETATM    3  C5  UNL     1      23.378   0.891  52.205  1.00  0.00     0.037 C 
HETATM    4  C6  UNL     1      23.887   0.119  53.182  1.00  0.00     0.068 C 
HETATM    5  C14 UNL     1      23.291  -0.805  54.170  1.00  0.00     0.033 C 
HETATM    6  C15 UNL     1      22.029  -1.183  54.438  1.00  0.00    -0.024 C 
HETATM    7  C16 UNL     1      20.647  -0.917  53.947  1.00  0.00     0.032 C 
HETATM    8  C17 UNL     1      20.419   0.567  53.728  1.00  0.00     0.043 C 
ENDROOT
BRANCH   4   9
HETATM    9  O2  UNL     1      25.249   0.210  53.276  1.00  0.00    -0.347 OA
BRANCH   9  10
HETATM   10  C7  UNL     1      26.150   0.329  52.202  1.00  0.00     0.214 C 
BRANCH  10  11
HETATM   11  C8  UNL     1      27.497  -0.045  52.762  1.00  0.00    -0.034 A 
HETATM   12  C9  UNL     1      27.727  -1.424  52.773  1.00  0.00     0.009 A 
HETATM   13  C10 UNL     1      28.928  -1.896  53.264  1.00  0.00     0.001 A 
HETATM   14  C11 UNL     1      29.863  -0.987  53.727  1.00  0.00     0.000 A 
HETATM   15  C12 UNL     1      29.617   0.371  53.708  1.00  0.00     0.001 A 
HETATM   16  C13 UNL     1      28.416   0.874  53.220  1.00  0.00     0.009 A 
ENDBRANCH  10  11
ENDBRANCH   9  10
ENDBRANCH   4   9
BRANCH   1  17
HETATM   17  C2  UNL     1      19.748   1.306  51.496  1.00  0.00     0.126 C 
HETATM   18  N1  UNL     1      19.061   2.256  51.023  1.00  0.00    -0.234 NA
BRANCH  18  19
HETATM   19  C1  UNL     1      19.192   3.631  51.259  1.00  0.00     0.376 C 
HETATM   20  O1  UNL     1      18.405   3.572  52.240  1.00  0.00    -0.281 OA
ENDBRANCH  18  19
ENDBRANCH   1  17
TORSDOF 5
ENDMDL
MODEL 7
REMARK VINA RESULT:      -7.2      3.010      6.995
REMARK  5 active torsions:
REMARK  status: ('A' for Active; 'I' for Inactive)
REMARK    1  A    between atoms: C1_2  and  N1_3 
REMARK    2  A    between atoms: C2_4  and  C3_5 
REMARK    3  A    between atoms: C6_8  and  O2_9 
REMARK    4  A    between atoms: O2_9  and  C7_10 
REMARK    5  A    between atoms: C7_10  and  C8_11 
ROOT
HETATM    1  C3  UNL     1      27.905   6.040  48.436  1.00  0.00    -0.040 C 
HETATM    2  C4  UNL     1      27.830   4.735  48.636  1.00  0.00     0.011 C 
HETATM    3  C5  UNL     1      26.827   3.904  49.291  1.00  0.00     0.037 C 
HETATM    4  C6  UNL     1      25.514   4.094  49.514  1.00  0.00     0.068 C 
HETATM    5  C14 UNL     1      24.571   5.187  49.198  1.00  0.00     0.033 C 
HETATM    6  C15 UNL     1      24.706   6.376  48.586  1.00  0.00    -0.024 C 
HETATM    7  C16 UNL     1      25.772   7.193  47.939  1.00  0.00     0.032 C 
HETATM    8  C17 UNL     1      27.040   7.201  48.774  1.00  0.00     0.043 C 
ENDROOT
BRANCH   4   9
HETATM    9  O2  UNL     1      24.930   3.047  50.174  1.00  0.00    -0.347 OA
BRANCH   9  10
HETATM   10  C7  UNL     1      24.647   2.986  51.551  1.00  0.00     0.214 C 
BRANCH  10  11
HETATM   11  C8  UNL     1      25.177   1.655  52.014  1.00  0.00    -0.034 A 
HETATM   12  C9  UNL     1      24.264   0.937  52.792  1.00  0.00     0.009 A 
HETATM   13  C10 UNL     1      24.632  -0.302  53.278  1.00  0.00     0.001 A 
HETATM   14  C11 UNL     1      25.891  -0.789  52.978  1.00  0.00     0.000 A 
HETATM   15  C12 UNL     1      26.778  -0.066  52.209  1.00  0.00     0.001 A 
HETATM   16  C13 UNL     1      26.436   1.185  51.706  1.00  0.00     0.009 A 
ENDBRANCH  10  11
ENDBRANCH   9  10
ENDBRANCH   4   9
BRANCH   1  17
HETATM   17  C2  UNL     1      29.102   6.402  47.731  1.00  0.00     0.126 C 
HETATM   18  N1  UNL     1      30.348   6.583  47.844  1.00  0.00    -0.234 NA
BRANCH  18  19
HETATM   19  C1  UNL     1      31.150   6.451  48.986  1.00  0.00     0.376 C 
HETATM   20  O1  UNL     1      31.294   5.216  48.783  1.00  0.00    -0.281 OA
ENDBRANCH  18  19
ENDBRANCH   1  17
TORSDOF 5
ENDMDL
MODEL 8
REMARK VINA RESULT:      -7.1      3.614      5.881
REMARK  5 active torsions:
REMARK  status: ('A' for Active; 'I' for Inactive)
REMARK    1  A    between atoms: C1_2  and  N1_3 
REMARK    2  A    between atoms: C2_4  and  C3_5 
REMARK    3  A    between atoms: C6_8  and  O2_9 
REMARK    4  A    between atoms: O2_9  and  C7_10 
REMARK    5  A    between atoms: C7_10  and  C8_11 
ROOT
HETATM    1  C3  UNL     1      21.577   0.717  52.221  1.00  0.00    -0.040 C 
HETATM    2  C4  UNL     1      22.444   1.433  52.917  1.00  0.00     0.011 C 
HETATM    3  C5  UNL     1      23.674   2.117  52.536  1.00  0.00     0.037 C 
HETATM    4  C6  UNL     1      24.100   2.603  51.356  1.00  0.00     0.068 C 
HETATM    5  C14 UNL     1      23.517   2.646  49.998  1.00  0.00     0.033 C 
HETATM    6  C15 UNL     1      22.362   2.203  49.474  1.00  0.00    -0.024 C 
HETATM    7  C16 UNL     1      21.129   1.488  49.912  1.00  0.00     0.032 C 
HETATM    8  C17 UNL     1      21.468   0.303  50.798  1.00  0.00     0.043 C 
ENDROOT
BRANCH   4   9
HETATM    9  O2  UNL     1      25.337   3.182  51.434  1.00  0.00    -0.347 OA
BRANCH   9  10
HETATM   10  C7  UNL     1      26.531   2.666  50.898  1.00  0.00     0.214 C 
BRANCH  10  11
HETATM   11  C8  UNL     1      26.993   1.618  51.875  1.00  0.00    -0.034 A 
HETATM   12  C9  UNL     1      27.751   2.140  52.928  1.00  0.00     0.009 A 
HETATM   13  C10 UNL     1      28.235   1.278  53.893  1.00  0.00     0.001 A 
HETATM   14  C11 UNL     1      27.950  -0.071  53.784  1.00  0.00     0.000 A 
HETATM   15  C12 UNL     1      27.200  -0.567  52.738  1.00  0.00     0.001 A 
HETATM   16  C13 UNL     1      26.701   0.276  51.752  1.00  0.00     0.009 A 
ENDBRANCH  10  11
ENDBRANCH   9  10
ENDBRANCH   4   9
BRANCH   1  17
HETATM   17  C2  UNL     1      20.502   0.238  53.043  1.00  0.00     0.126 C 
HETATM   18  N1  UNL     1      20.141  -0.682  53.831  1.00  0.00    -0.234 NA
BRANCH  18  19
HETATM   19  C1  UNL     1      20.865  -1.805  54.254  1.00  0.00     0.376 C 
HETATM   20  O1  UNL     1      21.436  -1.138  55.157  1.00  0.00    -0.281 OA
ENDBRANCH  18  19
ENDBRANCH   1  17
TORSDOF 5
ENDMDL
MODEL 9
REMARK VINA RESULT:      -7.1      3.660      3.964
REMARK  5 active torsions:
REMARK  status: ('A' for Active; 'I' for Inactive)
REMARK    1  A    between atoms: C1_2  and  N1_3 
REMARK    2  A    between atoms: C2_4  and  C3_5 
REMARK    3  A    between atoms: C6_8  and  O2_9 
REMARK    4  A    between atoms: O2_9  and  C7_10 
REMARK    5  A    between atoms: C7_10  and  C8_11 
ROOT
HETATM    1  C3  UNL     1      25.950   0.646  54.033  1.00  0.00    -0.040 C 
HETATM    2  C4  UNL     1      25.758   1.936  53.819  1.00  0.00     0.011 C 
HETATM    3  C5  UNL     1      24.748   2.659  53.054  1.00  0.00     0.037 C 
HETATM    4  C6  UNL     1      23.494   2.331  52.692  1.00  0.00     0.068 C 
HETATM    5  C14 UNL     1      22.645   1.141  52.910  1.00  0.00     0.033 C 
HETATM    6  C15 UNL     1      22.840  -0.030  53.541  1.00  0.00    -0.024 C 
HETATM    7  C16 UNL     1      23.911  -0.731  54.304  1.00  0.00     0.032 C 
HETATM    8  C17 UNL     1      25.255  -0.599  53.611  1.00  0.00     0.043 C 
ENDROOT
BRANCH   4   9
HETATM    9  O2  UNL     1      22.877   3.313  51.966  1.00  0.00    -0.347 OA
BRANCH   9  10
HETATM   10  C7  UNL     1      21.595   3.240  51.390  1.00  0.00     0.214 C 
BRANCH  10  11
HETATM   11  C8  UNL     1      21.826   3.033  49.917  1.00  0.00    -0.034 A 
HETATM   12  C9  UNL     1      21.882   4.228  49.193  1.00  0.00     0.009 A 
HETATM   13  C10 UNL     1      22.091   4.173  47.829  1.00  0.00     0.001 A 
HETATM   14  C11 UNL     1      22.238   2.937  47.227  1.00  0.00     0.000 A 
HETATM   15  C12 UNL     1      22.180   1.768  47.957  1.00  0.00     0.001 A 
HETATM   16  C13 UNL     1      21.971   1.793  49.332  1.00  0.00     0.009 A 
ENDBRANCH  10  11
ENDBRANCH   9  10
ENDBRANCH   4   9
BRANCH   1  17
HETATM   17  C2  UNL     1      27.095   0.410  54.865  1.00  0.00     0.126 C 
HETATM   18  N1  UNL     1      28.343   0.583  54.972  1.00  0.00    -0.234 NA
BRANCH  18  19
HETATM   19  C1  UNL     1      29.215   1.221  54.080  1.00  0.00     0.376 C 
HETATM   20  O1  UNL     1      29.301   2.228  54.832  1.00  0.00    -0.281 OA
ENDBRANCH  18  19
ENDBRANCH   1  17
TORSDOF 5
ENDMDL
