MODEL 1
REMARK VINA RESULT:      -7.4      0.000      0.000
REMARK  6 active torsions:
REMARK  status: ('A' for Active; 'I' for Inactive)
REMARK    1  A    between atoms: C2_2  and  C3_3 
REMARK    2  A    between atoms: C2_2  and  N2_15 
REMARK    3  A    between atoms: C3_3  and  C4_4 
REMARK    4  A    between atoms: C5_5  and  S1_6 
REMARK    5  A    between atoms: N2_15  and  C12_16 
REMARK    6  A    between atoms: C12_16  and  C13_17 
ROOT
HETATM    1  C4  UNL     1      26.872   1.673  51.965  1.00  0.00     0.082 C 
HETATM    2  C5  UNL     1      27.167   2.089  53.314  1.00  0.00     0.086 C 
HETATM    3  N1  UNL     1      26.059   2.664  53.986  1.00  0.00    -0.351 N 
HETATM    4  C6  UNL     1      25.030   2.817  52.976  1.00  0.00     0.039 A 
HETATM    5  C7  UNL     1      23.837   3.419  53.248  1.00  0.00     0.030 A 
HETATM    6  C8  UNL     1      23.005   3.569  52.135  1.00  0.00     0.002 A 
HETATM    7  C9  UNL     1      23.420   3.122  50.885  1.00  0.00     0.001 A 
HETATM    8  C10 UNL     1      24.643   2.518  50.679  1.00  0.00     0.010 A 
HETATM    9  C11 UNL     1      25.485   2.354  51.757  1.00  0.00    -0.021 A 
HETATM   10  H8  UNL     1      26.266   2.831  54.990  1.00  0.00     0.166 HD
ENDROOT
BRANCH   1  11
HETATM   11  C3  UNL     1      26.533   0.249  51.764  1.00  0.00     0.051 C 
BRANCH  11  12
HETATM   12  C2  UNL     1      26.398  -0.706  52.871  1.00  0.00     0.218 C 
HETATM   13  C1  UNL     1      27.271  -1.942  52.789  1.00  0.00     0.042 C 
BRANCH  12  14
HETATM   14  N2  UNL     1      25.047  -1.189  53.079  1.00  0.00     0.091 N 
HETATM   15  H13 UNL     1      24.465  -1.248  52.243  1.00  0.00     0.316 HD
BRANCH  14  16
HETATM   16  C12 UNL     1      24.336  -0.538  54.142  1.00  0.00     0.308 C 
BRANCH  16  17
HETATM   17  C13 UNL     1      22.915  -0.260  53.808  1.00  0.00    -0.030 A 
HETATM   18  C14 UNL     1      21.789  -0.126  54.589  1.00  0.00     0.009 A 
HETATM   19  C15 UNL     1      20.552   0.129  54.045  1.00  0.00     0.001 A 
HETATM   20  C16 UNL     1      20.347   0.267  52.699  1.00  0.00     0.000 A 
HETATM   21  C17 UNL     1      21.430   0.144  51.867  1.00  0.00     0.001 A 
HETATM   22  C18 UNL     1      22.659  -0.111  52.435  1.00  0.00     0.009 A 
ENDBRANCH  16  17
ENDBRANCH  14  16
ENDBRANCH  12  14
ENDBRANCH  11  12
ENDBRANCH   1  11
BRANCH   2  23
HETATM   23  S1  UNL     1      28.743   1.931  53.846  1.00  0.00     0.084 SA
HETATM   24  O1  UNL     1      28.710   0.964  55.084  1.00  0.00    -0.143 OA
ENDBRANCH   2  23
TORSDOF 6
ENDMDL
MODEL 2
REMARK VINA RESULT:      -7.2      2.946      5.571
REMARK  6 active torsions:
REMARK  status: ('A' for Active; 'I' for Inactive)
REMARK    1  A    between atoms: C2_2  and  C3_3 
REMARK    2  A    between atoms: C2_2  and  N2_15 
REMARK    3  A    between atoms: C3_3  and  C4_4 
REMARK    4  A    between atoms: C5_5  and  S1_6 
REMARK    5  A    between atoms: N2_15  and  C12_16 
REMARK    6  A    between atoms: C12_16  and  C13_17 
ROOT
HETATM    1  C4  UNL     1      23.823   1.300  51.904  1.00  0.00     0.082 C 
HETATM    2  C5  UNL     1      22.665   1.969  51.363  1.00  0.00     0.086 C 
HETATM    3  N1  UNL     1      21.494   1.799  52.144  1.00  0.00    -0.351 N 
HETATM    4  C6  UNL     1      21.838   0.812  53.148  1.00  0.00     0.039 A 
HETATM    5  C7  UNL     1      20.919   0.336  54.036  1.00  0.00     0.030 A 
HETATM    6  C8  UNL     1      21.399  -0.681  54.867  1.00  0.00     0.002 A 
HETATM    7  C9  UNL     1      22.711  -1.124  54.745  1.00  0.00     0.001 A 
HETATM    8  C10 UNL     1      23.592  -0.596  53.824  1.00  0.00     0.010 A 
HETATM    9  C11 UNL     1      23.149   0.408  52.992  1.00  0.00    -0.021 A 
HETATM   10  H8  UNL     1      20.716   2.396  51.800  1.00  0.00     0.166 HD
ENDROOT
BRANCH   1  11
HETATM   11  C3  UNL     1      24.744   2.116  52.723  1.00  0.00     0.051 C 
BRANCH  11  12
HETATM   12  C2  UNL     1      26.031   2.615  52.222  1.00  0.00     0.218 C 
HETATM   13  C1  UNL     1      26.438   2.130  50.846  1.00  0.00     0.042 C 
BRANCH  12  14
HETATM   14  N2  UNL     1      27.158   2.333  53.090  1.00  0.00     0.091 N 
HETATM   15  H13 UNL     1      28.056   2.209  52.622  1.00  0.00     0.316 HD
BRANCH  14  16
HETATM   16  C12 UNL     1      26.935   1.277  54.036  1.00  0.00     0.308 C 
BRANCH  16  17
HETATM   17  C13 UNL     1      27.707   0.046  53.728  1.00  0.00    -0.030 A 
HETATM   18  C14 UNL     1      29.018  -0.308  53.960  1.00  0.00     0.009 A 
HETATM   19  C15 UNL     1      29.523  -1.525  53.570  1.00  0.00     0.001 A 
HETATM   20  C16 UNL     1      28.771  -2.470  52.926  1.00  0.00     0.000 A 
HETATM   21  C17 UNL     1      27.457  -2.178  52.665  1.00  0.00     0.001 A 
HETATM   22  C18 UNL     1      26.972  -0.951  53.066  1.00  0.00     0.009 A 
ENDBRANCH  16  17
ENDBRANCH  14  16
ENDBRANCH  12  14
ENDBRANCH  11  12
ENDBRANCH   1  11
BRANCH   2  23
HETATM   23  S1  UNL     1      22.836   2.743  49.892  1.00  0.00     0.084 SA
HETATM   24  O1  UNL     1      22.371   1.728  48.787  1.00  0.00    -0.143 OA
ENDBRANCH   2  23
TORSDOF 6
ENDMDL
MODEL 3
REMARK VINA RESULT:      -7.2      3.307      5.919
REMARK  6 active torsions:
REMARK  status: ('A' for Active; 'I' for Inactive)
REMARK    1  A    between atoms: C2_2  and  C3_3 
REMARK    2  A    between atoms: C2_2  and  N2_15 
REMARK    3  A    between atoms: C3_3  and  C4_4 
REMARK    4  A    between atoms: C5_5  and  S1_6 
REMARK    5  A    between atoms: N2_15  and  C12_16 
REMARK    6  A    between atoms: C12_16  and  C13_17 
ROOT
HETATM    1  C4  UNL     1      22.356   1.216  51.128  1.00  0.00     0.082 C 
HETATM    2  C5  UNL     1      20.992   1.099  50.673  1.00  0.00     0.086 C 
HETATM    3  N1  UNL     1      20.129   0.491  51.618  1.00  0.00    -0.351 N 
HETATM    4  C6  UNL     1      20.992   0.003  52.675  1.00  0.00     0.039 A 
HETATM    5  C7  UNL     1      20.508  -0.716  53.728  1.00  0.00     0.030 A 
HETATM    6  C8  UNL     1      21.494  -1.189  54.599  1.00  0.00     0.002 A 
HETATM    7  C9  UNL     1      22.835  -0.914  54.355  1.00  0.00     0.001 A 
HETATM    8  C10 UNL     1      23.257  -0.176  53.269  1.00  0.00     0.010 A 
HETATM    9  C11 UNL     1      22.310   0.305  52.393  1.00  0.00    -0.021 A 
HETATM   10  H8  UNL     1      19.136   0.540  51.315  1.00  0.00     0.166 HD
ENDROOT
BRANCH   1  11
HETATM   11  C3  UNL     1      22.755   2.513  51.715  1.00  0.00     0.051 C 
BRANCH  11  12
HETATM   12  C2  UNL     1      23.685   3.438  51.056  1.00  0.00     0.218 C 
HETATM   13  C1  UNL     1      24.006   3.132  49.607  1.00  0.00     0.042 C 
BRANCH  12  14
HETATM   14  N2  UNL     1      24.964   3.574  51.723  1.00  0.00     0.091 N 
HETATM   15  H13 UNL     1      25.297   4.531  51.852  1.00  0.00     0.316 HD
BRANCH  14  16
HETATM   16  C12 UNL     1      26.009   2.748  51.189  1.00  0.00     0.308 C 
BRANCH  16  17
HETATM   17  C13 UNL     1      26.332   1.584  52.055  1.00  0.00    -0.030 A 
HETATM   18  C14 UNL     1      26.633   0.271  51.768  1.00  0.00     0.009 A 
HETATM   19  C15 UNL     1      26.895  -0.648  52.756  1.00  0.00     0.001 A 
HETATM   20  C16 UNL     1      26.876  -0.332  54.087  1.00  0.00     0.000 A 
HETATM   21  C17 UNL     1      26.583   0.960  54.439  1.00  0.00     0.001 A 
HETATM   22  C18 UNL     1      26.324   1.864  53.431  1.00  0.00     0.009 A 
ENDBRANCH  16  17
ENDBRANCH  14  16
ENDBRANCH  12  14
ENDBRANCH  11  12
ENDBRANCH   1  11
BRANCH   2  23
HETATM   23  S1  UNL     1      20.653   1.590  49.112  1.00  0.00     0.084 SA
HETATM   24  O1  UNL     1      21.693   0.878  48.175  1.00  0.00    -0.143 OA
ENDBRANCH   2  23
TORSDOF 6
ENDMDL
MODEL 4
REMARK VINA RESULT:      -6.9      3.227      5.081
REMARK  6 active torsions:
REMARK  status: ('A' for Active; 'I' for Inactive)
REMARK    1  A    between atoms: C2_2  and  C3_3 
REMARK    2  A    between atoms: C2_2  and  N2_15 
REMARK    3  A    between atoms: C3_3  and  C4_4 
REMARK    4  A    between atoms: C5_5  and  S1_6 
REMARK    5  A    between atoms: N2_15  and  C12_16 
REMARK    6  A    between atoms: C12_16  and  C13_17 
ROOT
HETATM    1  C4  UNL     1      22.607   2.274  51.846  1.00  0.00     0.082 C 
HETATM    2  C5  UNL     1      21.923   3.173  50.949  1.00  0.00     0.086 C 
HETATM    3  N1  UNL     1      22.745   3.669  49.907  1.00  0.00    -0.351 N 
HETATM    4  C6  UNL     1      24.089   3.235  50.233  1.00  0.00     0.039 A 
HETATM    5  C7  UNL     1      25.168   3.602  49.483  1.00  0.00     0.030 A 
HETATM    6  C8  UNL     1      26.395   3.176  49.999  1.00  0.00     0.002 A 
HETATM    7  C9  UNL     1      26.442   2.444  51.180  1.00  0.00     0.001 A 
HETATM    8  C10 UNL     1      25.310   2.104  51.890  1.00  0.00     0.010 A 
HETATM    9  C11 UNL     1      24.085   2.508  51.407  1.00  0.00    -0.021 A 
HETATM   10  H8  UNL     1      22.194   4.206  49.208  1.00  0.00     0.166 HD
ENDROOT
BRANCH   1  11
HETATM   11  C3  UNL     1      22.450   0.827  51.589  1.00  0.00     0.051 C 
BRANCH  11  12
HETATM   12  C2  UNL     1      22.193  -0.152  52.653  1.00  0.00     0.218 C 
HETATM   13  C1  UNL     1      21.674   0.413  53.960  1.00  0.00     0.042 C 
BRANCH  12  14
HETATM   14  N2  UNL     1      23.339  -0.968  53.003  1.00  0.00     0.091 N 
HETATM   15  H13 UNL     1      23.203  -1.977  52.928  1.00  0.00     0.316 HD
BRANCH  14  16
HETATM   16  C12 UNL     1      23.950  -0.635  54.257  1.00  0.00     0.308 C 
BRANCH  16  17
HETATM   17  C13 UNL     1      25.424  -0.476  54.163  1.00  0.00    -0.030 A 
HETATM   18  C14 UNL     1      26.338   0.182  54.957  1.00  0.00     0.009 A 
HETATM   19  C15 UNL     1      27.680   0.198  54.661  1.00  0.00     0.001 A 
HETATM   20  C16 UNL     1      28.207  -0.430  53.566  1.00  0.00     0.000 A 
HETATM   21  C17 UNL     1      27.349  -1.103  52.735  1.00  0.00     0.001 A 
HETATM   22  C18 UNL     1      26.007  -1.106  53.052  1.00  0.00     0.009 A 
ENDBRANCH  16  17
ENDBRANCH  14  16
ENDBRANCH  12  14
ENDBRANCH  11  12
ENDBRANCH   1  11
BRANCH   2  23
HETATM   23  S1  UNL     1      20.339   3.568  51.308  1.00  0.00     0.084 SA
HETATM   24  O1  UNL     1      20.120   3.234  52.827  1.00  0.00    -0.143 OA
ENDBRANCH   2  23
TORSDOF 6
ENDMDL
MODEL 5
REMARK VINA RESULT:      -6.8      3.062      6.113
REMARK  6 active torsions:
REMARK  status: ('A' for Active; 'I' for Inactive)
REMARK    1  A    between atoms: C2_2  and  C3_3 
REMARK    2  A    between atoms: C2_2  and  N2_15 
REMARK    3  A    between atoms: C3_3  and  C4_4 
REMARK    4  A    between atoms: C5_5  and  S1_6 
REMARK    5  A    between atoms: N2_15  and  C12_16 
REMARK    6  A    between atoms: C12_16  and  C13_17 
ROOT
HETATM    1  C4  UNL     1      25.083   1.337  52.815  1.00  0.00     0.082 C 
HETATM    2  C5  UNL     1      24.657   0.188  53.575  1.00  0.00     0.086 C 
HETATM    3  N1  UNL     1      25.626  -0.270  54.503  1.00  0.00    -0.351 N 
HETATM    4  C6  UNL     1      26.828   0.487  54.214  1.00  0.00     0.039 A 
HETATM    5  C7  UNL     1      28.002   0.252  54.867  1.00  0.00     0.030 A 
HETATM    6  C8  UNL     1      29.080   1.005  54.393  1.00  0.00     0.002 A 
HETATM    7  C9  UNL     1      28.903   1.898  53.342  1.00  0.00     0.001 A 
HETATM    8  C10 UNL     1      27.684   2.089  52.726  1.00  0.00     0.010 A 
HETATM    9  C11 UNL     1      26.602   1.363  53.171  1.00  0.00    -0.021 A 
HETATM   10  H8  UNL     1      25.241  -1.011  55.121  1.00  0.00     0.166 HD
ENDROOT
BRANCH   1  11
HETATM   11  C3  UNL     1      24.645   2.661  53.303  1.00  0.00     0.051 C 
BRANCH  11  12
HETATM   12  C2  UNL     1      23.571   3.434  52.665  1.00  0.00     0.218 C 
HETATM   13  C1  UNL     1      22.807   2.723  51.566  1.00  0.00     0.042 C 
BRANCH  12  14
HETATM   14  N2  UNL     1      24.002   4.695  52.094  1.00  0.00     0.091 N 
HETATM   15  H13 UNL     1      23.618   5.533  52.532  1.00  0.00     0.316 HD
BRANCH  14  16
HETATM   16  C12 UNL     1      23.886   4.776  50.666  1.00  0.00     0.308 C 
BRANCH  16  17
HETATM   17  C13 UNL     1      25.201   4.793  49.975  1.00  0.00    -0.030 A 
HETATM   18  C14 UNL     1      26.136   3.810  49.740  1.00  0.00     0.009 A 
HETATM   19  C15 UNL     1      27.309   4.067  49.070  1.00  0.00     0.001 A 
HETATM   20  C16 UNL     1      27.634   5.307  48.591  1.00  0.00     0.000 A 
HETATM   21  C17 UNL     1      26.743   6.329  48.792  1.00  0.00     0.001 A 
HETATM   22  C18 UNL     1      25.574   6.047  49.466  1.00  0.00     0.009 A 
ENDBRANCH  16  17
ENDBRANCH  14  16
ENDBRANCH  12  14
ENDBRANCH  11  12
ENDBRANCH   1  11
BRANCH   2  23
HETATM   23  S1  UNL     1      23.172  -0.480  53.200  1.00  0.00     0.084 SA
HETATM   24  O1  UNL     1      22.165  -0.000  54.306  1.00  0.00    -0.143 OA
ENDBRANCH   2  23
TORSDOF 6
ENDMDL
MODEL 6
REMARK VINA RESULT:      -6.7      2.828      6.227
REMARK  6 active torsions:
REMARK  status: ('A' for Active; 'I' for Inactive)
REMARK    1  A    between atoms: C2_2  and  C3_3 
REMARK    2  A    between atoms: C2_2  and  N2_15 
REMARK    3  A    between atoms: C3_3  and  C4_4 
REMARK    4  A    between atoms: C5_5  and  S1_6 
REMARK    5  A    between atoms: N2_15  and  C12_16 
REMARK    6  A    between atoms: C12_16  and  C13_17 
ROOT
HETATM    1  C4  UNL     1      23.526   1.569  52.654  1.00  0.00     0.082 C 
HETATM    2  C5  UNL     1      24.657   0.804  53.119  1.00  0.00     0.086 C 
HETATM    3  N1  UNL     1      24.310  -0.477  53.617  1.00  0.00    -0.351 N 
HETATM    4  C6  UNL     1      22.862  -0.494  53.669  1.00  0.00     0.039 A 
HETATM    5  C7  UNL     1      22.170  -1.552  54.180  1.00  0.00     0.030 A 
HETATM    6  C8  UNL     1      20.788  -1.357  54.242  1.00  0.00     0.002 A 
HETATM    7  C9  UNL     1      20.229  -0.161  53.804  1.00  0.00     0.001 A 
HETATM    8  C10 UNL     1      20.988   0.872  53.294  1.00  0.00     0.010 A 
HETATM    9  C11 UNL     1      22.354   0.709  53.219  1.00  0.00    -0.021 A 
HETATM   10  H8  UNL     1      25.154  -1.049  53.820  1.00  0.00     0.166 HD
ENDROOT
BRANCH   1  11
HETATM   11  C3  UNL     1      23.245   1.532  51.204  1.00  0.00     0.051 C 
BRANCH  11  12
HETATM   12  C2  UNL     1      22.959   2.736  50.413  1.00  0.00     0.218 C 
HETATM   13  C1  UNL     1      22.691   2.510  48.939  1.00  0.00     0.042 C 
BRANCH  12  14
HETATM   14  N2  UNL     1      23.994   3.749  50.476  1.00  0.00     0.091 N 
HETATM   15  H13 UNL     1      23.700   4.697  50.237  1.00  0.00     0.316 HD
BRANCH  14  16
HETATM   16  C12 UNL     1      25.206   3.411  49.785  1.00  0.00     0.308 C 
BRANCH  16  17
HETATM   17  C13 UNL     1      25.911   4.595  49.231  1.00  0.00    -0.030 A 
HETATM   18  C14 UNL     1      25.478   5.860  48.899  1.00  0.00     0.009 A 
HETATM   19  C15 UNL     1      26.329   6.807  48.383  1.00  0.00     0.001 A 
HETATM   20  C16 UNL     1      27.658   6.570  48.159  1.00  0.00     0.000 A 
HETATM   21  C17 UNL     1      28.151   5.329  48.468  1.00  0.00     0.001 A 
HETATM   22  C18 UNL     1      27.279   4.394  48.985  1.00  0.00     0.009 A 
ENDBRANCH  16  17
ENDBRANCH  14  16
ENDBRANCH  12  14
ENDBRANCH  11  12
ENDBRANCH   1  11
BRANCH   2  23
HETATM   23  S1  UNL     1      26.155   1.545  53.096  1.00  0.00     0.084 SA
HETATM   24  O1  UNL     1      26.544   1.831  54.591  1.00  0.00    -0.143 OA
ENDBRANCH   2  23
TORSDOF 6
ENDMDL
MODEL 7
REMARK VINA RESULT:      -6.6      3.705      6.347
REMARK  6 active torsions:
REMARK  status: ('A' for Active; 'I' for Inactive)
REMARK    1  A    between atoms: C2_2  and  C3_3 
REMARK    2  A    between atoms: C2_2  and  N2_15 
REMARK    3  A    between atoms: C3_3  and  C4_4 
REMARK    4  A    between atoms: C5_5  and  S1_6 
REMARK    5  A    between atoms: N2_15  and  C12_16 
REMARK    6  A    between atoms: C12_16  and  C13_17 
ROOT
HETATM    1  C4  UNL     1      23.476   1.622  51.615  1.00  0.00     0.082 C 
HETATM    2  C5  UNL     1      22.221   2.276  51.336  1.00  0.00     0.086 C 
HETATM    3  N1  UNL     1      21.214   2.007  52.297  1.00  0.00    -0.351 N 
HETATM    4  C6  UNL     1      21.761   0.971  53.151  1.00  0.00     0.039 A 
HETATM    5  C7  UNL     1      21.030   0.401  54.152  1.00  0.00     0.030 A 
HETATM    6  C8  UNL     1      21.680  -0.647  54.810  1.00  0.00     0.002 A 
HETATM    7  C9  UNL     1      22.962  -1.026  54.427  1.00  0.00     0.001 A 
HETATM    8  C10 UNL     1      23.648  -0.404  53.405  1.00  0.00     0.010 A 
HETATM    9  C11 UNL     1      23.034   0.634  52.738  1.00  0.00    -0.021 A 
HETATM   10  H8  UNL     1      20.370   2.592  52.140  1.00  0.00     0.166 HD
ENDROOT
BRANCH   1  11
HETATM   11  C3  UNL     1      24.504   2.421  52.315  1.00  0.00     0.051 C 
BRANCH  11  12
HETATM   12  C2  UNL     1      25.941   2.127  52.230  1.00  0.00     0.218 C 
HETATM   13  C1  UNL     1      26.665   1.984  53.553  1.00  0.00     0.042 C 
BRANCH  12  14
HETATM   14  N2  UNL     1      26.703   3.093  51.465  1.00  0.00     0.091 N 
HETATM   15  H13 UNL     1      26.657   4.057  51.799  1.00  0.00     0.316 HD
BRANCH  14  16
HETATM   16  C12 UNL     1      26.482   3.042  50.048  1.00  0.00     0.308 C 
BRANCH  16  17
HETATM   17  C13 UNL     1      26.410   4.387  49.420  1.00  0.00    -0.030 A 
HETATM   18  C14 UNL     1      25.389   5.304  49.310  1.00  0.00     0.009 A 
HETATM   19  C15 UNL     1      25.557   6.505  48.663  1.00  0.00     0.001 A 
HETATM   20  C16 UNL     1      26.739   6.878  48.083  1.00  0.00     0.000 A 
HETATM   21  C17 UNL     1      27.795   6.007  48.158  1.00  0.00     0.001 A 
HETATM   22  C18 UNL     1      27.603   4.809  48.812  1.00  0.00     0.009 A 
ENDBRANCH  16  17
ENDBRANCH  14  16
ENDBRANCH  12  14
ENDBRANCH  11  12
ENDBRANCH   1  11
BRANCH   2  23
HETATM   23  S1  UNL     1      22.103   3.151  49.917  1.00  0.00     0.084 SA
HETATM   24  O1  UNL     1      22.769   2.282  48.790  1.00  0.00    -0.143 OA
ENDBRANCH   2  23
TORSDOF 6
ENDMDL
MODEL 8
REMARK VINA RESULT:      -6.4      3.141      5.940
REMARK  6 active torsions:
REMARK  status: ('A' for Active; 'I' for Inactive)
REMARK    1  A    between atoms: C2_2  and  C3_3 
REMARK    2  A    between atoms: C2_2  and  N2_15 
REMARK    3  A    between atoms: C3_3  and  C4_4 
REMARK    4  A    between atoms: C5_5  and  S1_6 
REMARK    5  A    between atoms: N2_15  and  C12_16 
REMARK    6  A    between atoms: C12_16  and  C13_17 
ROOT
HETATM    1  C4  UNL     1      24.767   1.357  53.023  1.00  0.00     0.082 C 
HETATM    2  C5  UNL     1      24.465   0.006  53.430  1.00  0.00     0.086 C 
HETATM    3  N1  UNL     1      23.129  -0.383  53.160  1.00  0.00    -0.351 N 
HETATM    4  C6  UNL     1      22.452   0.825  52.732  1.00  0.00     0.039 A 
HETATM    5  C7  UNL     1      21.115   0.847  52.462  1.00  0.00     0.030 A 
HETATM    6  C8  UNL     1      20.613   2.115  52.159  1.00  0.00     0.002 A 
HETATM    7  C9  UNL     1      21.458   3.220  52.151  1.00  0.00     0.001 A 
HETATM    8  C10 UNL     1      22.805   3.128  52.431  1.00  0.00     0.010 A 
HETATM    9  C11 UNL     1      23.331   1.891  52.733  1.00  0.00    -0.021 A 
HETATM   10  H8  UNL     1      22.981  -1.395  53.344  1.00  0.00     0.166 HD
ENDROOT
BRANCH   1  11
HETATM   11  C3  UNL     1      25.415   1.529  51.706  1.00  0.00     0.051 C 
BRANCH  11  12
HETATM   12  C2  UNL     1      26.767   2.080  51.545  1.00  0.00     0.218 C 
HETATM   13  C1  UNL     1      27.607   2.149  52.804  1.00  0.00     0.042 C 
BRANCH  12  14
HETATM   14  N2  UNL     1      26.802   3.412  50.972  1.00  0.00     0.091 N 
HETATM   15  H13 UNL     1      26.282   4.126  51.483  1.00  0.00     0.316 HD
BRANCH  14  16
HETATM   16  C12 UNL     1      26.494   3.470  49.572  1.00  0.00     0.308 C 
BRANCH  16  17
HETATM   17  C13 UNL     1      26.729   4.811  48.978  1.00  0.00    -0.030 A 
HETATM   18  C14 UNL     1      25.889   5.875  48.732  1.00  0.00     0.009 A 
HETATM   19  C15 UNL     1      26.340   7.037  48.153  1.00  0.00     0.001 A 
HETATM   20  C16 UNL     1      27.643   7.226  47.781  1.00  0.00     0.000 A 
HETATM   21  C17 UNL     1      28.529   6.203  48.000  1.00  0.00     0.001 A 
HETATM   22  C18 UNL     1      28.055   5.046  48.581  1.00  0.00     0.009 A 
ENDBRANCH  16  17
ENDBRANCH  14  16
ENDBRANCH  12  14
ENDBRANCH  11  12
ENDBRANCH   1  11
BRANCH   2  23
HETATM   23  S1  UNL     1      25.662  -0.849  54.223  1.00  0.00     0.084 SA
HETATM   24  O1  UNL     1      26.225   0.092  55.347  1.00  0.00    -0.143 OA
ENDBRANCH   2  23
TORSDOF 6
ENDMDL
MODEL 9
REMARK VINA RESULT:      -6.3      3.832      6.826
REMARK  6 active torsions:
REMARK  status: ('A' for Active; 'I' for Inactive)
REMARK    1  A    between atoms: C2_2  and  C3_3 
REMARK    2  A    between atoms: C2_2  and  N2_15 
REMARK    3  A    between atoms: C3_3  and  C4_4 
REMARK    4  A    between atoms: C5_5  and  S1_6 
REMARK    5  A    between atoms: N2_15  and  C12_16 
REMARK    6  A    between atoms: C12_16  and  C13_17 
ROOT
HETATM    1  C4  UNL     1      23.303   1.399  52.062  1.00  0.00     0.082 C 
HETATM    2  C5  UNL     1      22.478   0.601  52.937  1.00  0.00     0.086 C 
HETATM    3  N1  UNL     1      23.219  -0.175  53.863  1.00  0.00    -0.351 N 
HETATM    4  C6  UNL     1      24.605  -0.040  53.461  1.00  0.00     0.039 A 
HETATM    5  C7  UNL     1      25.607  -0.724  54.085  1.00  0.00     0.030 A 
HETATM    6  C8  UNL     1      26.867  -0.550  53.504  1.00  0.00     0.002 A 
HETATM    7  C9  UNL     1      27.016   0.264  52.387  1.00  0.00     0.001 A 
HETATM    8  C10 UNL     1      25.958   0.930  51.805  1.00  0.00     0.010 A 
HETATM    9  C11 UNL     1      24.704   0.780  52.355  1.00  0.00    -0.021 A 
HETATM   10  H8  UNL     1      22.599  -0.634  54.559  1.00  0.00     0.166 HD
ENDROOT
BRANCH   1  11
HETATM   11  C3  UNL     1      23.518   2.809  52.449  1.00  0.00     0.051 C 
BRANCH  11  12
HETATM   12  C2  UNL     1      23.400   3.925  51.502  1.00  0.00     0.218 C 
HETATM   13  C1  UNL     1      23.052   3.549  50.076  1.00  0.00     0.042 C 
BRANCH  12  14
HETATM   14  N2  UNL     1      24.582   4.759  51.413  1.00  0.00     0.091 N 
HETATM   15  H13 UNL     1      24.835   5.261  52.266  1.00  0.00     0.316 HD
BRANCH  14  16
HETATM   16  C12 UNL     1      24.608   5.644  50.284  1.00  0.00     0.308 C 
BRANCH  16  17
HETATM   17  C13 UNL     1      25.905   5.628  49.560  1.00  0.00    -0.030 A 
HETATM   18  C14 UNL     1      26.754   4.604  49.202  1.00  0.00     0.009 A 
HETATM   19  C15 UNL     1      27.930   4.836  48.529  1.00  0.00     0.001 A 
HETATM   20  C16 UNL     1      28.344   6.089  48.167  1.00  0.00     0.000 A 
HETATM   21  C17 UNL     1      27.542   7.152  48.494  1.00  0.00     0.001 A 
HETATM   22  C18 UNL     1      26.368   6.895  49.170  1.00  0.00     0.009 A 
ENDBRANCH  16  17
ENDBRANCH  14  16
ENDBRANCH  12  14
ENDBRANCH  11  12
ENDBRANCH   1  11
BRANCH   2  23
HETATM   23  S1  UNL     1      20.827   0.628  52.682  1.00  0.00     0.084 SA
HETATM   24  O1  UNL     1      20.602   1.157  51.220  1.00  0.00    -0.143 OA
ENDBRANCH   2  23
TORSDOF 6
ENDMDL
