MODEL 1
REMARK VINA RESULT:      -7.7      0.000      0.000
REMARK  2 active torsions:
REMARK  status: ('A' for Active; 'I' for Inactive)
REMARK    1  A    between atoms: N1_1  and  C1_2 
REMARK    2  A    between atoms: C10_13  and  O1_14 
ROOT
HETATM    1  C1  UNL     1      32.961   7.713  48.262  1.00  0.00     0.292 C 
HETATM    2  C2  UNL     1      34.403   7.408  48.629  1.00  0.00     0.128 C 
HETATM    3  N2  UNL     1      35.060   7.775  47.559  1.00  0.00    -0.273 NA
HETATM    4  P1  UNL     1      34.013   8.427  46.223  1.00  0.00     0.030 P 
HETATM    5  C3  UNL     1      32.911   6.982  45.831  1.00  0.00     0.009 C 
HETATM    6  C4  UNL     1      32.561   6.904  47.099  1.00  0.00     0.003 C 
HETATM    7  C5  UNL     1      31.635   5.833  47.433  1.00  0.00    -0.001 C 
HETATM    8  C6  UNL     1      30.267   6.196  47.692  1.00  0.00    -0.021 A 
HETATM    9  C7  UNL     1      29.780   7.460  47.556  1.00  0.00     0.012 A 
HETATM   10  C8  UNL     1      28.489   7.857  47.805  1.00  0.00     0.004 A 
HETATM   11  C9  UNL     1      27.573   6.916  48.232  1.00  0.00     0.036 A 
HETATM   12  C10 UNL     1      27.991   5.600  48.396  1.00  0.00     0.066 A 
HETATM   13  C11 UNL     1      29.293   5.295  48.126  1.00  0.00     0.048 A 
HETATM   14  C12 UNL     1      31.991   4.578  47.529  1.00  0.00     0.098 C 
HETATM   15  N3  UNL     1      33.159   3.841  47.387  1.00  0.00    -0.389 N 
HETATM   16  C13 UNL     1      34.378   3.710  48.134  1.00  0.00     0.122 C 
HETATM   17  C14 UNL     1      35.511   3.768  47.110  1.00  0.00     0.027 C 
HETATM   18  C15 UNL     1      34.783   3.509  45.807  1.00  0.00     0.033 C 
HETATM   19  C16 UNL     1      33.503   2.886  46.324  1.00  0.00     0.128 C 
HETATM   20  C17 UNL     1      34.403   4.790  45.134  1.00  0.00     0.279 C 
HETATM   21  N4  UNL     1      33.003   4.799  44.752  1.00  0.00     0.098 N 
HETATM   22  C18 UNL     1      32.919   4.855  43.293  1.00  0.00     0.276 C 
HETATM   23  C19 UNL     1      33.142   6.346  43.438  1.00  0.00     0.071 C 
HETATM   24  C20 UNL     1      32.425   6.105  44.775  1.00  0.00     0.260 C 
HETATM   25  H5  UNL     1      34.824   8.795  45.096  1.00  0.00     0.087 HD
ENDROOT
BRANCH   1  26
HETATM   26  N1  UNL     1      32.897   9.157  48.015  1.00  0.00     0.092 N 
HETATM   27  H1  UNL     1      31.966   9.379  47.558  1.00  0.00     0.314 HD
HETATM   28  H2  UNL     1      33.612   9.372  47.284  1.00  0.00     0.314 HD
ENDBRANCH   1  26
BRANCH  12  29
HETATM   29  O1  UNL     1      27.057   4.679  48.824  1.00  0.00    -0.361 OA
HETATM   30  H9  UNL     1      26.682   4.831  49.764  1.00  0.00     0.217 HD
ENDBRANCH  12  29
TORSDOF 2
ENDMDL
MODEL 2
REMARK VINA RESULT:      -7.6      9.655     11.939
REMARK  2 active torsions:
REMARK  status: ('A' for Active; 'I' for Inactive)
REMARK    1  A    between atoms: N1_1  and  C1_2 
REMARK    2  A    between atoms: C10_13  and  O1_14 
ROOT
HETATM    1  C1  UNL     1      21.993   1.373  53.034  1.00  0.00     0.292 C 
HETATM    2  C2  UNL     1      20.793   2.269  53.282  1.00  0.00     0.128 C 
HETATM    3  N2  UNL     1      19.962   1.912  52.337  1.00  0.00    -0.273 NA
HETATM    4  P1  UNL     1      20.591   0.605  51.240  1.00  0.00     0.030 P 
HETATM    5  C3  UNL     1      22.101   1.394  50.497  1.00  0.00     0.009 C 
HETATM    6  C4  UNL     1      22.559   1.656  51.705  1.00  0.00     0.003 C 
HETATM    7  C5  UNL     1      23.832   2.357  51.759  1.00  0.00    -0.001 C 
HETATM    8  C6  UNL     1      24.996   1.594  52.128  1.00  0.00    -0.021 A 
HETATM    9  C7  UNL     1      24.983   0.250  52.341  1.00  0.00     0.012 A 
HETATM   10  C8  UNL     1      26.061  -0.518  52.707  1.00  0.00     0.004 A 
HETATM   11  C9  UNL     1      27.285   0.095  52.886  1.00  0.00     0.036 A 
HETATM   12  C10 UNL     1      27.383   1.468  52.687  1.00  0.00     0.066 A 
HETATM   13  C11 UNL     1      26.260   2.152  52.323  1.00  0.00     0.048 A 
HETATM   14  C12 UNL     1      23.960   3.636  51.511  1.00  0.00     0.098 C 
HETATM   15  N3  UNL     1      23.127   4.689  51.159  1.00  0.00    -0.389 N 
HETATM   16  C13 UNL     1      22.102   5.444  51.823  1.00  0.00     0.122 C 
HETATM   17  C14 UNL     1      20.943   5.550  50.832  1.00  0.00     0.027 C 
HETATM   18  C15 UNL     1      21.606   5.184  49.520  1.00  0.00     0.033 C 
HETATM   19  C16 UNL     1      23.063   5.401  49.874  1.00  0.00     0.128 C 
HETATM   20  C17 UNL     1      21.444   3.727  49.218  1.00  0.00     0.279 C 
HETATM   21  N4  UNL     1      22.711   3.108  48.876  1.00  0.00     0.098 N 
HETATM   22  C18 UNL     1      22.648   2.658  47.486  1.00  0.00     0.276 C 
HETATM   23  C19 UNL     1      21.918   1.443  48.018  1.00  0.00     0.071 C 
HETATM   24  C20 UNL     1      22.781   1.732  49.255  1.00  0.00     0.260 C 
HETATM   25  H5  UNL     1      19.612   0.290  50.238  1.00  0.00     0.087 HD
ENDROOT
BRANCH   1  26
HETATM   26  N1  UNL     1      21.513  -0.005  53.181  1.00  0.00     0.092 N 
HETATM   27  H1  UNL     1      22.025  -0.453  53.994  1.00  0.00     0.314 HD
HETATM   28  H2  UNL     1      21.838  -0.531  52.339  1.00  0.00     0.314 HD
ENDBRANCH   1  26
BRANCH  12  29
HETATM   29  O1  UNL     1      28.618   2.057  52.871  1.00  0.00    -0.361 OA
HETATM   30  H9  UNL     1      28.612   2.961  53.349  1.00  0.00     0.217 HD
ENDBRANCH  12  29
TORSDOF 2
ENDMDL
MODEL 3
REMARK VINA RESULT:      -7.4      6.737     10.413
REMARK  2 active torsions:
REMARK  status: ('A' for Active; 'I' for Inactive)
REMARK    1  A    between atoms: N1_1  and  C1_2 
REMARK    2  A    between atoms: C10_13  and  O1_14 
ROOT
HETATM    1  C1  UNL     1      24.570   4.329  51.412  1.00  0.00     0.292 C 
HETATM    2  C2  UNL     1      23.378   4.448  52.344  1.00  0.00     0.128 C 
HETATM    3  N2  UNL     1      22.716   3.344  52.113  1.00  0.00    -0.273 NA
HETATM    4  P1  UNL     1      23.477   2.260  50.867  1.00  0.00     0.030 P 
HETATM    5  C3  UNL     1      23.481   3.331  49.348  1.00  0.00     0.009 C 
HETATM    6  C4  UNL     1      24.109   4.278  50.016  1.00  0.00     0.003 C 
HETATM    7  C5  UNL     1      24.392   5.494  49.270  1.00  0.00    -0.001 C 
HETATM    8  C6  UNL     1      25.751   5.713  48.848  1.00  0.00    -0.021 A 
HETATM    9  C7  UNL     1      26.754   4.812  49.029  1.00  0.00     0.012 A 
HETATM   10  C8  UNL     1      28.066   4.981  48.657  1.00  0.00     0.004 A 
HETATM   11  C9  UNL     1      28.436   6.159  48.040  1.00  0.00     0.036 A 
HETATM   12  C10 UNL     1      27.469   7.132  47.817  1.00  0.00     0.066 A 
HETATM   13  C11 UNL     1      26.191   6.880  48.220  1.00  0.00     0.048 A 
HETATM   14  C12 UNL     1      23.484   6.394  48.992  1.00  0.00     0.098 C 
HETATM   15  N3  UNL     1      22.127   6.572  49.223  1.00  0.00    -0.389 N 
HETATM   16  C13 UNL     1      21.318   6.857  50.374  1.00  0.00     0.122 C 
HETATM   17  C14 UNL     1      20.131   5.897  50.307  1.00  0.00     0.027 C 
HETATM   18  C15 UNL     1      20.174   5.430  48.867  1.00  0.00     0.033 C 
HETATM   19  C16 UNL     1      21.029   6.516  48.248  1.00  0.00     0.128 C 
HETATM   20  C17 UNL     1      20.937   4.148  48.736  1.00  0.00     0.279 C 
HETATM   21  N4  UNL     1      21.938   4.228  47.688  1.00  0.00     0.098 N 
HETATM   22  C18 UNL     1      21.584   3.278  46.634  1.00  0.00     0.276 C 
HETATM   23  C19 UNL     1      22.228   2.222  47.508  1.00  0.00     0.071 C 
HETATM   24  C20 UNL     1      23.086   3.418  47.949  1.00  0.00     0.260 C 
HETATM   25  H5  UNL     1      22.676   1.083  50.683  1.00  0.00     0.087 HD
ENDROOT
BRANCH   1  26
HETATM   26  N1  UNL     1      25.298   3.125  51.830  1.00  0.00     0.092 N 
HETATM   27  H1  UNL     1      24.821   2.727  52.690  1.00  0.00     0.314 HD
HETATM   28  H2  UNL     1      26.236   3.439  52.166  1.00  0.00     0.314 HD
ENDBRANCH   1  26
BRANCH  12  29
HETATM   29  O1  UNL     1      27.865   8.301  47.199  1.00  0.00    -0.361 OA
HETATM   30  H9  UNL     1      27.214   9.086  47.275  1.00  0.00     0.217 HD
ENDBRANCH  12  29
TORSDOF 2
ENDMDL
MODEL 4
REMARK VINA RESULT:      -7.3      2.382      3.451
REMARK  2 active torsions:
REMARK  status: ('A' for Active; 'I' for Inactive)
REMARK    1  A    between atoms: N1_1  and  C1_2 
REMARK    2  A    between atoms: C10_13  and  O1_14 
ROOT
HETATM    1  C1  UNL     1      29.647   9.712  48.892  1.00  0.00     0.292 C 
HETATM    2  C2  UNL     1      30.918  10.417  49.333  1.00  0.00     0.128 C 
HETATM    3  N2  UNL     1      31.216  11.156  48.296  1.00  0.00    -0.273 NA
HETATM    4  P1  UNL     1      30.055  11.001  46.905  1.00  0.00     0.030 P 
HETATM    5  C3  UNL     1      30.190   9.200  46.465  1.00  0.00     0.009 C 
HETATM    6  C4  UNL     1      29.926   8.874  47.715  1.00  0.00     0.003 C 
HETATM    7  C5  UNL     1      29.916   7.449  48.007  1.00  0.00    -0.001 C 
HETATM    8  C6  UNL     1      28.637   6.818  48.194  1.00  0.00    -0.021 A 
HETATM    9  C7  UNL     1      27.446   7.456  48.027  1.00  0.00     0.012 A 
HETATM   10  C8  UNL     1      26.203   6.902  48.208  1.00  0.00     0.004 A 
HETATM   11  C9  UNL     1      26.113   5.579  48.593  1.00  0.00     0.036 A 
HETATM   12  C10 UNL     1      27.284   4.856  48.784  1.00  0.00     0.066 A 
HETATM   13  C11 UNL     1      28.476   5.487  48.582  1.00  0.00     0.048 A 
HETATM   14  C12 UNL     1      31.005   6.733  48.127  1.00  0.00     0.098 C 
HETATM   15  N3  UNL     1      32.374   6.947  48.048  1.00  0.00    -0.389 N 
HETATM   16  C13 UNL     1      33.348   7.626  48.856  1.00  0.00     0.122 C 
HETATM   17  C14 UNL     1      34.205   8.443  47.891  1.00  0.00     0.027 C 
HETATM   18  C15 UNL     1      33.882   7.808  46.554  1.00  0.00     0.033 C 
HETATM   19  C16 UNL     1      33.304   6.483  47.008  1.00  0.00     0.128 C 
HETATM   20  C17 UNL     1      32.782   8.546  45.856  1.00  0.00     0.279 C 
HETATM   21  N4  UNL     1      31.738   7.645  45.404  1.00  0.00     0.098 N 
HETATM   22  C18 UNL     1      31.698   7.675  43.942  1.00  0.00     0.276 C 
HETATM   23  C19 UNL     1      30.882   8.942  44.091  1.00  0.00     0.071 C 
HETATM   24  C20 UNL     1      30.444   8.251  45.391  1.00  0.00     0.260 C 
HETATM   25  H5  UNL     1      30.472  11.843  45.819  1.00  0.00     0.087 HD
ENDROOT
BRANCH   1  26
HETATM   26  N1  UNL     1      28.661  10.768  48.635  1.00  0.00     0.092 N 
HETATM   27  H1  UNL     1      27.934  10.390  47.961  1.00  0.00     0.314 HD
HETATM   28  H2  UNL     1      29.153  11.520  48.103  1.00  0.00     0.314 HD
ENDBRANCH   1  26
BRANCH  12  29
HETATM   29  O1  UNL     1      27.168   3.535  49.169  1.00  0.00    -0.361 OA
HETATM   30  H9  UNL     1      27.279   3.353  50.170  1.00  0.00     0.217 HD
ENDBRANCH  12  29
TORSDOF 2
ENDMDL
MODEL 5
REMARK VINA RESULT:      -7.2      3.166      5.302
REMARK  2 active torsions:
REMARK  status: ('A' for Active; 'I' for Inactive)
REMARK    1  A    between atoms: N1_1  and  C1_2 
REMARK    2  A    between atoms: C10_13  and  O1_14 
ROOT
HETATM    1  C1  UNL     1      31.418   7.183  48.774  1.00  0.00     0.292 C 
HETATM    2  C2  UNL     1      31.504   8.519  49.489  1.00  0.00     0.128 C 
HETATM    3  N2  UNL     1      30.460   9.162  49.032  1.00  0.00    -0.273 NA
HETATM    4  P1  UNL     1      29.466   8.223  47.834  1.00  0.00     0.030 P 
HETATM    5  C3  UNL     1      30.677   7.914  46.459  1.00  0.00     0.009 C 
HETATM    6  C4  UNL     1      31.524   7.387  47.321  1.00  0.00     0.003 C 
HETATM    7  C5  UNL     1      32.792   6.938  46.767  1.00  0.00    -0.001 C 
HETATM    8  C6  UNL     1      32.984   5.520  46.614  1.00  0.00    -0.021 A 
HETATM    9  C7  UNL     1      32.022   4.593  46.875  1.00  0.00     0.012 A 
HETATM   10  C8  UNL     1      32.163   3.232  46.758  1.00  0.00     0.004 A 
HETATM   11  C9  UNL     1      33.376   2.721  46.341  1.00  0.00     0.036 A 
HETATM   12  C10 UNL     1      34.412   3.603  46.054  1.00  0.00     0.066 A 
HETATM   13  C11 UNL     1      34.184   4.939  46.197  1.00  0.00     0.048 A 
HETATM   14  C12 UNL     1      33.757   7.753  46.427  1.00  0.00     0.098 C 
HETATM   15  N3  UNL     1      33.976   9.124  46.434  1.00  0.00    -0.389 N 
HETATM   16  C13 UNL     1      34.188  10.118  47.448  1.00  0.00     0.122 C 
HETATM   17  C14 UNL     1      33.298  11.302  47.075  1.00  0.00     0.027 C 
HETATM   18  C15 UNL     1      32.970  11.015  45.624  1.00  0.00     0.033 C 
HETATM   19  C16 UNL     1      34.069  10.031  45.281  1.00  0.00     0.128 C 
HETATM   20  C17 UNL     1      31.672  10.280  45.497  1.00  0.00     0.279 C 
HETATM   21  N4  UNL     1      31.804   9.106  44.656  1.00  0.00     0.098 N 
HETATM   22  C18 UNL     1      30.978   9.293  43.463  1.00  0.00     0.276 C 
HETATM   23  C19 UNL     1      29.813   8.849  44.323  1.00  0.00     0.071 C 
HETATM   24  C20 UNL     1      30.918   8.049  45.029  1.00  0.00     0.260 C 
HETATM   25  H5  UNL     1      28.353   9.013  47.391  1.00  0.00     0.087 HD
ENDROOT
BRANCH   1  26
HETATM   26  N1  UNL     1      30.146   6.579  49.186  1.00  0.00     0.092 N 
HETATM   27  H1  UNL     1      29.658   6.204  48.323  1.00  0.00     0.314 HD
HETATM   28  H2  UNL     1      29.535   7.357  49.521  1.00  0.00     0.314 HD
ENDBRANCH   1  26
BRANCH  12  29
HETATM   29  O1  UNL     1      35.614   3.067  45.639  1.00  0.00    -0.361 OA
HETATM   30  H9  UNL     1      35.676   2.046  45.658  1.00  0.00     0.217 HD
ENDBRANCH  12  29
TORSDOF 2
ENDMDL
MODEL 6
REMARK VINA RESULT:      -7.2      9.596     11.698
REMARK  2 active torsions:
REMARK  status: ('A' for Active; 'I' for Inactive)
REMARK    1  A    between atoms: N1_1  and  C1_2 
REMARK    2  A    between atoms: C10_13  and  O1_14 
ROOT
HETATM    1  C1  UNL     1      24.050   5.019  50.747  1.00  0.00     0.292 C 
HETATM    2  C2  UNL     1      23.706   5.667  49.418  1.00  0.00     0.128 C 
HETATM    3  N2  UNL     1      22.558   6.244  49.664  1.00  0.00    -0.273 NA
HETATM    4  P1  UNL     1      21.950   6.012  51.362  1.00  0.00     0.030 P 
HETATM    5  C3  UNL     1      21.774   4.166  51.478  1.00  0.00     0.009 C 
HETATM    6  C4  UNL     1      23.026   4.020  51.094  1.00  0.00     0.003 C 
HETATM    7  C5  UNL     1      23.494   2.648  50.971  1.00  0.00    -0.001 C 
HETATM    8  C6  UNL     1      24.372   2.152  51.997  1.00  0.00    -0.021 A 
HETATM    9  C7  UNL     1      24.714   2.859  53.108  1.00  0.00     0.012 A 
HETATM   10  C8  UNL     1      25.558   2.434  54.106  1.00  0.00     0.004 A 
HETATM   11  C9  UNL     1      26.130   1.182  54.006  1.00  0.00     0.036 A 
HETATM   12  C10 UNL     1      25.831   0.395  52.899  1.00  0.00     0.066 A 
HETATM   13  C11 UNL     1      24.982   0.897  51.957  1.00  0.00     0.048 A 
HETATM   14  C12 UNL     1      23.173   1.867  49.972  1.00  0.00     0.098 C 
HETATM   15  N3  UNL     1      22.406   1.958  48.818  1.00  0.00    -0.389 N 
HETATM   16  C13 UNL     1      22.526   2.650  47.567  1.00  0.00     0.122 C 
HETATM   17  C14 UNL     1      21.156   3.268  47.290  1.00  0.00     0.027 C 
HETATM   18  C15 UNL     1      20.258   2.500  48.238  1.00  0.00     0.033 C 
HETATM   19  C16 UNL     1      21.127   1.294  48.528  1.00  0.00     0.128 C 
HETATM   20  C17 UNL     1      20.084   3.232  49.532  1.00  0.00     0.279 C 
HETATM   21  N4  UNL     1      20.337   2.370  50.671  1.00  0.00     0.098 N 
HETATM   22  C18 UNL     1      19.094   2.221  51.428  1.00  0.00     0.276 C 
HETATM   23  C19 UNL     1      19.432   3.558  52.053  1.00  0.00     0.071 C 
HETATM   24  C20 UNL     1      20.867   3.072  51.797  1.00  0.00     0.260 C 
HETATM   25  H5  UNL     1      20.688   6.676  51.528  1.00  0.00     0.087 HD
ENDROOT
BRANCH   1  26
HETATM   26  N1  UNL     1      24.153   6.110  51.721  1.00  0.00     0.092 N 
HETATM   27  H1  UNL     1      24.393   7.003  51.201  1.00  0.00     0.314 HD
HETATM   28  H2  UNL     1      24.992   5.912  52.311  1.00  0.00     0.314 HD
ENDBRANCH   1  26
BRANCH  12  29
HETATM   29  O1  UNL     1      26.415  -0.853  52.822  1.00  0.00    -0.361 OA
HETATM   30  H9  UNL     1      26.058  -1.552  53.479  1.00  0.00     0.217 HD
ENDBRANCH  12  29
TORSDOF 2
ENDMDL
MODEL 7
REMARK VINA RESULT:      -6.9      3.596      6.237
REMARK  2 active torsions:
REMARK  status: ('A' for Active; 'I' for Inactive)
REMARK    1  A    between atoms: N1_1  and  C1_2 
REMARK    2  A    between atoms: C10_13  and  O1_14 
ROOT
HETATM    1  C1  UNL     1      26.644   9.439  46.301  1.00  0.00     0.292 C 
HETATM    2  C2  UNL     1      27.262  10.739  45.817  1.00  0.00     0.128 C 
HETATM    3  N2  UNL     1      28.210  10.330  45.014  1.00  0.00    -0.273 NA
HETATM    4  P1  UNL     1      28.341   8.522  44.867  1.00  0.00     0.030 P 
HETATM    5  C3  UNL     1      28.713   8.001  46.612  1.00  0.00     0.009 C 
HETATM    6  C4  UNL     1      27.648   8.653  47.035  1.00  0.00     0.003 C 
HETATM    7  C5  UNL     1      27.414   8.616  48.470  1.00  0.00    -0.001 C 
HETATM    8  C6  UNL     1      26.354   7.769  48.949  1.00  0.00    -0.021 A 
HETATM    9  C7  UNL     1      25.625   6.943  48.148  1.00  0.00     0.012 A 
HETATM   10  C8  UNL     1      24.597   6.128  48.555  1.00  0.00     0.004 A 
HETATM   11  C9  UNL     1      24.242   6.120  49.889  1.00  0.00     0.036 A 
HETATM   12  C10 UNL     1      24.939   6.936  50.774  1.00  0.00     0.066 A 
HETATM   13  C11 UNL     1      25.946   7.713  50.283  1.00  0.00     0.048 A 
HETATM   14  C12 UNL     1      28.101   9.326  49.329  1.00  0.00     0.098 C 
HETATM   15  N3  UNL     1      29.143  10.242  49.285  1.00  0.00    -0.389 N 
HETATM   16  C13 UNL     1      29.292  11.595  48.828  1.00  0.00     0.122 C 
HETATM   17  C14 UNL     1      30.593  11.632  48.028  1.00  0.00     0.027 C 
HETATM   18  C15 UNL     1      31.280  10.355  48.468  1.00  0.00     0.033 C 
HETATM   19  C16 UNL     1      30.526  10.061  49.749  1.00  0.00     0.128 C 
HETATM   20  C17 UNL     1      30.987   9.231  47.524  1.00  0.00     0.279 C 
HETATM   21  N4  UNL     1      30.536   8.045  48.229  1.00  0.00     0.098 N 
HETATM   22  C18 UNL     1      31.525   6.985  48.035  1.00  0.00     0.276 C 
HETATM   23  C19 UNL     1      30.856   6.744  46.698  1.00  0.00     0.071 C 
HETATM   24  C20 UNL     1      29.626   7.253  47.464  1.00  0.00     0.260 C 
HETATM   25  H5  UNL     1      29.409   8.176  43.973  1.00  0.00     0.087 HD
ENDROOT
BRANCH   1  26
HETATM   26  N1  UNL     1      26.132   8.759  45.106  1.00  0.00     0.092 N 
HETATM   27  H1  UNL     1      25.923   9.491  44.367  1.00  0.00     0.314 HD
HETATM   28  H2  UNL     1      25.199   8.362  45.360  1.00  0.00     0.314 HD
ENDBRANCH   1  26
BRANCH  12  29
HETATM   29  O1  UNL     1      24.565   6.909  52.102  1.00  0.00    -0.361 OA
HETATM   30  H9  UNL     1      24.312   5.990  52.474  1.00  0.00     0.217 HD
ENDBRANCH  12  29
TORSDOF 2
ENDMDL
MODEL 8
REMARK VINA RESULT:      -6.7      2.806      5.865
REMARK  2 active torsions:
REMARK  status: ('A' for Active; 'I' for Inactive)
REMARK    1  A    between atoms: N1_1  and  C1_2 
REMARK    2  A    between atoms: C10_13  and  O1_14 
ROOT
HETATM    1  C1  UNL     1      34.272   7.114  46.820  1.00  0.00     0.292 C 
HETATM    2  C2  UNL     1      34.544   8.223  47.821  1.00  0.00     0.128 C 
HETATM    3  N2  UNL     1      33.991   7.769  48.916  1.00  0.00    -0.273 NA
HETATM    4  P1  UNL     1      33.205   6.139  48.740  1.00  0.00     0.030 P 
HETATM    5  C3  UNL     1      31.903   6.455  47.451  1.00  0.00     0.009 C 
HETATM    6  C4  UNL     1      32.821   6.947  46.643  1.00  0.00     0.003 C 
HETATM    7  C5  UNL     1      32.338   7.425  45.357  1.00  0.00    -0.001 C 
HETATM    8  C6  UNL     1      32.606   6.609  44.202  1.00  0.00    -0.021 A 
HETATM    9  C7  UNL     1      33.202   5.387  44.260  1.00  0.00     0.012 A 
HETATM   10  C8  UNL     1      33.490   4.580  43.187  1.00  0.00     0.004 A 
HETATM   11  C9  UNL     1      33.161   5.014  41.919  1.00  0.00     0.036 A 
HETATM   12  C10 UNL     1      32.548   6.254  41.773  1.00  0.00     0.066 A 
HETATM   13  C11 UNL     1      32.299   6.990  42.894  1.00  0.00     0.048 A 
HETATM   14  C12 UNL     1      31.701   8.558  45.205  1.00  0.00     0.098 C 
HETATM   15  N3  UNL     1      31.280   9.602  46.017  1.00  0.00    -0.389 N 
HETATM   16  C13 UNL     1      31.930  10.657  46.741  1.00  0.00     0.122 C 
HETATM   17  C14 UNL     1      31.283  10.684  48.124  1.00  0.00     0.027 C 
HETATM   18  C15 UNL     1      30.012   9.889  47.903  1.00  0.00     0.033 C 
HETATM   19  C16 UNL     1      29.903   9.955  46.394  1.00  0.00     0.128 C 
HETATM   20  C17 UNL     1      30.205   8.449  48.262  1.00  0.00     0.279 C 
HETATM   21  N4  UNL     1      29.750   7.568  47.203  1.00  0.00     0.098 N 
HETATM   22  C18 UNL     1      28.618   6.787  47.702  1.00  0.00     0.276 C 
HETATM   23  C19 UNL     1      29.653   5.885  48.342  1.00  0.00     0.071 C 
HETATM   24  C20 UNL     1      30.486   6.346  47.137  1.00  0.00     0.260 C 
HETATM   25  H5  UNL     1      32.626   5.734  49.989  1.00  0.00     0.087 HD
ENDROOT
BRANCH   1  26
HETATM   26  N1  UNL     1      34.937   5.916  47.345  1.00  0.00     0.092 N 
HETATM   27  H1  UNL     1      35.783   5.710  46.740  1.00  0.00     0.314 HD
HETATM   28  H2  UNL     1      34.289   5.114  47.182  1.00  0.00     0.314 HD
ENDBRANCH   1  26
BRANCH  12  29
HETATM   29  O1  UNL     1      32.229   6.666  40.495  1.00  0.00    -0.361 OA
HETATM   30  H9  UNL     1      32.851   6.337  39.754  1.00  0.00     0.217 HD
ENDBRANCH  12  29
TORSDOF 2
ENDMDL
MODEL 9
REMARK VINA RESULT:      -6.6      3.280      6.627
REMARK  2 active torsions:
REMARK  status: ('A' for Active; 'I' for Inactive)
REMARK    1  A    between atoms: N1_1  and  C1_2 
REMARK    2  A    between atoms: C10_13  and  O1_14 
ROOT
HETATM    1  C1  UNL     1      29.437   8.345  44.870  1.00  0.00     0.292 C 
HETATM    2  C2  UNL     1      28.019   8.851  44.675  1.00  0.00     0.128 C 
HETATM    3  N2  UNL     1      28.177  10.149  44.628  1.00  0.00    -0.273 NA
HETATM    4  P1  UNL     1      29.900  10.702  44.811  1.00  0.00     0.030 P 
HETATM    5  C3  UNL     1      30.351  10.065  46.497  1.00  0.00     0.009 C 
HETATM    6  C4  UNL     1      29.977   8.852  46.141  1.00  0.00     0.003 C 
HETATM    7  C5  UNL     1      30.096   7.828  47.167  1.00  0.00    -0.001 C 
HETATM    8  C6  UNL     1      31.179   6.888  47.045  1.00  0.00    -0.021 A 
HETATM    9  C7  UNL     1      32.138   6.959  46.082  1.00  0.00     0.012 A 
HETATM   10  C8  UNL     1      33.180   6.080  45.916  1.00  0.00     0.004 A 
HETATM   11  C9  UNL     1      33.298   5.015  46.787  1.00  0.00     0.036 A 
HETATM   12  C10 UNL     1      32.357   4.872  47.801  1.00  0.00     0.066 A 
HETATM   13  C11 UNL     1      31.355   5.792  47.891  1.00  0.00     0.048 A 
HETATM   14  C12 UNL     1      29.261   7.713  48.168  1.00  0.00     0.098 C 
HETATM   15  N3  UNL     1      28.123   8.368  48.620  1.00  0.00    -0.389 N 
HETATM   16  C13 UNL     1      26.765   8.482  48.170  1.00  0.00     0.122 C 
HETATM   17  C14 UNL     1      26.406   9.964  48.273  1.00  0.00     0.027 C 
HETATM   18  C15 UNL     1      27.494  10.497  49.184  1.00  0.00     0.033 C 
HETATM   19  C16 UNL     1      27.981   9.210  49.817  1.00  0.00     0.128 C 
HETATM   20  C17 UNL     1      28.637  11.054  48.395  1.00  0.00     0.279 C 
HETATM   21  N4  UNL     1      29.908  10.524  48.850  1.00  0.00     0.098 N 
HETATM   22  C18 UNL     1      30.702  11.624  49.398  1.00  0.00     0.276 C 
HETATM   23  C19 UNL     1      31.068  11.941  47.964  1.00  0.00     0.071 C 
HETATM   24  C20 UNL     1      30.879  10.425  47.806  1.00  0.00     0.260 C 
HETATM   25  H5  UNL     1      29.966  12.135  44.751  1.00  0.00     0.087 HD
ENDROOT
BRANCH   1  26
HETATM   26  N1  UNL     1      30.196   8.789  43.696  1.00  0.00     0.092 N 
HETATM   27  H1  UNL     1      29.559   8.744  42.849  1.00  0.00     0.314 HD
HETATM   28  H2  UNL     1      30.928   8.065  43.517  1.00  0.00     0.314 HD
ENDBRANCH   1  26
BRANCH  12  29
HETATM   29  O1  UNL     1      32.497   3.799  48.659  1.00  0.00    -0.361 OA
HETATM   30  H9  UNL     1      32.515   2.876  48.217  1.00  0.00     0.217 HD
ENDBRANCH  12  29
TORSDOF 2
ENDMDL
