MODEL 1
REMARK VINA RESULT:      -9.5      0.000      0.000
REMARK  4 active torsions:
REMARK  status: ('A' for Active; 'I' for Inactive)
REMARK    1  A    between atoms: O1_2  and  C2_3 
REMARK    2  A    between atoms: C8_11  and  C9_12 
REMARK    3  A    between atoms: C12_15  and  C13_16 
REMARK    4  A    between atoms: C13_16  and  N1_17 
ROOT
HETATM    1  C9  UNL     1      25.103   0.877  52.775  1.00  0.00    -0.024 A 
HETATM    2  C10 UNL     1      25.721   2.078  53.137  1.00  0.00     0.013 A 
HETATM    3  C11 UNL     1      27.077   2.087  53.491  1.00  0.00     0.011 A 
HETATM    4  C12 UNL     1      27.828   0.922  53.490  1.00  0.00    -0.010 A 
HETATM    5  C14 UNL     1      27.183  -0.241  53.128  1.00  0.00     0.053 A 
HETATM    6  C15 UNL     1      27.866  -1.494  53.094  1.00  0.00     0.100 C 
HETATM    7  N2  UNL     1      28.431  -2.522  53.068  1.00  0.00    -0.191 NA
HETATM    8  C16 UNL     1      25.853  -0.250  52.781  1.00  0.00     0.035 A 
ENDROOT
BRANCH   4   9
HETATM    9  C13 UNL     1      29.275   0.916  53.863  1.00  0.00     0.306 C 
BRANCH   9  10
HETATM   10  N1  UNL     1      29.581   2.108  54.604  1.00  0.00     0.082 N 
HETATM   11  H13 UNL     1      30.558   2.404  54.543  1.00  0.00     0.313 HD
HETATM   12  H14 UNL     1      28.993   2.889  54.244  1.00  0.00     0.313 HD
ENDBRANCH   9  10
ENDBRANCH   4   9
BRANCH   1  13
HETATM   13  C8  UNL     1      23.713   1.184  52.473  1.00  0.00    -0.001 C 
HETATM   14  C7  UNL     1      22.864   0.182  52.552  1.00  0.00     0.063 C 
HETATM   15  O3  UNL     1      22.841  -0.940  53.345  1.00  0.00    -0.328 OA
HETATM   16  C20 UNL     1      21.696   0.287  51.596  1.00  0.00     0.124 C 
HETATM   17  C6  UNL     1      22.296  -0.806  54.671  1.00  0.00     0.363 C 
HETATM   18  O2  UNL     1      21.154  -1.631  54.832  1.00  0.00    -0.277 OA
HETATM   19  C5  UNL     1      20.050  -1.516  54.136  1.00  0.00     0.056 C 
HETATM   20  C4  UNL     1      19.080  -1.407  53.545  1.00  0.00    -0.071 C 
HETATM   21  C3  UNL     1      17.865  -1.270  52.834  1.00  0.00     0.157 C 
HETATM   22  C2  UNL     1      18.035  -0.476  51.545  1.00  0.00     0.275 C 
HETATM   23  O4  UNL     1      18.369   0.848  51.879  1.00  0.00    -0.330 OA
HETATM   24  C19 UNL     1      19.641   1.308  52.083  1.00  0.00     0.163 C 
HETATM   25  C18 UNL     1      20.929   1.476  52.147  1.00  0.00     0.033 C 
HETATM   26  N3  UNL     1      21.739   2.531  52.640  1.00  0.00    -0.387 N 
HETATM   27  C17 UNL     1      23.100   2.482  52.093  1.00  0.00     0.161 C 
HETATM   28  H18 UNL     1      21.184   3.143  53.309  1.00  0.00     0.159 HD
BRANCH  22  29
HETATM   29  O1  UNL     1      16.794  -0.400  50.886  1.00  0.00    -0.365 OA
HETATM   30  C1  UNL     1      16.983   0.212  49.633  1.00  0.00     0.204 C 
ENDBRANCH  22  29
ENDBRANCH   1  13
TORSDOF 4
ENDMDL
MODEL 2
REMARK VINA RESULT:      -8.6      2.853      8.418
REMARK  4 active torsions:
REMARK  status: ('A' for Active; 'I' for Inactive)
REMARK    1  A    between atoms: O1_2  and  C2_3 
REMARK    2  A    between atoms: C8_11  and  C9_12 
REMARK    3  A    between atoms: C12_15  and  C13_16 
REMARK    4  A    between atoms: C13_16  and  N1_17 
ROOT
HETATM    1  C9  UNL     1      20.827  -0.451  52.973  1.00  0.00    -0.024 A 
HETATM    2  C10 UNL     1      19.891  -1.166  53.726  1.00  0.00     0.013 A 
HETATM    3  C11 UNL     1      18.538  -1.145  53.363  1.00  0.00     0.011 A 
HETATM    4  C12 UNL     1      18.100  -0.423  52.263  1.00  0.00    -0.010 A 
HETATM    5  C14 UNL     1      19.053   0.270  51.547  1.00  0.00     0.053 A 
HETATM    6  C15 UNL     1      18.707   1.043  50.398  1.00  0.00     0.100 C 
HETATM    7  N2  UNL     1      18.419   1.678  49.454  1.00  0.00    -0.191 NA
HETATM    8  C16 UNL     1      20.380   0.248  51.904  1.00  0.00     0.035 A 
ENDROOT
BRANCH   4   9
HETATM    9  C13 UNL     1      16.661  -0.391  51.862  1.00  0.00     0.306 C 
BRANCH   9  10
HETATM   10  N1  UNL     1      15.874  -1.059  52.860  1.00  0.00     0.082 N 
HETATM   11  H13 UNL     1      15.756  -2.063  52.703  1.00  0.00     0.313 HD
HETATM   12  H14 UNL     1      16.333  -0.939  53.788  1.00  0.00     0.313 HD
ENDBRANCH   9  10
ENDBRANCH   4   9
BRANCH   1  13
HETATM   13  C8  UNL     1      22.127  -0.660  53.593  1.00  0.00    -0.001 C 
HETATM   14  C7  UNL     1      23.149  -0.061  53.021  1.00  0.00     0.063 C 
HETATM   15  O3  UNL     1      23.247   1.119  52.322  1.00  0.00    -0.328 OA
HETATM   16  C20 UNL     1      24.458  -0.806  53.162  1.00  0.00     0.124 C 
HETATM   17  C6  UNL     1      23.385   2.333  53.084  1.00  0.00     0.363 C 
HETATM   18  O2  UNL     1      24.617   2.973  52.792  1.00  0.00    -0.277 OA
HETATM   19  C5  UNL     1      25.798   2.448  53.012  1.00  0.00     0.056 C 
HETATM   20  C4  UNL     1      26.828   2.003  53.219  1.00  0.00    -0.071 C 
HETATM   21  C3  UNL     1      28.110   1.471  53.489  1.00  0.00     0.157 C 
HETATM   22  C2  UNL     1      28.082  -0.041  53.678  1.00  0.00     0.275 C 
HETATM   23  O4  UNL     1      27.356  -0.329  54.847  1.00  0.00    -0.330 OA
HETATM   24  C19 UNL     1      26.001  -0.507  54.904  1.00  0.00     0.163 C 
HETATM   25  C18 UNL     1      24.739  -0.694  54.650  1.00  0.00     0.033 C 
HETATM   26  N3  UNL     1      23.594  -0.794  55.482  1.00  0.00    -0.387 N 
HETATM   27  C17 UNL     1      22.474  -1.453  54.799  1.00  0.00     0.161 C 
HETATM   28  H18 UNL     1      23.791  -0.368  56.436  1.00  0.00     0.159 HD
BRANCH  22  29
HETATM   29  O1  UNL     1      29.391  -0.497  53.922  1.00  0.00    -0.365 OA
HETATM   30  C1  UNL     1      29.530  -1.786  53.376  1.00  0.00     0.204 C 
ENDBRANCH  22  29
ENDBRANCH   1  13
TORSDOF 4
ENDMDL
MODEL 3
REMARK VINA RESULT:      -8.6      4.877      6.396
REMARK  4 active torsions:
REMARK  status: ('A' for Active; 'I' for Inactive)
REMARK    1  A    between atoms: O1_2  and  C2_3 
REMARK    2  A    between atoms: C8_11  and  C9_12 
REMARK    3  A    between atoms: C12_15  and  C13_16 
REMARK    4  A    between atoms: C13_16  and  N1_17 
ROOT
HETATM    1  C9  UNL     1      26.424   5.264  49.312  1.00  0.00    -0.024 A 
HETATM    2  C10 UNL     1      25.937   6.454  48.764  1.00  0.00     0.013 A 
HETATM    3  C11 UNL     1      26.755   7.226  47.930  1.00  0.00     0.011 A 
HETATM    4  C12 UNL     1      28.052   6.835  47.632  1.00  0.00    -0.010 A 
HETATM    5  C14 UNL     1      28.496   5.656  48.192  1.00  0.00     0.053 A 
HETATM    6  C15 UNL     1      29.813   5.164  47.949  1.00  0.00     0.100 C 
HETATM    7  N2  UNL     1      30.898   4.764  47.747  1.00  0.00    -0.191 NA
HETATM    8  C16 UNL     1      27.692   4.898  49.011  1.00  0.00     0.035 A 
ENDROOT
BRANCH   4   9
HETATM    9  C13 UNL     1      28.937   7.646  46.743  1.00  0.00     0.306 C 
BRANCH   9  10
HETATM   10  N1  UNL     1      29.445   8.772  47.476  1.00  0.00     0.082 N 
HETATM   11  H13 UNL     1      29.364   8.685  48.492  1.00  0.00     0.313 HD
HETATM   12  H14 UNL     1      30.454   8.894  47.252  1.00  0.00     0.313 HD
ENDBRANCH   9  10
ENDBRANCH   4   9
BRANCH   1  13
HETATM   13  C8  UNL     1      25.359   4.698  50.127  1.00  0.00    -0.001 C 
HETATM   14  C7  UNL     1      25.434   3.408  50.372  1.00  0.00     0.063 C 
HETATM   15  O3  UNL     1      26.509   2.562  50.511  1.00  0.00    -0.328 OA
HETATM   16  C20 UNL     1      24.090   2.732  50.533  1.00  0.00     0.124 C 
HETATM   17  C6  UNL     1      27.150   2.508  51.799  1.00  0.00     0.363 C 
HETATM   18  O2  UNL     1      27.057   1.205  52.353  1.00  0.00    -0.277 OA
HETATM   19  C5  UNL     1      25.932   0.602  52.650  1.00  0.00     0.056 C 
HETATM   20  C4  UNL     1      24.956   0.080  52.927  1.00  0.00    -0.071 C 
HETATM   21  C3  UNL     1      23.754  -0.570  53.294  1.00  0.00     0.157 C 
HETATM   22  C2  UNL     1      22.536   0.038  52.609  1.00  0.00     0.275 C 
HETATM   23  O4  UNL     1      22.360   1.346  53.093  1.00  0.00    -0.330 OA
HETATM   24  C19 UNL     1      22.951   2.462  52.566  1.00  0.00     0.163 C 
HETATM   25  C18 UNL     1      23.577   3.332  51.830  1.00  0.00     0.033 C 
HETATM   26  N3  UNL     1      23.880   4.706  52.011  1.00  0.00    -0.387 N 
HETATM   27  C17 UNL     1      24.189   5.375  50.741  1.00  0.00     0.161 C 
HETATM   28  H18 UNL     1      23.818   4.967  53.040  1.00  0.00     0.159 HD
BRANCH  22  29
HETATM   29  O1  UNL     1      21.387  -0.671  53.007  1.00  0.00    -0.365 OA
HETATM   30  C1  UNL     1      21.520  -1.026  54.361  1.00  0.00     0.204 C 
ENDBRANCH  22  29
ENDBRANCH   1  13
TORSDOF 4
ENDMDL
MODEL 4
REMARK VINA RESULT:      -8.5      2.281      3.888
REMARK  4 active torsions:
REMARK  status: ('A' for Active; 'I' for Inactive)
REMARK    1  A    between atoms: O1_2  and  C2_3 
REMARK    2  A    between atoms: C8_11  and  C9_12 
REMARK    3  A    between atoms: C12_15  and  C13_16 
REMARK    4  A    between atoms: C13_16  and  N1_17 
ROOT
HETATM    1  C9  UNL     1      25.323   0.121  53.245  1.00  0.00    -0.024 A 
HETATM    2  C10 UNL     1      25.669  -1.150  52.777  1.00  0.00     0.013 A 
HETATM    3  C11 UNL     1      27.002  -1.575  52.830  1.00  0.00     0.011 A 
HETATM    4  C12 UNL     1      27.998  -0.757  53.342  1.00  0.00    -0.010 A 
HETATM    5  C14 UNL     1      27.617   0.488  53.792  1.00  0.00     0.053 A 
HETATM    6  C15 UNL     1      28.564   1.407  54.338  1.00  0.00     0.100 C 
HETATM    7  N2  UNL     1      29.346   2.159  54.785  1.00  0.00    -0.191 NA
HETATM    8  C16 UNL     1      26.308   0.906  53.740  1.00  0.00     0.035 A 
ENDROOT
BRANCH   4   9
HETATM    9  C13 UNL     1      29.425  -1.197  53.407  1.00  0.00     0.306 C 
BRANCH   9  10
HETATM   10  N1  UNL     1      29.479  -2.632  53.434  1.00  0.00     0.082 N 
HETATM   11  H13 UNL     1      28.626  -3.080  53.776  1.00  0.00     0.313 HD
HETATM   12  H14 UNL     1      29.651  -2.981  52.467  1.00  0.00     0.313 HD
ENDBRANCH   9  10
ENDBRANCH   4   9
BRANCH   1  13
HETATM   13  C8  UNL     1      23.888   0.274  53.053  1.00  0.00    -0.001 C 
HETATM   14  C7  UNL     1      23.479   1.444  52.613  1.00  0.00     0.063 C 
HETATM   15  O3  UNL     1      24.073   2.374  51.793  1.00  0.00    -0.328 OA
HETATM   16  C20 UNL     1      22.100   1.837  53.097  1.00  0.00     0.124 C 
HETATM   17  C6  UNL     1      23.964   2.172  50.372  1.00  0.00     0.363 C 
HETATM   18  O2  UNL     1      23.262   3.245  49.763  1.00  0.00    -0.277 OA
HETATM   19  C5  UNL     1      22.020   3.565  50.028  1.00  0.00     0.056 C 
HETATM   20  C4  UNL     1      20.932   3.836  50.242  1.00  0.00    -0.071 C 
HETATM   21  C3  UNL     1      19.579   4.170  50.483  1.00  0.00     0.157 C 
HETATM   22  C2  UNL     1      19.066   3.594  51.797  1.00  0.00     0.275 C 
HETATM   23  O4  UNL     1      19.042   2.192  51.688  1.00  0.00    -0.330 OA
HETATM   24  C19 UNL     1      20.093   1.366  51.979  1.00  0.00     0.163 C 
HETATM   25  C18 UNL     1      21.208   0.835  52.387  1.00  0.00     0.033 C 
HETATM   26  N3  UNL     1      21.746  -0.473  52.283  1.00  0.00    -0.387 N 
HETATM   27  C17 UNL     1      22.802  -0.715  53.273  1.00  0.00     0.161 C 
HETATM   28  H18 UNL     1      21.266  -1.011  51.501  1.00  0.00     0.159 HD
BRANCH  22  29
HETATM   29  O1  UNL     1      17.725   3.983  51.975  1.00  0.00    -0.365 OA
HETATM   30  C1  UNL     1      17.086   3.991  50.722  1.00  0.00     0.204 C 
ENDBRANCH  22  29
ENDBRANCH   1  13
TORSDOF 4
ENDMDL
MODEL 5
REMARK VINA RESULT:      -8.2      4.978      7.568
REMARK  4 active torsions:
REMARK  status: ('A' for Active; 'I' for Inactive)
REMARK    1  A    between atoms: O1_2  and  C2_3 
REMARK    2  A    between atoms: C8_11  and  C9_12 
REMARK    3  A    between atoms: C12_15  and  C13_16 
REMARK    4  A    between atoms: C13_16  and  N1_17 
ROOT
HETATM    1  C9  UNL     1      23.887   1.445  52.082  1.00  0.00    -0.024 A 
HETATM    2  C10 UNL     1      24.840   0.769  52.850  1.00  0.00     0.013 A 
HETATM    3  C11 UNL     1      24.433  -0.211  53.764  1.00  0.00     0.011 A 
HETATM    4  C12 UNL     1      23.094  -0.530  53.928  1.00  0.00    -0.010 A 
HETATM    5  C14 UNL     1      22.185   0.159  53.154  1.00  0.00     0.053 A 
HETATM    6  C15 UNL     1      20.783  -0.093  53.245  1.00  0.00     0.100 C 
HETATM    7  N2  UNL     1      19.631  -0.304  53.324  1.00  0.00    -0.191 NA
HETATM    8  C16 UNL     1      22.585   1.121  52.256  1.00  0.00     0.035 A 
ENDROOT
BRANCH   4   9
HETATM    9  C13 UNL     1      22.644  -1.574  54.898  1.00  0.00     0.306 C 
BRANCH   9  10
HETATM   10  N1  UNL     1      23.559  -1.623  56.003  1.00  0.00     0.082 N 
HETATM   11  H13 UNL     1      24.496  -1.271  55.791  1.00  0.00     0.313 HD
HETATM   12  H14 UNL     1      23.178  -1.048  56.783  1.00  0.00     0.313 HD
ENDBRANCH   9  10
ENDBRANCH   4   9
BRANCH   1  13
HETATM   13  C8  UNL     1      24.606   2.393  51.243  1.00  0.00    -0.001 C 
HETATM   14  C7  UNL     1      23.897   3.379  50.738  1.00  0.00     0.063 C 
HETATM   15  O3  UNL     1      22.792   4.049  51.208  1.00  0.00    -0.328 OA
HETATM   16  C20 UNL     1      24.390   3.868  49.394  1.00  0.00     0.124 C 
HETATM   17  C6  UNL     1      23.013   5.125  52.139  1.00  0.00     0.363 C 
HETATM   18  O2  UNL     1      22.555   6.357  51.604  1.00  0.00    -0.277 OA
HETATM   19  C5  UNL     1      23.027   6.916  50.517  1.00  0.00     0.056 C 
HETATM   20  C4  UNL     1      23.447   7.416  49.581  1.00  0.00    -0.071 C 
HETATM   21  C3  UNL     1      23.972   8.056  48.435  1.00  0.00     0.157 C 
HETATM   22  C2  UNL     1      24.746   7.096  47.539  1.00  0.00     0.275 C 
HETATM   23  O4  UNL     1      25.894   6.670  48.230  1.00  0.00    -0.330 OA
HETATM   24  C19 UNL     1      25.946   5.594  49.073  1.00  0.00     0.163 C 
HETATM   25  C18 UNL     1      25.723   4.504  49.747  1.00  0.00     0.033 C 
HETATM   26  N3  UNL     1      26.465   3.818  50.743  1.00  0.00    -0.387 N 
HETATM   27  C17 UNL     1      26.044   2.418  50.877  1.00  0.00     0.161 C 
HETATM   28  H18 UNL     1      27.179   4.469  51.187  1.00  0.00     0.159 HD
BRANCH  22  29
HETATM   29  O1  UNL     1      25.219   7.798  46.415  1.00  0.00    -0.365 OA
HETATM   30  C1  UNL     1      26.425   8.437  46.755  1.00  0.00     0.204 C 
ENDBRANCH  22  29
ENDBRANCH   1  13
TORSDOF 4
ENDMDL
MODEL 6
REMARK VINA RESULT:      -8.2      5.046      7.659
REMARK  4 active torsions:
REMARK  status: ('A' for Active; 'I' for Inactive)
REMARK    1  A    between atoms: O1_2  and  C2_3 
REMARK    2  A    between atoms: C8_11  and  C9_12 
REMARK    3  A    between atoms: C12_15  and  C13_16 
REMARK    4  A    between atoms: C13_16  and  N1_17 
ROOT
HETATM    1  C9  UNL     1      23.038   1.737  51.636  1.00  0.00    -0.024 A 
HETATM    2  C10 UNL     1      21.729   1.266  51.778  1.00  0.00     0.013 A 
HETATM    3  C11 UNL     1      21.456   0.216  52.663  1.00  0.00     0.011 A 
HETATM    4  C12 UNL     1      22.463  -0.376  53.409  1.00  0.00    -0.010 A 
HETATM    5  C14 UNL     1      23.740   0.115  53.241  1.00  0.00     0.053 A 
HETATM    6  C15 UNL     1      24.848  -0.423  53.962  1.00  0.00     0.100 C 
HETATM    7  N2  UNL     1      25.757  -0.870  54.556  1.00  0.00    -0.191 NA
HETATM    8  C16 UNL     1      24.008   1.146  52.372  1.00  0.00     0.035 A 
ENDROOT
BRANCH   4   9
HETATM    9  C13 UNL     1      22.188  -1.496  54.359  1.00  0.00     0.306 C 
BRANCH   9  10
HETATM   10  N1  UNL     1      20.773  -1.591  54.586  1.00  0.00     0.082 N 
HETATM   11  H13 UNL     1      20.425  -2.547  54.691  1.00  0.00     0.313 HD
HETATM   12  H14 UNL     1      20.535  -1.073  55.458  1.00  0.00     0.313 HD
ENDBRANCH   9  10
ENDBRANCH   4   9
BRANCH   1  13
HETATM   13  C8  UNL     1      23.004   2.811  50.654  1.00  0.00    -0.001 C 
HETATM   14  C7  UNL     1      24.044   3.616  50.635  1.00  0.00     0.063 C 
HETATM   15  O3  UNL     1      25.372   3.406  50.923  1.00  0.00    -0.328 OA
HETATM   16  C20 UNL     1      23.720   5.033  50.215  1.00  0.00     0.124 C 
HETATM   17  C6  UNL     1      26.198   2.852  49.882  1.00  0.00     0.363 C 
HETATM   18  O2  UNL     1      27.232   3.756  49.525  1.00  0.00    -0.277 OA
HETATM   19  C5  UNL     1      27.034   4.951  49.025  1.00  0.00     0.056 C 
HETATM   20  C4  UNL     1      26.867   5.985  48.573  1.00  0.00    -0.071 C 
HETATM   21  C3  UNL     1      26.674   7.261  47.993  1.00  0.00     0.157 C 
HETATM   22  C2  UNL     1      25.264   7.792  48.219  1.00  0.00     0.275 C 
HETATM   23  O4  UNL     1      24.362   6.974  47.516  1.00  0.00    -0.330 OA
HETATM   24  C19 UNL     1      23.787   5.837  48.012  1.00  0.00     0.163 C 
HETATM   25  C18 UNL     1      23.347   4.863  48.753  1.00  0.00     0.033 C 
HETATM   26  N3  UNL     1      22.614   3.684  48.458  1.00  0.00    -0.387 N 
HETATM   27  C17 UNL     1      21.959   3.131  49.650  1.00  0.00     0.161 C 
HETATM   28  H18 UNL     1      22.692   3.447  47.425  1.00  0.00     0.159 HD
BRANCH  22  29
HETATM   29  O1  UNL     1      25.156   9.067  47.633  1.00  0.00    -0.365 OA
HETATM   30  C1  UNL     1      23.978   9.679  48.097  1.00  0.00     0.204 C 
ENDBRANCH  22  29
ENDBRANCH   1  13
TORSDOF 4
ENDMDL
MODEL 7
REMARK VINA RESULT:      -8.1      4.305      5.826
REMARK  4 active torsions:
REMARK  status: ('A' for Active; 'I' for Inactive)
REMARK    1  A    between atoms: O1_2  and  C2_3 
REMARK    2  A    between atoms: C8_11  and  C9_12 
REMARK    3  A    between atoms: C12_15  and  C13_16 
REMARK    4  A    between atoms: C13_16  and  N1_17 
ROOT
HETATM    1  C9  UNL     1      25.548   4.416  50.175  1.00  0.00    -0.024 A 
HETATM    2  C10 UNL     1      26.655   3.847  49.538  1.00  0.00     0.013 A 
HETATM    3  C11 UNL     1      27.510   4.650  48.771  1.00  0.00     0.011 A 
HETATM    4  C12 UNL     1      27.281   6.010  48.627  1.00  0.00    -0.010 A 
HETATM    5  C14 UNL     1      26.180   6.533  49.270  1.00  0.00     0.053 A 
HETATM    6  C15 UNL     1      25.856   7.920  49.186  1.00  0.00     0.100 C 
HETATM    7  N2  UNL     1      25.592   9.062  49.114  1.00  0.00    -0.191 NA
HETATM    8  C16 UNL     1      25.341   5.744  50.022  1.00  0.00     0.035 A 
ENDROOT
BRANCH   4   9
HETATM    9  C13 UNL     1      28.184   6.881  47.815  1.00  0.00     0.306 C 
BRANCH   9  10
HETATM   10  N1  UNL     1      29.389   7.137  48.554  1.00  0.00     0.082 N 
HETATM   11  H13 UNL     1      30.186   7.418  47.977  1.00  0.00     0.313 HD
HETATM   12  H14 UNL     1      29.210   7.903  49.236  1.00  0.00     0.313 HD
ENDBRANCH   9  10
ENDBRANCH   4   9
BRANCH   1  13
HETATM   13  C8  UNL     1      24.860   3.344  50.878  1.00  0.00    -0.001 C 
HETATM   14  C7  UNL     1      23.570   3.229  50.647  1.00  0.00     0.063 C 
HETATM   15  O3  UNL     1      22.809   3.504  49.536  1.00  0.00    -0.328 OA
HETATM   16  C20 UNL     1      22.779   2.691  51.820  1.00  0.00     0.124 C 
HETATM   17  C6  UNL     1      22.746   2.498  48.507  1.00  0.00     0.363 C 
HETATM   18  O2  UNL     1      21.416   2.038  48.333  1.00  0.00    -0.277 OA
HETATM   19  C5  UNL     1      20.709   1.438  49.260  1.00  0.00     0.056 C 
HETATM   20  C4  UNL     1      20.097   0.900  50.057  1.00  0.00    -0.071 C 
HETATM   21  C3  UNL     1      19.334   0.213  51.031  1.00  0.00     0.157 C 
HETATM   22  C2  UNL     1      19.872   0.423  52.441  1.00  0.00     0.275 C 
HETATM   23  O4  UNL     1      21.137  -0.183  52.530  1.00  0.00    -0.330 OA
HETATM   24  C19 UNL     1      22.321   0.425  52.214  1.00  0.00     0.163 C 
HETATM   25  C18 UNL     1      23.273   1.259  51.919  1.00  0.00     0.033 C 
HETATM   26  N3  UNL     1      24.658   1.088  51.658  1.00  0.00    -0.387 N 
HETATM   27  C17 UNL     1      25.408   2.339  51.823  1.00  0.00     0.161 C 
HETATM   28  H18 UNL     1      24.864   0.078  51.397  1.00  0.00     0.159 HD
BRANCH  22  29
HETATM   29  O1  UNL     1      19.054  -0.271  53.352  1.00  0.00    -0.365 OA
HETATM   30  C1  UNL     1      18.035  -0.925  52.636  1.00  0.00     0.204 C 
ENDBRANCH  22  29
ENDBRANCH   1  13
TORSDOF 4
ENDMDL
MODEL 8
REMARK VINA RESULT:      -8.1      5.616      6.831
REMARK  4 active torsions:
REMARK  status: ('A' for Active; 'I' for Inactive)
REMARK    1  A    between atoms: O1_2  and  C2_3 
REMARK    2  A    between atoms: C8_11  and  C9_12 
REMARK    3  A    between atoms: C12_15  and  C13_16 
REMARK    4  A    between atoms: C13_16  and  N1_17 
ROOT
HETATM    1  C9  UNL     1      26.706   6.259  48.914  1.00  0.00    -0.024 A 
HETATM    2  C10 UNL     1      26.445   7.399  48.148  1.00  0.00     0.013 A 
HETATM    3  C11 UNL     1      27.414   7.881  47.260  1.00  0.00     0.011 A 
HETATM    4  C12 UNL     1      28.640   7.249  47.121  1.00  0.00    -0.010 A 
HETATM    5  C14 UNL     1      28.860   6.129  47.893  1.00  0.00     0.053 A 
HETATM    6  C15 UNL     1      30.088   5.405  47.825  1.00  0.00     0.100 C 
HETATM    7  N2  UNL     1      31.100   4.813  47.767  1.00  0.00    -0.191 NA
HETATM    8  C16 UNL     1      27.909   5.656  48.765  1.00  0.00     0.035 A 
ENDROOT
BRANCH   4   9
HETATM    9  C13 UNL     1      29.684   7.751  46.176  1.00  0.00     0.306 C 
BRANCH   9  10
HETATM   10  N1  UNL     1      29.061   8.138  44.941  1.00  0.00     0.082 N 
HETATM   11  H13 UNL     1      29.485   7.724  44.107  1.00  0.00     0.313 HD
HETATM   12  H14 UNL     1      28.061   7.847  44.961  1.00  0.00     0.313 HD
ENDBRANCH   9  10
ENDBRANCH   4   9
BRANCH   1  13
HETATM   13  C8  UNL     1      25.529   6.012  49.734  1.00  0.00    -0.001 C 
HETATM   14  C7  UNL     1      25.107   4.767  49.789  1.00  0.00     0.063 C 
HETATM   15  O3  UNL     1      25.775   3.568  49.714  1.00  0.00    -0.328 OA
HETATM   16  C20 UNL     1      23.611   4.631  49.973  1.00  0.00     0.124 C 
HETATM   17  C6  UNL     1      26.381   3.069  50.921  1.00  0.00     0.363 C 
HETATM   18  O2  UNL     1      25.809   1.826  51.295  1.00  0.00    -0.277 OA
HETATM   19  C5  UNL     1      24.547   1.652  51.603  1.00  0.00     0.056 C 
HETATM   20  C4  UNL     1      23.453   1.498  51.890  1.00  0.00    -0.071 C 
HETATM   21  C3  UNL     1      22.105   1.299  52.267  1.00  0.00     0.157 C 
HETATM   22  C2  UNL     1      21.196   2.423  51.784  1.00  0.00     0.275 C 
HETATM   23  O4  UNL     1      21.553   3.604  52.458  1.00  0.00    -0.330 OA
HETATM   24  C19 UNL     1      22.513   4.485  52.041  1.00  0.00     0.163 C 
HETATM   25  C18 UNL     1      23.405   5.162  51.380  1.00  0.00     0.033 C 
HETATM   26  N3  UNL     1      24.221   6.272  51.723  1.00  0.00    -0.387 N 
HETATM   27  C17 UNL     1      24.728   6.970  50.536  1.00  0.00     0.161 C 
HETATM   28  H18 UNL     1      24.293   6.366  52.780  1.00  0.00     0.159 HD
BRANCH  22  29
HETATM   29  O1  UNL     1      19.874   2.146  52.178  1.00  0.00    -0.365 OA
HETATM   30  C1  UNL     1      19.027   3.134  51.646  1.00  0.00     0.204 C 
ENDBRANCH  22  29
ENDBRANCH   1  13
TORSDOF 4
ENDMDL
MODEL 9
REMARK VINA RESULT:      -8.1      3.856      5.563
REMARK  4 active torsions:
REMARK  status: ('A' for Active; 'I' for Inactive)
REMARK    1  A    between atoms: O1_2  and  C2_3 
REMARK    2  A    between atoms: C8_11  and  C9_12 
REMARK    3  A    between atoms: C12_15  and  C13_16 
REMARK    4  A    between atoms: C13_16  and  N1_17 
ROOT
HETATM    1  C9  UNL     1      25.093   1.500  52.807  1.00  0.00    -0.024 A 
HETATM    2  C10 UNL     1      25.892   2.285  53.643  1.00  0.00     0.013 A 
HETATM    3  C11 UNL     1      27.090   1.769  54.152  1.00  0.00     0.011 A 
HETATM    4  C12 UNL     1      27.507   0.483  53.844  1.00  0.00    -0.010 A 
HETATM    5  C14 UNL     1      26.692  -0.260  53.018  1.00  0.00     0.053 A 
HETATM    6  C15 UNL     1      27.029  -1.594  52.639  1.00  0.00     0.100 C 
HETATM    7  N2  UNL     1      27.310  -2.691  52.330  1.00  0.00    -0.191 NA
HETATM    8  C16 UNL     1      25.516   0.248  52.518  1.00  0.00     0.035 A 
ENDROOT
BRANCH   4   9
HETATM    9  C13 UNL     1      28.783  -0.083  54.377  1.00  0.00     0.306 C 
BRANCH   9  10
HETATM   10  N1  UNL     1      29.888   0.441  53.623  1.00  0.00     0.082 N 
HETATM   11  H13 UNL     1      30.209   1.362  53.929  1.00  0.00     0.313 HD
HETATM   12  H14 UNL     1      30.693  -0.215  53.703  1.00  0.00     0.313 HD
ENDBRANCH   9  10
ENDBRANCH   4   9
BRANCH   1  13
HETATM   13  C8  UNL     1      23.929   2.299  52.452  1.00  0.00    -0.001 C 
HETATM   14  C7  UNL     1      24.170   3.454  51.871  1.00  0.00     0.063 C 
HETATM   15  O3  UNL     1      25.183   3.870  51.041  1.00  0.00    -0.328 OA
HETATM   16  C20 UNL     1      23.139   4.521  52.169  1.00  0.00     0.124 C 
HETATM   17  C6  UNL     1      25.061   3.566  49.639  1.00  0.00     0.363 C 
HETATM   18  O2  UNL     1      25.007   4.756  48.868  1.00  0.00    -0.277 OA
HETATM   19  C5  UNL     1      24.070   5.666  48.971  1.00  0.00     0.056 C 
HETATM   20  C4  UNL     1      23.246   6.452  49.043  1.00  0.00    -0.071 C 
HETATM   21  C3  UNL     1      22.220   7.423  49.109  1.00  0.00     0.157 C 
HETATM   22  C2  UNL     1      21.425   7.338  50.406  1.00  0.00     0.275 C 
HETATM   23  O4  UNL     1      20.722   6.121  50.418  1.00  0.00    -0.330 OA
HETATM   24  C19 UNL     1      21.217   4.935  50.889  1.00  0.00     0.163 C 
HETATM   25  C18 UNL     1      21.906   3.991  51.459  1.00  0.00     0.033 C 
HETATM   26  N3  UNL     1      21.738   2.583  51.526  1.00  0.00    -0.387 N 
HETATM   27  C17 UNL     1      22.489   1.992  52.641  1.00  0.00     0.161 C 
HETATM   28  H18 UNL     1      21.096   2.249  50.748  1.00  0.00     0.159 HD
BRANCH  22  29
HETATM   29  O1  UNL     1      20.441   8.344  50.407  1.00  0.00    -0.365 OA
HETATM   30  C1  UNL     1      20.269   8.809  49.091  1.00  0.00     0.204 C 
ENDBRANCH  22  29
ENDBRANCH   1  13
TORSDOF 4
ENDMDL
