MODEL 1
REMARK VINA RESULT:      -8.5      0.000      0.000
REMARK  6 active torsions:
REMARK  status: ('A' for Active; 'I' for Inactive)
REMARK    1  A    between atoms: O1_2  and  C2_3 
REMARK    2  A    between atoms: C3_4  and  C4_5 
REMARK    3  A    between atoms: C4_5  and  C5_6 
REMARK    4  A    between atoms: C5_6  and  C6_7 
REMARK    5  A    between atoms: C6_7  and  C7_8 
REMARK    6  A    between atoms: C11_14  and  O3_15 
ROOT
HETATM    1  C2  UNL     1      26.748   6.601  48.271  1.00  0.00     0.153 A 
HETATM    2  C3  UNL     1      25.816   7.611  47.980  1.00  0.00     0.001 A 
HETATM    3  C8  UNL     1      24.542   7.136  48.303  1.00  0.00    -0.024 A 
HETATM    4  C9  UNL     1      23.170   7.689  48.197  1.00  0.00     0.051 C 
HETATM    5  C10 UNL     1      24.784   5.889  48.766  1.00  0.00     0.046 A 
HETATM    6  N1  UNL     1      26.113   5.475  48.779  1.00  0.00    -0.296 N 
HETATM    7  C11 UNL     1      27.012   4.396  49.049  1.00  0.00     0.251 C 
HETATM    8  C12 UNL     1      26.668   3.479  50.095  1.00  0.00     0.026 C 
HETATM    9  C13 UNL     1      26.415   2.625  51.063  1.00  0.00     0.000 C 
HETATM   10  C14 UNL     1      25.712   1.805  52.050  1.00  0.00    -0.003 C 
HETATM   11  C15 UNL     1      24.456   1.567  52.497  1.00  0.00    -0.009 C 
HETATM   12  C16 UNL     1      23.366   2.347  51.831  1.00  0.00     0.021 A 
HETATM   13  C17 UNL     1      23.204   1.467  50.822  1.00  0.00    -0.027 A 
HETATM   14  C18 UNL     1      23.128   2.737  50.366  1.00  0.00     0.046 A 
HETATM   15  C19 UNL     1      23.269   3.763  51.192  1.00  0.00     0.059 A 
HETATM   16  C20 UNL     1      23.448   4.457  52.297  1.00  0.00     0.025 A 
HETATM   17  C21 UNL     1      23.537   3.178  52.892  1.00  0.00     0.017 A 
HETATM   18  N2  UNL     1      23.759   5.731  52.732  1.00  0.00    -0.326 N 
HETATM   19  C22 UNL     1      23.899   6.287  51.395  1.00  0.00     0.253 A 
HETATM   20  O4  UNL     1      24.188   7.456  51.195  1.00  0.00    -0.268 OA
HETATM   21  C23 UNL     1      23.610   5.103  50.625  1.00  0.00     0.029 A 
HETATM   22  C24 UNL     1      23.990   4.844  49.339  1.00  0.00     0.044 C 
HETATM   23  H23 UNL     1      23.815   5.977  53.728  1.00  0.00     0.169 HD
ENDROOT
BRANCH   2  24
HETATM   24  C4  UNL     1      25.891   9.003  47.449  1.00  0.00     0.044 C 
BRANCH  24  25
HETATM   25  C5  UNL     1      25.909  10.022  48.558  1.00  0.00     0.011 C 
BRANCH  25  26
HETATM   26  C6  UNL     1      27.349  10.523  48.624  1.00  0.00     0.069 C 
BRANCH  26  27
HETATM   27  C7  UNL     1      28.078   9.888  49.746  1.00  0.00     0.231 C 
HETATM   28  O2  UNL     1      27.059   9.866  50.452  1.00  0.00    -0.307 OA
ENDBRANCH  26  27
ENDBRANCH  25  26
ENDBRANCH  24  25
ENDBRANCH   2  24
BRANCH   1  29
HETATM   29  O1  UNL     1      27.929   7.111  47.943  1.00  0.00    -0.340 OA
HETATM   30  C1  UNL     1      28.869   7.337  47.036  1.00  0.00     0.211 C 
ENDBRANCH   1  29
BRANCH   7  31
HETATM   31  O3  UNL     1      28.354   4.804  49.214  1.00  0.00    -0.373 OA
HETATM   32  H15 UNL     1      28.889   4.349  48.544  1.00  0.00     0.212 HD
ENDBRANCH   7  31
TORSDOF 6
ENDMDL
MODEL 2
REMARK VINA RESULT:      -8.4      4.565      7.520
REMARK  6 active torsions:
REMARK  status: ('A' for Active; 'I' for Inactive)
REMARK    1  A    between atoms: O1_2  and  C2_3 
REMARK    2  A    between atoms: C3_4  and  C4_5 
REMARK    3  A    between atoms: C4_5  and  C5_6 
REMARK    4  A    between atoms: C5_6  and  C6_7 
REMARK    5  A    between atoms: C6_7  and  C7_8 
REMARK    6  A    between atoms: C11_14  and  O3_15 
ROOT
HETATM    1  C2  UNL     1      23.684  -0.281  53.424  1.00  0.00     0.153 A 
HETATM    2  C3  UNL     1      25.055  -0.034  53.233  1.00  0.00     0.001 A 
HETATM    3  C8  UNL     1      25.192   0.898  52.201  1.00  0.00    -0.024 A 
HETATM    4  C9  UNL     1      26.347   1.527  51.517  1.00  0.00     0.051 C 
HETATM    5  C10 UNL     1      23.913   1.155  51.843  1.00  0.00     0.046 A 
HETATM    6  N1  UNL     1      22.920   0.471  52.540  1.00  0.00    -0.296 N 
HETATM    7  C11 UNL     1      21.517   0.223  52.657  1.00  0.00     0.251 C 
HETATM    8  C12 UNL     1      20.615   1.285  52.323  1.00  0.00     0.026 C 
HETATM    9  C13 UNL     1      19.744   2.234  52.056  1.00  0.00     0.000 C 
HETATM   10  C14 UNL     1      19.116   3.433  51.503  1.00  0.00    -0.003 C 
HETATM   11  C15 UNL     1      19.399   4.466  50.673  1.00  0.00    -0.009 C 
HETATM   12  C16 UNL     1      20.774   4.471  50.083  1.00  0.00     0.021 A 
HETATM   13  C17 UNL     1      20.447   3.683  49.037  1.00  0.00    -0.027 A 
HETATM   14  C18 UNL     1      21.660   3.348  49.529  1.00  0.00     0.046 A 
HETATM   15  C19 UNL     1      22.173   3.991  50.567  1.00  0.00     0.059 A 
HETATM   16  C20 UNL     1      22.312   4.849  51.556  1.00  0.00     0.025 A 
HETATM   17  C21 UNL     1      21.041   5.298  51.126  1.00  0.00     0.017 A 
HETATM   18  N2  UNL     1      23.064   5.074  52.693  1.00  0.00    -0.326 N 
HETATM   19  C22 UNL     1      23.861   3.865  52.553  1.00  0.00     0.253 A 
HETATM   20  O4  UNL     1      24.734   3.557  53.349  1.00  0.00    -0.268 OA
HETATM   21  C23 UNL     1      23.274   3.345  51.343  1.00  0.00     0.029 A 
HETATM   22  C24 UNL     1      23.273   2.045  50.922  1.00  0.00     0.044 C 
HETATM   23  H23 UNL     1      22.930   5.898  53.291  1.00  0.00     0.169 HD
ENDROOT
BRANCH   2  24
HETATM   24  C4  UNL     1      26.317  -0.511  53.869  1.00  0.00     0.044 C 
BRANCH  24  25
HETATM   25  C5  UNL     1      26.826   0.465  54.897  1.00  0.00     0.011 C 
BRANCH  25  26
HETATM   26  C6  UNL     1      28.340   0.282  54.914  1.00  0.00     0.069 C 
BRANCH  26  27
HETATM   27  C7  UNL     1      28.997   1.229  53.985  1.00  0.00     0.231 C 
HETATM   28  O2  UNL     1      29.318   1.984  54.914  1.00  0.00    -0.307 OA
ENDBRANCH  26  27
ENDBRANCH  25  26
ENDBRANCH  24  25
ENDBRANCH   2  24
BRANCH   1  29
HETATM   29  O1  UNL     1      23.623  -1.169  54.408  1.00  0.00    -0.340 OA
HETATM   30  C1  UNL     1      23.485  -1.446  55.697  1.00  0.00     0.211 C 
ENDBRANCH   1  29
BRANCH   7  31
HETATM   31  O3  UNL     1      21.142  -0.329  53.902  1.00  0.00    -0.373 OA
HETATM   32  H15 UNL     1      20.389  -0.925  53.750  1.00  0.00     0.212 HD
ENDBRANCH   7  31
TORSDOF 6
ENDMDL
MODEL 3
REMARK VINA RESULT:      -8.2      3.351      7.486
REMARK  6 active torsions:
REMARK  status: ('A' for Active; 'I' for Inactive)
REMARK    1  A    between atoms: O1_2  and  C2_3 
REMARK    2  A    between atoms: C3_4  and  C4_5 
REMARK    3  A    between atoms: C4_5  and  C5_6 
REMARK    4  A    between atoms: C5_6  and  C6_7 
REMARK    5  A    between atoms: C6_7  and  C7_8 
REMARK    6  A    between atoms: C11_14  and  O3_15 
ROOT
HETATM    1  C2  UNL     1      21.824   1.653  50.041  1.00  0.00     0.153 A 
HETATM    2  C3  UNL     1      22.264   1.116  51.263  1.00  0.00     0.001 A 
HETATM    3  C8  UNL     1      23.484   1.714  51.589  1.00  0.00    -0.024 A 
HETATM    4  C9  UNL     1      24.453   1.557  52.701  1.00  0.00     0.051 C 
HETATM    5  C10 UNL     1      23.697   2.565  50.559  1.00  0.00     0.046 A 
HETATM    6  N1  UNL     1      22.729   2.590  49.560  1.00  0.00    -0.296 N 
HETATM    7  C11 UNL     1      22.354   3.135  48.291  1.00  0.00     0.251 C 
HETATM    8  C12 UNL     1      22.777   4.468  47.980  1.00  0.00     0.026 C 
HETATM    9  C13 UNL     1      23.114   5.697  47.654  1.00  0.00     0.000 C 
HETATM   10  C14 UNL     1      23.819   6.976  47.586  1.00  0.00    -0.003 C 
HETATM   11  C15 UNL     1      24.889   7.604  48.131  1.00  0.00    -0.009 C 
HETATM   12  C16 UNL     1      25.662   6.817  49.143  1.00  0.00     0.021 A 
HETATM   13  C17 UNL     1      26.448   6.210  48.230  1.00  0.00    -0.027 A 
HETATM   14  C18 UNL     1      26.079   5.342  49.198  1.00  0.00     0.046 A 
HETATM   15  C19 UNL     1      25.296   5.729  50.193  1.00  0.00     0.059 A 
HETATM   16  C20 UNL     1      24.551   6.489  50.969  1.00  0.00     0.025 A 
HETATM   17  C21 UNL     1      24.877   7.490  50.024  1.00  0.00     0.017 A 
HETATM   18  N2  UNL     1      23.616   6.408  51.983  1.00  0.00    -0.326 N 
HETATM   19  C22 UNL     1      23.602   4.954  52.020  1.00  0.00     0.253 A 
HETATM   20  O4  UNL     1      22.896   4.322  52.790  1.00  0.00    -0.268 OA
HETATM   21  C23 UNL     1      24.567   4.690  50.982  1.00  0.00     0.029 A 
HETATM   22  C24 UNL     1      24.688   3.550  50.241  1.00  0.00     0.044 C 
HETATM   23  H23 UNL     1      23.200   7.240  52.419  1.00  0.00     0.169 HD
ENDROOT
BRANCH   2  24
HETATM   24  C4  UNL     1      21.732   0.119  52.237  1.00  0.00     0.044 C 
BRANCH  24  25
HETATM   25  C5  UNL     1      20.981   0.785  53.361  1.00  0.00     0.011 C 
BRANCH  25  26
HETATM   26  C6  UNL     1      21.162  -0.132  54.567  1.00  0.00     0.069 C 
BRANCH  26  27
HETATM   27  C7  UNL     1      22.321  -1.034  54.376  1.00  0.00     0.231 C 
HETATM   28  O2  UNL     1      21.931  -1.794  55.273  1.00  0.00    -0.307 OA
ENDBRANCH  26  27
ENDBRANCH  25  26
ENDBRANCH  24  25
ENDBRANCH   2  24
BRANCH   1  29
HETATM   29  O1  UNL     1      20.671   1.047  49.790  1.00  0.00    -0.340 OA
HETATM   30  C1  UNL     1      19.352   0.991  49.915  1.00  0.00     0.211 C 
ENDBRANCH   1  29
BRANCH   7  31
HETATM   31  O3  UNL     1      20.977   3.007  48.005  1.00  0.00    -0.373 OA
HETATM   32  H15 UNL     1      20.553   2.574  48.765  1.00  0.00     0.212 HD
ENDBRANCH   7  31
TORSDOF 6
ENDMDL
MODEL 4
REMARK VINA RESULT:      -8.2      1.277      1.620
REMARK  6 active torsions:
REMARK  status: ('A' for Active; 'I' for Inactive)
REMARK    1  A    between atoms: O1_2  and  C2_3 
REMARK    2  A    between atoms: C3_4  and  C4_5 
REMARK    3  A    between atoms: C4_5  and  C5_6 
REMARK    4  A    between atoms: C5_6  and  C6_7 
REMARK    5  A    between atoms: C6_7  and  C7_8 
REMARK    6  A    between atoms: C11_14  and  O3_15 
ROOT
HETATM    1  C2  UNL     1      27.815   7.320  48.018  1.00  0.00     0.153 A 
HETATM    2  C3  UNL     1      27.104   8.495  47.722  1.00  0.00     0.001 A 
HETATM    3  C8  UNL     1      25.738   8.220  47.833  1.00  0.00    -0.024 A 
HETATM    4  C9  UNL     1      24.500   9.006  47.617  1.00  0.00     0.051 C 
HETATM    5  C10 UNL     1      25.713   6.915  48.188  1.00  0.00     0.046 A 
HETATM    6  N1  UNL     1      26.945   6.280  48.322  1.00  0.00    -0.296 N 
HETATM    7  C11 UNL     1      27.615   5.044  48.585  1.00  0.00     0.251 C 
HETATM    8  C12 UNL     1      26.987   4.115  49.477  1.00  0.00     0.026 C 
HETATM    9  C13 UNL     1      26.469   3.238  50.310  1.00  0.00     0.000 C 
HETATM   10  C14 UNL     1      25.515   2.471  51.110  1.00  0.00    -0.003 C 
HETATM   11  C15 UNL     1      24.186   2.415  51.370  1.00  0.00    -0.009 C 
HETATM   12  C16 UNL     1      23.338   3.423  50.661  1.00  0.00     0.021 A 
HETATM   13  C17 UNL     1      23.181   2.671  49.551  1.00  0.00    -0.027 A 
HETATM   14  C18 UNL     1      23.372   3.969  49.227  1.00  0.00     0.046 A 
HETATM   15  C19 UNL     1      23.557   4.883  50.168  1.00  0.00     0.059 A 
HETATM   16  C20 UNL     1      23.687   5.441  51.354  1.00  0.00     0.025 A 
HETATM   17  C21 UNL     1      23.488   4.120  51.817  1.00  0.00     0.017 A 
HETATM   18  N2  UNL     1      24.132   6.602  51.957  1.00  0.00    -0.326 N 
HETATM   19  C22 UNL     1      24.543   7.236  50.714  1.00  0.00     0.253 A 
HETATM   20  O4  UNL     1      25.039   8.351  50.676  1.00  0.00    -0.268 OA
HETATM   21  C23 UNL     1      24.181   6.187  49.793  1.00  0.00     0.029 A 
HETATM   22  C24 UNL     1      24.691   5.977  48.544  1.00  0.00     0.044 C 
HETATM   23  H23 UNL     1      24.087   6.750  52.972  1.00  0.00     0.169 HD
ENDROOT
BRANCH   2  24
HETATM   24  C4  UNL     1      27.472   9.893  47.356  1.00  0.00     0.044 C 
BRANCH  24  25
HETATM   25  C5  UNL     1      27.470  10.803  48.556  1.00  0.00     0.011 C 
BRANCH  25  26
HETATM   26  C6  UNL     1      28.940  11.023  48.900  1.00  0.00     0.069 C 
BRANCH  26  27
HETATM   27  C7  UNL     1      29.284  12.462  48.850  1.00  0.00     0.231 C 
HETATM   28  O2  UNL     1      28.186  12.784  49.326  1.00  0.00    -0.307 OA
ENDBRANCH  26  27
ENDBRANCH  25  26
ENDBRANCH  24  25
ENDBRANCH   2  24
BRANCH   1  29
HETATM   29  O1  UNL     1      29.095   7.646  47.895  1.00  0.00    -0.340 OA
HETATM   30  C1  UNL     1      30.205   7.687  47.170  1.00  0.00     0.211 C 
ENDBRANCH   1  29
BRANCH   7  31
HETATM   31  O3  UNL     1      28.968   5.202  48.957  1.00  0.00    -0.373 OA
HETATM   32  H15 UNL     1      29.039   5.020  49.909  1.00  0.00     0.212 HD
ENDBRANCH   7  31
TORSDOF 6
ENDMDL
MODEL 5
REMARK VINA RESULT:      -7.9      1.353      2.057
REMARK  6 active torsions:
REMARK  status: ('A' for Active; 'I' for Inactive)
REMARK    1  A    between atoms: O1_2  and  C2_3 
REMARK    2  A    between atoms: C3_4  and  C4_5 
REMARK    3  A    between atoms: C4_5  and  C5_6 
REMARK    4  A    between atoms: C5_6  and  C6_7 
REMARK    5  A    between atoms: C6_7  and  C7_8 
REMARK    6  A    between atoms: C11_14  and  O3_15 
ROOT
HETATM    1  C2  UNL     1      27.007   6.797  48.226  1.00  0.00     0.153 A 
HETATM    2  C3  UNL     1      26.131   7.859  47.942  1.00  0.00     0.001 A 
HETATM    3  C8  UNL     1      24.827   7.432  48.203  1.00  0.00    -0.024 A 
HETATM    4  C9  UNL     1      23.486   8.051  48.072  1.00  0.00     0.051 C 
HETATM    5  C10 UNL     1      24.997   6.158  48.626  1.00  0.00     0.046 A 
HETATM    6  N1  UNL     1      26.305   5.684  48.669  1.00  0.00    -0.296 N 
HETATM    7  C11 UNL     1      27.143   4.555  48.927  1.00  0.00     0.251 C 
HETATM    8  C12 UNL     1      26.722   3.617  49.925  1.00  0.00     0.026 C 
HETATM    9  C13 UNL     1      26.396   2.740  50.850  1.00  0.00     0.000 C 
HETATM   10  C14 UNL     1      25.623   1.918  51.780  1.00  0.00    -0.003 C 
HETATM   11  C15 UNL     1      24.342   1.721  52.175  1.00  0.00    -0.009 C 
HETATM   12  C16 UNL     1      23.313   2.575  51.503  1.00  0.00     0.021 A 
HETATM   13  C17 UNL     1      23.148   1.741  50.455  1.00  0.00    -0.027 A 
HETATM   14  C18 UNL     1      23.145   3.029  50.046  1.00  0.00     0.046 A 
HETATM   15  C19 UNL     1      23.302   4.016  50.915  1.00  0.00     0.059 A 
HETATM   16  C20 UNL     1      23.472   4.660  52.051  1.00  0.00     0.025 A 
HETATM   17  C21 UNL     1      23.482   3.357  52.600  1.00  0.00     0.017 A 
HETATM   18  N2  UNL     1      23.824   5.902  52.546  1.00  0.00    -0.326 N 
HETATM   19  C22 UNL     1      24.036   6.499  51.236  1.00  0.00     0.253 A 
HETATM   20  O4  UNL     1      24.385   7.660  51.092  1.00  0.00    -0.268 OA
HETATM   21  C23 UNL     1      23.722   5.359  50.412  1.00  0.00     0.029 A 
HETATM   22  C24 UNL     1      24.136   5.131  49.131  1.00  0.00     0.044 C 
HETATM   23  H23 UNL     1      23.856   6.108  53.552  1.00  0.00     0.169 HD
ENDROOT
BRANCH   2  24
HETATM   24  C4  UNL     1      26.288   9.265  47.468  1.00  0.00     0.044 C 
BRANCH  24  25
HETATM   25  C5  UNL     1      26.845   9.322  46.070  1.00  0.00     0.011 C 
BRANCH  25  26
HETATM   26  C6  UNL     1      25.800   8.644  45.190  1.00  0.00     0.069 C 
BRANCH  26  27
HETATM   27  C7  UNL     1      26.327   8.415  43.825  1.00  0.00     0.231 C 
HETATM   28  O2  UNL     1      25.271   7.878  43.461  1.00  0.00    -0.307 OA
ENDBRANCH  26  27
ENDBRANCH  25  26
ENDBRANCH  24  25
ENDBRANCH   2  24
BRANCH   1  29
HETATM   29  O1  UNL     1      28.220   7.264  47.958  1.00  0.00    -0.340 OA
HETATM   30  C1  UNL     1      29.328   7.876  48.354  1.00  0.00     0.211 C 
ENDBRANCH   1  29
BRANCH   7  31
HETATM   31  O3  UNL     1      28.496   4.895  49.153  1.00  0.00    -0.373 OA
HETATM   32  H15 UNL     1      28.989   4.072  49.308  1.00  0.00     0.212 HD
ENDBRANCH   7  31
TORSDOF 6
ENDMDL
MODEL 6
REMARK VINA RESULT:      -7.9      5.924      8.611
REMARK  6 active torsions:
REMARK  status: ('A' for Active; 'I' for Inactive)
REMARK    1  A    between atoms: O1_2  and  C2_3 
REMARK    2  A    between atoms: C3_4  and  C4_5 
REMARK    3  A    between atoms: C4_5  and  C5_6 
REMARK    4  A    between atoms: C5_6  and  C6_7 
REMARK    5  A    between atoms: C6_7  and  C7_8 
REMARK    6  A    between atoms: C11_14  and  O3_15 
ROOT
HETATM    1  C2  UNL     1      22.417  -0.090  53.439  1.00  0.00     0.153 A 
HETATM    2  C3  UNL     1      23.254   0.775  52.715  1.00  0.00     0.001 A 
HETATM    3  C8  UNL     1      22.582   1.165  51.554  1.00  0.00    -0.024 A 
HETATM    4  C9  UNL     1      22.928   2.014  50.389  1.00  0.00     0.051 C 
HETATM    5  C10 UNL     1      21.396   0.521  51.652  1.00  0.00     0.046 A 
HETATM    6  N1  UNL     1      21.210  -0.276  52.778  1.00  0.00    -0.296 N 
HETATM    7  C11 UNL     1      20.335  -1.189  53.447  1.00  0.00     0.251 C 
HETATM    8  C12 UNL     1      18.923  -1.012  53.281  1.00  0.00     0.026 C 
HETATM    9  C13 UNL     1      17.618  -0.879  53.186  1.00  0.00     0.000 C 
HETATM   10  C14 UNL     1      16.285  -0.532  52.694  1.00  0.00    -0.003 C 
HETATM   11  C15 UNL     1      15.694   0.087  51.644  1.00  0.00    -0.009 C 
HETATM   12  C16 UNL     1      16.618   0.627  50.598  1.00  0.00     0.021 A 
HETATM   13  C17 UNL     1      16.691  -0.532  49.910  1.00  0.00    -0.027 A 
HETATM   14  C18 UNL     1      17.902   0.065  49.972  1.00  0.00     0.046 A 
HETATM   15  C19 UNL     1      18.059   1.215  50.611  1.00  0.00     0.059 A 
HETATM   16  C20 UNL     1      17.789   2.301  51.305  1.00  0.00     0.025 A 
HETATM   17  C21 UNL     1      16.474   1.780  51.300  1.00  0.00     0.017 A 
HETATM   18  N2  UNL     1      18.410   3.305  52.023  1.00  0.00    -0.326 N 
HETATM   19  C22 UNL     1      19.754   2.786  51.823  1.00  0.00     0.253 A 
HETATM   20  O4  UNL     1      20.745   3.330  52.283  1.00  0.00    -0.268 OA
HETATM   21  C23 UNL     1      19.433   1.624  51.032  1.00  0.00     0.029 A 
HETATM   22  C24 UNL     1      20.187   0.494  50.885  1.00  0.00     0.044 C 
HETATM   23  H23 UNL     1      17.889   4.071  52.468  1.00  0.00     0.169 HD
ENDROOT
BRANCH   2  24
HETATM   24  C4  UNL     1      24.617   1.347  52.917  1.00  0.00     0.044 C 
BRANCH  24  25
HETATM   25  C5  UNL     1      25.671   0.539  52.206  1.00  0.00     0.011 C 
BRANCH  25  26
HETATM   26  C6  UNL     1      26.931   0.683  53.053  1.00  0.00     0.069 C 
BRANCH  26  27
HETATM   27  C7  UNL     1      27.475  -0.645  53.420  1.00  0.00     0.231 C 
HETATM   28  O2  UNL     1      27.400  -0.389  54.630  1.00  0.00    -0.307 OA
ENDBRANCH  26  27
ENDBRANCH  25  26
ENDBRANCH  24  25
ENDBRANCH   2  24
BRANCH   1  29
HETATM   29  O1  UNL     1      23.110  -0.423  54.521  1.00  0.00    -0.340 OA
HETATM   30  C1  UNL     1      23.778  -1.327  55.223  1.00  0.00     0.211 C 
ENDBRANCH   1  29
BRANCH   7  31
HETATM   31  O3  UNL     1      20.624  -1.344  54.821  1.00  0.00    -0.373 OA
HETATM   32  H15 UNL     1      20.317  -0.546  55.283  1.00  0.00     0.212 HD
ENDBRANCH   7  31
TORSDOF 6
ENDMDL
MODEL 7
REMARK VINA RESULT:      -7.7      3.407      7.404
REMARK  6 active torsions:
REMARK  status: ('A' for Active; 'I' for Inactive)
REMARK    1  A    between atoms: O1_2  and  C2_3 
REMARK    2  A    between atoms: C3_4  and  C4_5 
REMARK    3  A    between atoms: C4_5  and  C5_6 
REMARK    4  A    between atoms: C5_6  and  C6_7 
REMARK    5  A    between atoms: C6_7  and  C7_8 
REMARK    6  A    between atoms: C11_14  and  O3_15 
ROOT
HETATM    1  C2  UNL     1      23.603   1.530  52.075  1.00  0.00     0.153 A 
HETATM    2  C3  UNL     1      22.213   1.498  52.282  1.00  0.00     0.001 A 
HETATM    3  C8  UNL     1      21.698   2.764  51.993  1.00  0.00    -0.024 A 
HETATM    4  C9  UNL     1      20.348   3.373  52.049  1.00  0.00     0.051 C 
HETATM    5  C10 UNL     1      22.794   3.469  51.630  1.00  0.00     0.046 A 
HETATM    6  N1  UNL     1      24.010   2.791  51.655  1.00  0.00    -0.296 N 
HETATM    7  C11 UNL     1      25.425   2.895  51.475  1.00  0.00     0.251 C 
HETATM    8  C12 UNL     1      25.913   3.828  50.504  1.00  0.00     0.026 C 
HETATM    9  C13 UNL     1      26.414   4.648  49.606  1.00  0.00     0.000 C 
HETATM   10  C14 UNL     1      26.581   5.772  48.684  1.00  0.00    -0.003 C 
HETATM   11  C15 UNL     1      25.914   6.869  48.252  1.00  0.00    -0.009 C 
HETATM   12  C16 UNL     1      24.560   7.089  48.850  1.00  0.00     0.021 A 
HETATM   13  C17 UNL     1      25.024   7.759  49.925  1.00  0.00    -0.027 A 
HETATM   14  C18 UNL     1      24.027   6.918  50.278  1.00  0.00     0.046 A 
HETATM   15  C19 UNL     1      23.432   6.154  49.374  1.00  0.00     0.059 A 
HETATM   16  C20 UNL     1      23.120   5.604  48.219  1.00  0.00     0.025 A 
HETATM   17  C21 UNL     1      24.141   6.450  47.727  1.00  0.00     0.017 A 
HETATM   18  N2  UNL     1      22.440   4.526  47.685  1.00  0.00    -0.326 N 
HETATM   19  C22 UNL     1      22.055   3.974  48.975  1.00  0.00     0.253 A 
HETATM   20  O4  UNL     1      21.398   2.950  49.083  1.00  0.00    -0.268 OA
HETATM   21  C23 UNL     1      22.665   4.957  49.835  1.00  0.00     0.029 A 
HETATM   22  C24 UNL     1      23.036   4.793  51.139  1.00  0.00     0.044 C 
HETATM   23  H23 UNL     1      22.361   4.367  46.674  1.00  0.00     0.169 HD
ENDROOT
BRANCH   2  24
HETATM   24  C4  UNL     1      21.228   0.460  52.701  1.00  0.00     0.044 C 
BRANCH  24  25
HETATM   25  C5  UNL     1      20.754   0.680  54.114  1.00  0.00     0.011 C 
BRANCH  25  26
HETATM   26  C6  UNL     1      21.515  -0.336  54.959  1.00  0.00     0.069 C 
BRANCH  26  27
HETATM   27  C7  UNL     1      21.380  -1.699  54.396  1.00  0.00     0.231 C 
HETATM   28  O2  UNL     1      22.114  -2.180  55.272  1.00  0.00    -0.307 OA
ENDBRANCH  26  27
ENDBRANCH  25  26
ENDBRANCH  24  25
ENDBRANCH   2  24
BRANCH   1  29
HETATM   29  O1  UNL     1      24.028   0.308  52.367  1.00  0.00    -0.340 OA
HETATM   30  C1  UNL     1      24.662  -0.523  53.183  1.00  0.00     0.211 C 
ENDBRANCH   1  29
BRANCH   7  31
HETATM   31  O3  UNL     1      26.064   1.650  51.284  1.00  0.00    -0.373 OA
HETATM   32  H15 UNL     1      26.173   1.515  50.328  1.00  0.00     0.212 HD
ENDBRANCH   7  31
TORSDOF 6
ENDMDL
MODEL 8
REMARK VINA RESULT:      -7.5      2.342      4.419
REMARK  6 active torsions:
REMARK  status: ('A' for Active; 'I' for Inactive)
REMARK    1  A    between atoms: O1_2  and  C2_3 
REMARK    2  A    between atoms: C3_4  and  C4_5 
REMARK    3  A    between atoms: C4_5  and  C5_6 
REMARK    4  A    between atoms: C5_6  and  C6_7 
REMARK    5  A    between atoms: C6_7  and  C7_8 
REMARK    6  A    between atoms: C11_14  and  O3_15 
ROOT
HETATM    1  C2  UNL     1      23.991   6.228  50.233  1.00  0.00     0.153 A 
HETATM    2  C3  UNL     1      25.075   5.864  49.417  1.00  0.00     0.001 A 
HETATM    3  C8  UNL     1      25.340   4.507  49.620  1.00  0.00    -0.024 A 
HETATM    4  C9  UNL     1      26.353   3.557  49.100  1.00  0.00     0.051 C 
HETATM    5  C10 UNL     1      24.407   4.142  50.530  1.00  0.00     0.046 A 
HETATM    6  N1  UNL     1      23.537   5.138  50.966  1.00  0.00    -0.296 N 
HETATM    7  C11 UNL     1      22.463   5.462  51.852  1.00  0.00     0.251 C 
HETATM    8  C12 UNL     1      21.517   4.433  52.169  1.00  0.00     0.026 C 
HETATM    9  C13 UNL     1      20.606   3.535  52.471  1.00  0.00     0.000 C 
HETATM   10  C14 UNL     1      19.933   2.258  52.709  1.00  0.00    -0.003 C 
HETATM   11  C15 UNL     1      20.177   0.927  52.646  1.00  0.00    -0.009 C 
HETATM   12  C16 UNL     1      21.549   0.535  52.195  1.00  0.00     0.021 A 
HETATM   13  C17 UNL     1      22.092   0.605  53.429  1.00  0.00    -0.027 A 
HETATM   14  C18 UNL     1      22.937   1.113  52.505  1.00  0.00     0.046 A 
HETATM   15  C19 UNL     1      22.599   1.151  51.225  1.00  0.00     0.059 A 
HETATM   16  C20 UNL     1      21.908   0.999  50.114  1.00  0.00     0.025 A 
HETATM   17  C21 UNL     1      20.945   0.435  50.984  1.00  0.00     0.017 A 
HETATM   18  N2  UNL     1      21.866   1.428  48.802  1.00  0.00    -0.326 N 
HETATM   19  C22 UNL     1      23.014   2.314  48.927  1.00  0.00     0.253 A 
HETATM   20  O4  UNL     1      23.432   2.985  47.996  1.00  0.00    -0.268 OA
HETATM   21  C23 UNL     1      23.331   2.081  50.313  1.00  0.00     0.029 A 
HETATM   22  C24 UNL     1      24.019   2.911  51.151  1.00  0.00     0.044 C 
HETATM   23  H23 UNL     1      21.163   1.094  48.132  1.00  0.00     0.169 HD
ENDROOT
BRANCH   2  24
HETATM   24  C4  UNL     1      25.941   6.568  48.428  1.00  0.00     0.044 C 
BRANCH  24  25
HETATM   25  C5  UNL     1      27.198   7.099  49.066  1.00  0.00     0.011 C 
BRANCH  25  26
HETATM   26  C6  UNL     1      28.288   6.936  48.012  1.00  0.00     0.069 C 
BRANCH  26  27
HETATM   27  C7  UNL     1      29.107   5.731  48.280  1.00  0.00     0.231 C 
HETATM   28  O2  UNL     1      30.090   6.417  48.593  1.00  0.00    -0.307 OA
ENDBRANCH  26  27
ENDBRANCH  25  26
ENDBRANCH  24  25
ENDBRANCH   2  24
BRANCH   1  29
HETATM   29  O1  UNL     1      23.794   7.518  49.997  1.00  0.00    -0.340 OA
HETATM   30  C1  UNL     1      23.214   8.481  49.293  1.00  0.00     0.211 C 
ENDBRANCH   1  29
BRANCH   7  31
HETATM   31  O3  UNL     1      21.765   6.636  51.489  1.00  0.00    -0.373 OA
HETATM   32  H15 UNL     1      20.830   6.510  51.718  1.00  0.00     0.212 HD
ENDBRANCH   7  31
TORSDOF 6
ENDMDL
MODEL 9
REMARK VINA RESULT:      -7.4      4.097      7.171
REMARK  6 active torsions:
REMARK  status: ('A' for Active; 'I' for Inactive)
REMARK    1  A    between atoms: O1_2  and  C2_3 
REMARK    2  A    between atoms: C3_4  and  C4_5 
REMARK    3  A    between atoms: C4_5  and  C5_6 
REMARK    4  A    between atoms: C5_6  and  C6_7 
REMARK    5  A    between atoms: C6_7  and  C7_8 
REMARK    6  A    between atoms: C11_14  and  O3_15 
ROOT
HETATM    1  C2  UNL     1      24.169   0.873  52.839  1.00  0.00     0.153 A 
HETATM    2  C3  UNL     1      25.358   1.595  52.640  1.00  0.00     0.001 A 
HETATM    3  C8  UNL     1      25.219   2.356  51.477  1.00  0.00    -0.024 A 
HETATM    4  C9  UNL     1      26.107   3.276  50.726  1.00  0.00     0.051 C 
HETATM    5  C10 UNL     1      23.970   2.053  51.056  1.00  0.00     0.046 A 
HETATM    6  N1  UNL     1      23.252   1.147  51.831  1.00  0.00    -0.296 N 
HETATM    7  C11 UNL     1      22.038   0.401  51.956  1.00  0.00     0.251 C 
HETATM    8  C12 UNL     1      20.835   0.982  51.440  1.00  0.00     0.026 C 
HETATM    9  C13 UNL     1      19.697   1.480  51.008  1.00  0.00     0.000 C 
HETATM   10  C14 UNL     1      18.713   2.260  50.258  1.00  0.00    -0.003 C 
HETATM   11  C15 UNL     1      18.655   3.197  49.281  1.00  0.00    -0.009 C 
HETATM   12  C16 UNL     1      19.971   3.644  48.727  1.00  0.00     0.021 A 
HETATM   13  C17 UNL     1      20.046   2.654  47.813  1.00  0.00    -0.027 A 
HETATM   14  C18 UNL     1      21.253   2.878  48.376  1.00  0.00     0.046 A 
HETATM   15  C19 UNL     1      21.404   3.806  49.310  1.00  0.00     0.059 A 
HETATM   16  C20 UNL     1      21.133   4.780  50.153  1.00  0.00     0.025 A 
HETATM   17  C21 UNL     1      19.825   4.646  49.631  1.00  0.00     0.017 A 
HETATM   18  N2  UNL     1      21.654   5.430  51.256  1.00  0.00    -0.326 N 
HETATM   19  C22 UNL     1      22.853   4.609  51.326  1.00  0.00     0.253 A 
HETATM   20  O4  UNL     1      23.712   4.770  52.179  1.00  0.00    -0.268 OA
HETATM   21  C23 UNL     1      22.601   3.742  50.202  1.00  0.00     0.029 A 
HETATM   22  C24 UNL     1      23.119   2.496  49.992  1.00  0.00     0.044 C 
HETATM   23  H23 UNL     1      21.174   6.215  51.713  1.00  0.00     0.169 HD
ENDROOT
BRANCH   2  24
HETATM   24  C4  UNL     1      26.652   1.728  53.370  1.00  0.00     0.044 C 
BRANCH  24  25
HETATM   25  C5  UNL     1      27.683   0.757  52.857  1.00  0.00     0.011 C 
BRANCH  25  26
HETATM   26  C6  UNL     1      28.191   0.016  54.089  1.00  0.00     0.069 C 
BRANCH  26  27
HETATM   27  C7  UNL     1      29.424  -0.744  53.778  1.00  0.00     0.231 C 
HETATM   28  O2  UNL     1      28.785  -1.794  53.612  1.00  0.00    -0.307 OA
ENDBRANCH  26  27
ENDBRANCH  25  26
ENDBRANCH  24  25
ENDBRANCH   2  24
BRANCH   1  29
HETATM   29  O1  UNL     1      24.366   0.175  53.949  1.00  0.00    -0.340 OA
HETATM   30  C1  UNL     1      24.713  -0.956  54.548  1.00  0.00     0.211 C 
ENDBRANCH   1  29
BRANCH   7  31
HETATM   31  O3  UNL     1      21.799  -0.074  53.265  1.00  0.00    -0.373 OA
HETATM   32  H15 UNL     1      20.853  -0.284  53.338  1.00  0.00     0.212 HD
ENDBRANCH   7  31
TORSDOF 6
ENDMDL
