MODEL 1
REMARK VINA RESULT:      -8.0      0.000      0.000
REMARK  4 active torsions:
REMARK  status: ('A' for Active; 'I' for Inactive)
REMARK    1  A    between atoms: O1_2  and  N1_3 
REMARK    2  A    between atoms: N1_3  and  C2_4 
REMARK    3  A    between atoms: C2_4  and  C3_5 
REMARK    4  A    between atoms: C4_6  and  C5_7 
ROOT
HETATM    1  C5  UNL     1      24.824   1.085  52.922  1.00  0.00     0.057 C 
HETATM    2  C6  UNL     1      24.654   2.656  53.253  1.00  0.00     0.012 C 
HETATM    3  C7  UNL     1      23.766   3.713  52.993  1.00  0.00     0.023 C 
HETATM    4  C8  UNL     1      22.458   3.934  52.242  1.00  0.00    -0.004 C 
HETATM    5  C9  UNL     1      21.329   3.744  51.487  1.00  0.00     0.084 C 
HETATM    6  N2  UNL     1      20.907   2.471  50.871  1.00  0.00    -0.367 N 
HETATM    7  C10 UNL     1      21.970   1.472  51.112  1.00  0.00     0.042 A 
HETATM    8  C11 UNL     1      22.727   2.028  50.151  1.00  0.00     0.287 A 
HETATM    9  N3  UNL     1      23.755   1.579  50.943  1.00  0.00    -0.301 NA
HETATM   10  C12 UNL     1      23.561   0.919  52.090  1.00  0.00    -0.002 A 
HETATM   11  C13 UNL     1      22.618   0.401  52.963  1.00  0.00    -0.007 A 
HETATM   12  C14 UNL     1      22.476  -0.288  54.130  1.00  0.00     0.014 A 
HETATM   13  C15 UNL     1      21.162  -0.507  54.480  1.00  0.00     0.001 A 
HETATM   14  C16 UNL     1      20.075  -0.087  53.746  1.00  0.00     0.001 A 
HETATM   15  C17 UNL     1      20.133   0.614  52.560  1.00  0.00     0.014 A 
HETATM   16  C18 UNL     1      21.443   0.828  52.218  1.00  0.00    -0.000 A 
HETATM   17  H14 UNL     1      20.114   2.149  50.400  1.00  0.00     0.165 HD
ENDROOT
BRANCH   1  18
HETATM   18  C4  UNL     1      25.973   1.053  52.029  1.00  0.00    -0.019 C 
HETATM   19  C3  UNL     1      26.810   0.031  51.884  1.00  0.00    -0.014 C 
BRANCH  19  20
HETATM   20  C2  UNL     1      26.783  -1.284  52.571  1.00  0.00     0.144 C 
BRANCH  20  21
HETATM   21  N1  UNL     1      27.944  -1.328  53.442  1.00  0.00    -0.203 NA
HETATM   22  H4  UNL     1      28.058  -2.356  53.689  1.00  0.00     0.154 HD
BRANCH  21  23
HETATM   23  O1  UNL     1      27.661  -0.615  54.553  1.00  0.00    -0.311 OA
HETATM   24  C1  UNL     1      28.692   0.251  54.899  1.00  0.00     0.229 C 
ENDBRANCH  21  23
ENDBRANCH  20  21
ENDBRANCH  19  20
ENDBRANCH   1  18
TORSDOF 4
ENDMDL
MODEL 2
REMARK VINA RESULT:      -8.0      2.342      4.760
REMARK  4 active torsions:
REMARK  status: ('A' for Active; 'I' for Inactive)
REMARK    1  A    between atoms: O1_2  and  N1_3 
REMARK    2  A    between atoms: N1_3  and  C2_4 
REMARK    3  A    between atoms: C2_4  and  C3_5 
REMARK    4  A    between atoms: C4_6  and  C5_7 
ROOT
HETATM    1  C5  UNL     1      22.220   0.630  52.101  1.00  0.00     0.057 C 
HETATM    2  C6  UNL     1      22.037   0.956  50.530  1.00  0.00     0.012 C 
HETATM    3  C7  UNL     1      22.507   1.863  49.566  1.00  0.00     0.023 C 
HETATM    4  C8  UNL     1      23.463   3.047  49.496  1.00  0.00    -0.004 C 
HETATM    5  C9  UNL     1      24.366   4.027  49.821  1.00  0.00     0.084 C 
HETATM    6  N2  UNL     1      24.942   4.260  51.160  1.00  0.00    -0.367 N 
HETATM    7  C10 UNL     1      24.290   3.329  52.106  1.00  0.00     0.042 A 
HETATM    8  C11 UNL     1      23.188   4.098  52.122  1.00  0.00     0.287 A 
HETATM    9  N3  UNL     1      22.563   2.895  52.339  1.00  0.00    -0.301 NA
HETATM   10  C12 UNL     1      23.219   1.732  52.419  1.00  0.00    -0.002 A 
HETATM   11  C13 UNL     1      24.461   1.118  52.379  1.00  0.00    -0.007 A 
HETATM   12  C14 UNL     1      25.083  -0.090  52.483  1.00  0.00     0.014 A 
HETATM   13  C15 UNL     1      26.451  -0.015  52.343  1.00  0.00     0.001 A 
HETATM   14  C16 UNL     1      27.154   1.147  52.119  1.00  0.00     0.001 A 
HETATM   15  C17 UNL     1      26.602   2.405  52.000  1.00  0.00     0.014 A 
HETATM   16  C18 UNL     1      25.241   2.323  52.141  1.00  0.00    -0.000 A 
HETATM   17  H14 UNL     1      25.642   4.830  51.533  1.00  0.00     0.165 HD
ENDROOT
BRANCH   1  18
HETATM   18  C4  UNL     1      20.932   0.995  52.672  1.00  0.00    -0.019 C 
HETATM   19  C3  UNL     1      20.518   0.696  53.899  1.00  0.00    -0.014 C 
BRANCH  19  20
HETATM   20  C2  UNL     1      21.238  -0.056  54.954  1.00  0.00     0.144 C 
BRANCH  20  21
HETATM   21  N1  UNL     1      20.902  -1.459  54.775  1.00  0.00    -0.203 NA
HETATM   22  H4  UNL     1      20.115  -1.638  55.466  1.00  0.00     0.154 HD
BRANCH  21  23
HETATM   23  O1  UNL     1      21.985  -2.193  55.108  1.00  0.00    -0.311 OA
HETATM   24  C1  UNL     1      23.079  -1.399  55.431  1.00  0.00     0.229 C 
ENDBRANCH  21  23
ENDBRANCH  20  21
ENDBRANCH  19  20
ENDBRANCH   1  18
TORSDOF 4
ENDMDL
MODEL 3
REMARK VINA RESULT:      -7.5      1.810      2.309
REMARK  4 active torsions:
REMARK  status: ('A' for Active; 'I' for Inactive)
REMARK    1  A    between atoms: O1_2  and  N1_3 
REMARK    2  A    between atoms: N1_3  and  C2_4 
REMARK    3  A    between atoms: C2_4  and  C3_5 
REMARK    4  A    between atoms: C4_6  and  C5_7 
ROOT
HETATM    1  C5  UNL     1      24.681   2.101  52.905  1.00  0.00     0.057 C 
HETATM    2  C6  UNL     1      24.112   3.565  53.278  1.00  0.00     0.012 C 
HETATM    3  C7  UNL     1      23.466   4.649  52.661  1.00  0.00     0.023 C 
HETATM    4  C8  UNL     1      22.947   5.019  51.276  1.00  0.00    -0.004 C 
HETATM    5  C9  UNL     1      22.623   4.989  49.944  1.00  0.00     0.084 C 
HETATM    6  N2  UNL     1      22.893   3.874  49.016  1.00  0.00    -0.367 N 
HETATM    7  C10 UNL     1      23.673   2.851  49.744  1.00  0.00     0.042 A 
HETATM    8  C11 UNL     1      24.783   3.602  49.634  1.00  0.00     0.287 A 
HETATM    9  N3  UNL     1      25.099   2.999  50.826  1.00  0.00    -0.301 NA
HETATM   10  C12 UNL     1      24.304   2.110  51.431  1.00  0.00    -0.002 A 
HETATM   11  C13 UNL     1      23.107   1.414  51.359  1.00  0.00    -0.007 A 
HETATM   12  C14 UNL     1      22.342   0.493  52.009  1.00  0.00     0.014 A 
HETATM   13  C15 UNL     1      21.166   0.199  51.354  1.00  0.00     0.001 A 
HETATM   14  C16 UNL     1      20.772   0.761  50.160  1.00  0.00     0.001 A 
HETATM   15  C17 UNL     1      21.486   1.697  49.442  1.00  0.00     0.014 A 
HETATM   16  C18 UNL     1      22.654   1.984  50.100  1.00  0.00    -0.000 A 
HETATM   17  H14 UNL     1      22.654   3.655  48.093  1.00  0.00     0.165 HD
ENDROOT
BRANCH   1  18
HETATM   18  C4  UNL     1      26.123   2.263  53.015  1.00  0.00    -0.019 C 
HETATM   19  C3  UNL     1      26.930   1.519  53.765  1.00  0.00    -0.014 C 
BRANCH  19  20
HETATM   20  C2  UNL     1      26.574   0.380  54.645  1.00  0.00     0.144 C 
BRANCH  20  21
HETATM   21  N1  UNL     1      27.809  -0.328  54.936  1.00  0.00    -0.203 NA
HETATM   22  H4  UNL     1      28.523   0.438  55.120  1.00  0.00     0.154 HD
BRANCH  21  23
HETATM   23  O1  UNL     1      28.157  -1.031  53.837  1.00  0.00    -0.311 OA
HETATM   24  C1  UNL     1      29.536  -1.107  53.678  1.00  0.00     0.229 C 
ENDBRANCH  21  23
ENDBRANCH  20  21
ENDBRANCH  19  20
ENDBRANCH   1  18
TORSDOF 4
ENDMDL
MODEL 4
REMARK VINA RESULT:      -7.4      2.594      4.624
REMARK  4 active torsions:
REMARK  status: ('A' for Active; 'I' for Inactive)
REMARK    1  A    between atoms: O1_2  and  N1_3 
REMARK    2  A    between atoms: N1_3  and  C2_4 
REMARK    3  A    between atoms: C2_4  and  C3_5 
REMARK    4  A    between atoms: C4_6  and  C5_7 
ROOT
HETATM    1  C5  UNL     1      24.510   1.759  51.515  1.00  0.00     0.057 C 
HETATM    2  C6  UNL     1      23.183   1.639  50.603  1.00  0.00     0.012 C 
HETATM    3  C7  UNL     1      22.232   2.469  49.986  1.00  0.00     0.023 C 
HETATM    4  C8  UNL     1      21.949   3.960  49.849  1.00  0.00    -0.004 C 
HETATM    5  C9  UNL     1      22.023   5.325  49.953  1.00  0.00     0.084 C 
HETATM    6  N2  UNL     1      23.055   6.080  50.690  1.00  0.00    -0.367 N 
HETATM    7  C10 UNL     1      23.923   5.107  51.387  1.00  0.00     0.042 A 
HETATM    8  C11 UNL     1      22.976   4.915  52.321  1.00  0.00     0.287 A 
HETATM    9  N3  UNL     1      23.524   3.657  52.369  1.00  0.00    -0.301 NA
HETATM   10  C12 UNL     1      24.554   3.277  51.605  1.00  0.00    -0.002 A 
HETATM   11  C13 UNL     1      25.460   3.671  50.634  1.00  0.00    -0.007 A 
HETATM   12  C14 UNL     1      26.517   3.239  49.890  1.00  0.00     0.014 A 
HETATM   13  C15 UNL     1      27.018   4.200  49.040  1.00  0.00     0.001 A 
HETATM   14  C16 UNL     1      26.526   5.481  48.928  1.00  0.00     0.001 A 
HETATM   15  C17 UNL     1      25.463   5.995  49.642  1.00  0.00     0.014 A 
HETATM   16  C18 UNL     1      24.970   5.033  50.485  1.00  0.00    -0.000 A 
HETATM   17  H14 UNL     1      23.304   7.021  50.784  1.00  0.00     0.165 HD
ENDROOT
BRANCH   1  18
HETATM   18  C4  UNL     1      24.081   1.232  52.802  1.00  0.00    -0.019 C 
HETATM   19  C3  UNL     1      24.836   0.528  53.639  1.00  0.00    -0.014 C 
BRANCH  19  20
HETATM   20  C2  UNL     1      26.253   0.121  53.477  1.00  0.00     0.144 C 
BRANCH  20  21
HETATM   21  N1  UNL     1      26.638  -0.559  54.703  1.00  0.00    -0.203 NA
HETATM   22  H4  UNL     1      26.066  -0.087  55.464  1.00  0.00     0.154 HD
BRANCH  21  23
HETATM   23  O1  UNL     1      27.954  -0.335  54.908  1.00  0.00    -0.311 OA
HETATM   24  C1  UNL     1      28.685  -0.384  53.727  1.00  0.00     0.229 C 
ENDBRANCH  21  23
ENDBRANCH  20  21
ENDBRANCH  19  20
ENDBRANCH   1  18
TORSDOF 4
ENDMDL
MODEL 5
REMARK VINA RESULT:      -7.3      2.815      4.001
REMARK  4 active torsions:
REMARK  status: ('A' for Active; 'I' for Inactive)
REMARK    1  A    between atoms: O1_2  and  N1_3 
REMARK    2  A    between atoms: N1_3  and  C2_4 
REMARK    3  A    between atoms: C2_4  and  C3_5 
REMARK    4  A    between atoms: C4_6  and  C5_7 
ROOT
HETATM    1  C5  UNL     1      23.935   2.885  50.898  1.00  0.00     0.057 C 
HETATM    2  C6  UNL     1      22.877   3.899  51.576  1.00  0.00     0.012 C 
HETATM    3  C7  UNL     1      21.569   3.893  52.088  1.00  0.00     0.023 C 
HETATM    4  C8  UNL     1      20.432   2.896  52.279  1.00  0.00    -0.004 C 
HETATM    5  C9  UNL     1      19.676   1.752  52.282  1.00  0.00     0.084 C 
HETATM    6  N2  UNL     1      20.102   0.434  51.774  1.00  0.00    -0.367 N 
HETATM    7  C10 UNL     1      21.437   0.591  51.159  1.00  0.00     0.042 A 
HETATM    8  C11 UNL     1      20.884   1.160  50.074  1.00  0.00     0.287 A 
HETATM    9  N3  UNL     1      22.082   1.830  50.029  1.00  0.00    -0.301 NA
HETATM   10  C12 UNL     1      23.061   1.640  50.920  1.00  0.00    -0.002 A 
HETATM   11  C13 UNL     1      23.457   0.940  52.049  1.00  0.00    -0.007 A 
HETATM   12  C14 UNL     1      24.491   0.773  52.920  1.00  0.00     0.014 A 
HETATM   13  C15 UNL     1      24.234  -0.157  53.903  1.00  0.00     0.001 A 
HETATM   14  C16 UNL     1      23.061  -0.868  54.022  1.00  0.00     0.001 A 
HETATM   15  C17 UNL     1      21.970  -0.758  53.185  1.00  0.00     0.014 A 
HETATM   16  C18 UNL     1      22.233   0.169  52.210  1.00  0.00    -0.000 A 
HETATM   17  H14 UNL     1      19.739  -0.473  51.785  1.00  0.00     0.165 HD
ENDROOT
BRANCH   1  18
HETATM   18  C4  UNL     1      24.025   3.362  49.526  1.00  0.00    -0.019 C 
HETATM   19  C3  UNL     1      24.891   4.264  49.077  1.00  0.00    -0.014 C 
BRANCH  19  20
HETATM   20  C2  UNL     1      25.945   4.984  49.834  1.00  0.00     0.144 C 
BRANCH  20  21
HETATM   21  N1  UNL     1      27.128   4.141  49.813  1.00  0.00    -0.203 NA
HETATM   22  H4  UNL     1      27.729   4.500  50.613  1.00  0.00     0.154 HD
BRANCH  21  23
HETATM   23  O1  UNL     1      27.760   4.338  48.636  1.00  0.00    -0.311 OA
HETATM   24  C1  UNL     1      28.113   5.669  48.446  1.00  0.00     0.229 C 
ENDBRANCH  21  23
ENDBRANCH  20  21
ENDBRANCH  19  20
ENDBRANCH   1  18
TORSDOF 4
ENDMDL
MODEL 6
REMARK VINA RESULT:      -7.3      3.827      5.476
REMARK  4 active torsions:
REMARK  status: ('A' for Active; 'I' for Inactive)
REMARK    1  A    between atoms: O1_2  and  N1_3 
REMARK    2  A    between atoms: N1_3  and  C2_4 
REMARK    3  A    between atoms: C2_4  and  C3_5 
REMARK    4  A    between atoms: C4_6  and  C5_7 
ROOT
HETATM    1  C5  UNL     1      24.982   4.497  49.419  1.00  0.00     0.057 C 
HETATM    2  C6  UNL     1      26.183   3.523  49.885  1.00  0.00     0.012 C 
HETATM    3  C7  UNL     1      26.409   2.451  50.764  1.00  0.00     0.023 C 
HETATM    4  C8  UNL     1      25.616   1.621  51.767  1.00  0.00    -0.004 C 
HETATM    5  C9  UNL     1      24.608   1.120  52.550  1.00  0.00     0.084 C 
HETATM    6  N2  UNL     1      23.216   1.608  52.582  1.00  0.00    -0.367 N 
HETATM    7  C10 UNL     1      23.129   2.800  51.712  1.00  0.00     0.042 A 
HETATM    8  C11 UNL     1      23.725   3.547  52.657  1.00  0.00     0.287 A 
HETATM    9  N3  UNL     1      24.193   4.240  51.567  1.00  0.00    -0.301 NA
HETATM   10  C12 UNL     1      23.894   3.910  50.306  1.00  0.00    -0.002 A 
HETATM   11  C13 UNL     1      23.196   3.033  49.491  1.00  0.00    -0.007 A 
HETATM   12  C14 UNL     1      22.911   2.750  48.189  1.00  0.00     0.014 A 
HETATM   13  C15 UNL     1      22.082   1.660  48.036  1.00  0.00     0.001 A 
HETATM   14  C16 UNL     1      21.573   0.910  49.072  1.00  0.00     0.001 A 
HETATM   15  C17 UNL     1      21.813   1.130  50.412  1.00  0.00     0.014 A 
HETATM   16  C18 UNL     1      22.638   2.216  50.557  1.00  0.00    -0.000 A 
HETATM   17  H14 UNL     1      22.379   1.316  52.994  1.00  0.00     0.165 HD
ENDROOT
BRANCH   1  18
HETATM   18  C4  UNL     1      25.372   5.791  49.960  1.00  0.00    -0.019 C 
HETATM   19  C3  UNL     1      26.345   6.563  49.490  1.00  0.00    -0.014 C 
BRANCH  19  20
HETATM   20  C2  UNL     1      27.246   6.308  48.339  1.00  0.00     0.144 C 
BRANCH  20  21
HETATM   21  N1  UNL     1      28.585   6.151  48.879  1.00  0.00    -0.203 NA
HETATM   22  H4  UNL     1      29.099   7.036  48.590  1.00  0.00     0.154 HD
BRANCH  21  23
HETATM   23  O1  UNL     1      29.150   5.076  48.289  1.00  0.00    -0.311 OA
HETATM   24  C1  UNL     1      30.434   5.344  47.829  1.00  0.00     0.229 C 
ENDBRANCH  21  23
ENDBRANCH  20  21
ENDBRANCH  19  20
ENDBRANCH   1  18
TORSDOF 4
ENDMDL
MODEL 7
REMARK VINA RESULT:      -6.7      9.053     10.452
REMARK  4 active torsions:
REMARK  status: ('A' for Active; 'I' for Inactive)
REMARK    1  A    between atoms: O1_2  and  N1_3 
REMARK    2  A    between atoms: N1_3  and  C2_4 
REMARK    3  A    between atoms: C2_4  and  C3_5 
REMARK    4  A    between atoms: C4_6  and  C5_7 
ROOT
HETATM    1  C5  UNL     1      31.863   6.147  47.797  1.00  0.00     0.057 C 
HETATM    2  C6  UNL     1      32.198   7.124  49.038  1.00  0.00     0.012 C 
HETATM    3  C7  UNL     1      31.741   8.324  49.606  1.00  0.00     0.023 C 
HETATM    4  C8  UNL     1      30.656   9.362  49.342  1.00  0.00    -0.004 C 
HETATM    5  C9  UNL     1      29.602  10.049  48.798  1.00  0.00     0.084 C 
HETATM    6  N2  UNL     1      28.837   9.650  47.600  1.00  0.00    -0.367 N 
HETATM    7  C10 UNL     1      29.479   8.447  47.028  1.00  0.00     0.042 A 
HETATM    8  C11 UNL     1      30.462   9.204  46.511  1.00  0.00     0.287 A 
HETATM    9  N3  UNL     1      31.204   8.066  46.708  1.00  0.00    -0.301 NA
HETATM   10  C12 UNL     1      30.698   6.942  47.227  1.00  0.00    -0.002 A 
HETATM   11  C13 UNL     1      29.561   6.326  47.725  1.00  0.00    -0.007 A 
HETATM   12  C14 UNL     1      29.092   5.152  48.234  1.00  0.00     0.014 A 
HETATM   13  C15 UNL     1      27.754   5.193  48.560  1.00  0.00     0.001 A 
HETATM   14  C16 UNL     1      26.941   6.292  48.399  1.00  0.00     0.001 A 
HETATM   15  C17 UNL     1      27.337   7.513  47.893  1.00  0.00     0.014 A 
HETATM   16  C18 UNL     1      28.669   7.465  47.571  1.00  0.00    -0.000 A 
HETATM   17  H14 UNL     1      28.027   9.960  47.149  1.00  0.00     0.165 HD
ENDROOT
BRANCH   1  18
HETATM   18  C4  UNL     1      33.012   6.314  46.919  1.00  0.00    -0.019 C 
HETATM   19  C3  UNL     1      34.182   5.700  47.053  1.00  0.00    -0.014 C 
BRANCH  19  20
HETATM   20  C2  UNL     1      34.596   4.727  48.093  1.00  0.00     0.144 C 
BRANCH  20  21
HETATM   21  N1  UNL     1      34.630   3.421  47.457  1.00  0.00    -0.203 NA
HETATM   22  H4  UNL     1      34.479   3.619  46.424  1.00  0.00     0.154 HD
BRANCH  21  23
HETATM   23  O1  UNL     1      33.603   2.692  47.944  1.00  0.00    -0.311 OA
HETATM   24  C1  UNL     1      32.745   2.259  46.940  1.00  0.00     0.229 C 
ENDBRANCH  21  23
ENDBRANCH  20  21
ENDBRANCH  19  20
ENDBRANCH   1  18
TORSDOF 4
ENDMDL
MODEL 8
REMARK VINA RESULT:      -6.6      3.806      6.156
REMARK  4 active torsions:
REMARK  status: ('A' for Active; 'I' for Inactive)
REMARK    1  A    between atoms: O1_2  and  N1_3 
REMARK    2  A    between atoms: N1_3  and  C2_4 
REMARK    3  A    between atoms: C2_4  and  C3_5 
REMARK    4  A    between atoms: C4_6  and  C5_7 
ROOT
HETATM    1  C5  UNL     1      25.108   4.237  49.397  1.00  0.00     0.057 C 
HETATM    2  C6  UNL     1      26.262   3.204  49.851  1.00  0.00     0.012 C 
HETATM    3  C7  UNL     1      26.456   2.151  50.760  1.00  0.00     0.023 C 
HETATM    4  C8  UNL     1      25.654   1.411  51.824  1.00  0.00    -0.004 C 
HETATM    5  C9  UNL     1      24.649   1.004  52.664  1.00  0.00     0.084 C 
HETATM    6  N2  UNL     1      23.293   1.582  52.732  1.00  0.00    -0.367 N 
HETATM    7  C10 UNL     1      23.247   2.746  51.822  1.00  0.00     0.042 A 
HETATM    8  C11 UNL     1      23.928   3.486  52.714  1.00  0.00     0.287 A 
HETATM    9  N3  UNL     1      24.394   4.107  51.582  1.00  0.00    -0.301 NA
HETATM   10  C12 UNL     1      24.022   3.754  50.347  1.00  0.00    -0.002 A 
HETATM   11  C13 UNL     1      23.236   2.897  49.593  1.00  0.00    -0.007 A 
HETATM   12  C14 UNL     1      22.879   2.587  48.315  1.00  0.00     0.014 A 
HETATM   13  C15 UNL     1      21.977   1.549  48.235  1.00  0.00     0.001 A 
HETATM   14  C16 UNL     1      21.465   0.871  49.318  1.00  0.00     0.001 A 
HETATM   15  C17 UNL     1      21.774   1.121  50.639  1.00  0.00     0.014 A 
HETATM   16  C18 UNL     1      22.672   2.155  50.710  1.00  0.00    -0.000 A 
HETATM   17  H14 UNL     1      22.457   1.360  53.188  1.00  0.00     0.165 HD
ENDROOT
BRANCH   1  18
HETATM   18  C4  UNL     1      25.601   5.521  49.873  1.00  0.00    -0.019 C 
HETATM   19  C3  UNL     1      25.397   6.694  49.282  1.00  0.00    -0.014 C 
BRANCH  19  20
HETATM   20  C2  UNL     1      24.643   6.977  48.037  1.00  0.00     0.144 C 
BRANCH  20  21
HETATM   21  N1  UNL     1      23.260   7.202  48.423  1.00  0.00    -0.203 NA
HETATM   22  H4  UNL     1      23.073   6.483  49.184  1.00  0.00     0.154 HD
BRANCH  21  23
HETATM   23  O1  UNL     1      22.481   6.954  47.349  1.00  0.00    -0.311 OA
HETATM   24  C1  UNL     1      21.527   5.976  47.608  1.00  0.00     0.229 C 
ENDBRANCH  21  23
ENDBRANCH  20  21
ENDBRANCH  19  20
ENDBRANCH   1  18
TORSDOF 4
ENDMDL
MODEL 9
REMARK VINA RESULT:      -6.5      8.032     10.109
REMARK  4 active torsions:
REMARK  status: ('A' for Active; 'I' for Inactive)
REMARK    1  A    between atoms: O1_2  and  N1_3 
REMARK    2  A    between atoms: N1_3  and  C2_4 
REMARK    3  A    between atoms: C2_4  and  C3_5 
REMARK    4  A    between atoms: C4_6  and  C5_7 
ROOT
HETATM    1  C5  UNL     1      27.510   6.855  47.691  1.00  0.00     0.057 C 
HETATM    2  C6  UNL     1      27.167   8.063  46.676  1.00  0.00     0.012 C 
HETATM    3  C7  UNL     1      27.428   9.435  46.521  1.00  0.00     0.023 C 
HETATM    4  C8  UNL     1      28.192  10.532  47.251  1.00  0.00    -0.004 C 
HETATM    5  C9  UNL     1      28.962  11.216  48.157  1.00  0.00     0.084 C 
HETATM    6  N2  UNL     1      29.594  10.642  49.361  1.00  0.00    -0.367 N 
HETATM    7  C10 UNL     1      29.157   9.234  49.479  1.00  0.00     0.042 A 
HETATM    8  C11 UNL     1      27.958   9.633  49.938  1.00  0.00     0.287 A 
HETATM    9  N3  UNL     1      27.533   8.482  49.321  1.00  0.00    -0.301 NA
HETATM   10  C12 UNL     1      28.357   7.653  48.671  1.00  0.00    -0.002 A 
HETATM   11  C13 UNL     1      29.669   7.409  48.297  1.00  0.00    -0.007 A 
HETATM   12  C14 UNL     1      30.467   6.524  47.637  1.00  0.00     0.014 A 
HETATM   13  C15 UNL     1      31.796   6.888  47.626  1.00  0.00     0.001 A 
HETATM   14  C16 UNL     1      32.303   8.024  48.215  1.00  0.00     0.001 A 
HETATM   15  C17 UNL     1      31.565   8.967  48.899  1.00  0.00     0.014 A 
HETATM   16  C18 UNL     1      30.244   8.599  48.905  1.00  0.00    -0.000 A 
HETATM   17  H14 UNL     1      30.228  10.952  50.037  1.00  0.00     0.165 HD
ENDROOT
BRANCH   1  18
HETATM   18  C4  UNL     1      26.227   6.568  48.315  1.00  0.00    -0.019 C 
HETATM   19  C3  UNL     1      25.924   5.461  48.984  1.00  0.00    -0.014 C 
BRANCH  19  20
HETATM   20  C2  UNL     1      26.786   4.283  49.251  1.00  0.00     0.144 C 
BRANCH  20  21
HETATM   21  N1  UNL     1      26.515   3.864  50.615  1.00  0.00    -0.203 NA
HETATM   22  H4  UNL     1      27.033   4.566  51.222  1.00  0.00     0.154 HD
BRANCH  21  23
HETATM   23  O1  UNL     1      27.038   2.631  50.785  1.00  0.00    -0.311 OA
HETATM   24  C1  UNL     1      27.008   2.226  52.114  1.00  0.00     0.229 C 
ENDBRANCH  21  23
ENDBRANCH  20  21
ENDBRANCH  19  20
ENDBRANCH   1  18
TORSDOF 4
ENDMDL
