MODEL 1
REMARK VINA RESULT:      -7.3      0.000      0.000
REMARK  7 active torsions:
REMARK  status: ('A' for Active; 'I' for Inactive)
REMARK    1  A    between atoms: C2_2  and  C4_5 
REMARK    2  A    between atoms: C4_5  and  N2_9 
REMARK    3  A    between atoms: C5_6  and  C6_7 
REMARK    4  A    between atoms: N2_9  and  C7_10 
REMARK    5  A    between atoms: C10_13  and  O1_14 
REMARK    6  A    between atoms: O1_14  and  C11_15 
REMARK    7  A    between atoms: C11_15  and  C12_16 
ROOT
HETATM    1  C1  UNL     1      21.891   0.156  52.054  1.00  0.00     0.037 C 
HETATM    2  C2  UNL     1      22.623  -0.221  53.091  1.00  0.00     0.061 C 
HETATM    3  C3  UNL     1      22.050  -1.056  54.135  1.00  0.00     0.101 C 
HETATM    4  N1  UNL     1      21.578  -1.715  54.957  1.00  0.00    -0.191 NA
ENDROOT
BRANCH   2   5
HETATM    5  C4  UNL     1      24.019   0.187  53.213  1.00  0.00     0.051 C 
HETATM    6  C5  UNL     1      25.000  -0.703  53.193  1.00  0.00     0.035 C 
BRANCH   6   7
HETATM    7  C6  UNL     1      26.444  -0.368  53.312  1.00  0.00     0.252 C 
HETATM    8  F1  UNL     1      27.185  -0.762  52.229  1.00  0.00    -0.251 F 
ENDBRANCH   6   7
BRANCH   5   9
HETATM    9  N2  UNL     1      24.320   1.568  53.356  1.00  0.00    -0.355 N 
HETATM   10  H6  UNL     1      24.442   1.682  54.384  1.00  0.00     0.166 HD
BRANCH   9  11
HETATM   11  C7  UNL     1      24.457   2.643  52.439  1.00  0.00     0.034 A 
HETATM   12  C8  UNL     1      23.630   3.730  52.613  1.00  0.00     0.032 A 
HETATM   13  C9  UNL     1      23.763   4.769  51.727  1.00  0.00     0.041 A 
HETATM   14  C10 UNL     1      24.651   4.814  50.680  1.00  0.00     0.091 A 
HETATM   15  C18 UNL     1      25.477   3.689  50.534  1.00  0.00     0.069 A 
HETATM   16 CL1  UNL     1      26.707   3.434  49.310  1.00  0.00    -0.081 Cl
HETATM   17  C19 UNL     1      25.374   2.606  51.418  1.00  0.00     0.056 A 
BRANCH  14  18
HETATM   18  O1  UNL     1      24.960   5.706  49.696  1.00  0.00    -0.345 OA
BRANCH  18  19
HETATM   19  C11 UNL     1      25.491   6.968  49.847  1.00  0.00     0.217 C 
BRANCH  19  20
HETATM   20  C12 UNL     1      26.762   7.242  49.152  1.00  0.00     0.004 A 
HETATM   21  C13 UNL     1      27.477   6.566  48.192  1.00  0.00     0.012 A 
HETATM   22  C14 UNL     1      28.676   7.000  47.674  1.00  0.00     0.001 A 
HETATM   23  C15 UNL     1      29.240   8.193  48.117  1.00  0.00     0.003 A 
HETATM   24  C16 UNL     1      28.540   8.889  49.079  1.00  0.00     0.043 A 
HETATM   25  C17 UNL     1      27.340   8.444  49.589  1.00  0.00     0.124 A 
HETATM   26  F2  UNL     1      26.807   9.281  50.536  1.00  0.00    -0.205 F 
ENDBRANCH  19  20
ENDBRANCH  18  19
ENDBRANCH  14  18
ENDBRANCH   9  11
ENDBRANCH   5   9
ENDBRANCH   2   5
TORSDOF 7
ENDMDL
MODEL 2
REMARK VINA RESULT:      -7.2      2.684      3.982
REMARK  7 active torsions:
REMARK  status: ('A' for Active; 'I' for Inactive)
REMARK    1  A    between atoms: C2_2  and  C4_5 
REMARK    2  A    between atoms: C4_5  and  N2_9 
REMARK    3  A    between atoms: C5_6  and  C6_7 
REMARK    4  A    between atoms: N2_9  and  C7_10 
REMARK    5  A    between atoms: C10_13  and  O1_14 
REMARK    6  A    between atoms: O1_14  and  C11_15 
REMARK    7  A    between atoms: C11_15  and  C12_16 
ROOT
HETATM    1  C1  UNL     1      28.952   2.388  53.830  1.00  0.00     0.037 C 
HETATM    2  C2  UNL     1      28.500   1.144  53.872  1.00  0.00     0.061 C 
HETATM    3  C3  UNL     1      29.424   0.021  53.831  1.00  0.00     0.101 C 
HETATM    4  N1  UNL     1      30.171  -0.859  53.792  1.00  0.00    -0.191 NA
ENDROOT
BRANCH   2   5
HETATM    5  C4  UNL     1      27.071   0.866  53.962  1.00  0.00     0.051 C 
HETATM    6  C5  UNL     1      26.622  -0.333  54.301  1.00  0.00     0.035 C 
BRANCH   6   7
HETATM    7  C6  UNL     1      25.184  -0.694  54.414  1.00  0.00     0.252 C 
HETATM    8  F1  UNL     1      24.574  -0.888  53.203  1.00  0.00    -0.251 F 
ENDBRANCH   6   7
BRANCH   5   9
HETATM    9  N2  UNL     1      26.150   1.911  53.679  1.00  0.00    -0.355 N 
HETATM   10  H6  UNL     1      25.965   2.329  54.615  1.00  0.00     0.166 HD
BRANCH   9  11
HETATM   11  C7  UNL     1      25.544   2.389  52.487  1.00  0.00     0.034 A 
HETATM   12  C8  UNL     1      24.169   2.374  52.429  1.00  0.00     0.032 A 
HETATM   13  C9  UNL     1      23.583   2.835  51.277  1.00  0.00     0.041 A 
HETATM   14  C10 UNL     1      24.255   3.311  50.177  1.00  0.00     0.091 A 
HETATM   15  C18 UNL     1      25.656   3.311  50.273  1.00  0.00     0.069 A 
HETATM   16 CL1  UNL     1      26.797   3.850  49.055  1.00  0.00    -0.081 Cl
HETATM   17  C19 UNL     1      26.294   2.848  51.433  1.00  0.00     0.056 A 
BRANCH  14  18
HETATM   18  O1  UNL     1      23.907   3.808  48.956  1.00  0.00    -0.345 OA
BRANCH  18  19
HETATM   19  C11 UNL     1      23.202   4.962  48.693  1.00  0.00     0.217 C 
BRANCH  19  20
HETATM   20  C12 UNL     1      23.918   6.237  48.885  1.00  0.00     0.004 A 
HETATM   21  C13 UNL     1      24.821   6.936  48.119  1.00  0.00     0.012 A 
HETATM   22  C14 UNL     1      25.392   8.129  48.498  1.00  0.00     0.001 A 
HETATM   23  C15 UNL     1      25.066   8.705  49.723  1.00  0.00     0.003 A 
HETATM   24  C16 UNL     1      24.162   8.022  50.508  1.00  0.00     0.043 A 
HETATM   25  C17 UNL     1      23.597   6.827  50.117  1.00  0.00     0.124 A 
HETATM   26  F2  UNL     1      22.725   6.310  51.040  1.00  0.00    -0.205 F 
ENDBRANCH  19  20
ENDBRANCH  18  19
ENDBRANCH  14  18
ENDBRANCH   9  11
ENDBRANCH   5   9
ENDBRANCH   2   5
TORSDOF 7
ENDMDL
MODEL 3
REMARK VINA RESULT:      -7.1      3.662      5.756
REMARK  7 active torsions:
REMARK  status: ('A' for Active; 'I' for Inactive)
REMARK    1  A    between atoms: C2_2  and  C4_5 
REMARK    2  A    between atoms: C4_5  and  N2_9 
REMARK    3  A    between atoms: C5_6  and  C6_7 
REMARK    4  A    between atoms: N2_9  and  C7_10 
REMARK    5  A    between atoms: C10_13  and  O1_14 
REMARK    6  A    between atoms: O1_14  and  C11_15 
REMARK    7  A    between atoms: C11_15  and  C12_16 
ROOT
HETATM    1  C1  UNL     1      29.043   2.058  53.974  1.00  0.00     0.037 C 
HETATM    2  C2  UNL     1      28.498   0.851  53.983  1.00  0.00     0.061 C 
HETATM    3  C3  UNL     1      29.333  -0.337  53.902  1.00  0.00     0.101 C 
HETATM    4  N1  UNL     1      30.010  -1.270  53.832  1.00  0.00    -0.191 NA
ENDROOT
BRANCH   2   5
HETATM    5  C4  UNL     1      27.052   0.681  54.076  1.00  0.00     0.051 C 
HETATM    6  C5  UNL     1      26.505  -0.521  54.182  1.00  0.00     0.035 C 
BRANCH   6   7
HETATM    7  C6  UNL     1      25.043  -0.777  54.281  1.00  0.00     0.252 C 
HETATM    8  F1  UNL     1      24.395  -0.698  53.076  1.00  0.00    -0.251 F 
ENDBRANCH   6   7
BRANCH   5   9
HETATM    9  N2  UNL     1      26.222   1.834  54.050  1.00  0.00    -0.355 N 
HETATM   10  H6  UNL     1      26.136   2.090  55.056  1.00  0.00     0.166 HD
BRANCH   9  11
HETATM   11  C7  UNL     1      25.595   2.570  53.010  1.00  0.00     0.034 A 
HETATM   12  C8  UNL     1      24.346   3.087  53.268  1.00  0.00     0.032 A 
HETATM   13  C9  UNL     1      23.740   3.798  52.262  1.00  0.00     0.041 A 
HETATM   14  C10 UNL     1      24.277   4.037  51.020  1.00  0.00     0.091 A 
HETATM   15  C18 UNL     1      25.552   3.494  50.795  1.00  0.00     0.069 A 
HETATM   16 CL1  UNL     1      26.506   3.616  49.328  1.00  0.00    -0.081 Cl
HETATM   17  C19 UNL     1      26.206   2.761  51.795  1.00  0.00     0.056 A 
BRANCH  14  18
HETATM   18  O1  UNL     1      23.882   4.693  49.892  1.00  0.00    -0.345 OA
BRANCH  18  19
HETATM   19  C11 UNL     1      23.076   4.212  48.884  1.00  0.00     0.217 C 
BRANCH  19  20
HETATM   20  C12 UNL     1      22.170   3.101  49.231  1.00  0.00     0.004 A 
HETATM   21  C13 UNL     1      22.277   1.733  49.141  1.00  0.00     0.012 A 
HETATM   22  C14 UNL     1      21.286   0.856  49.517  1.00  0.00     0.001 A 
HETATM   23  C15 UNL     1      20.082   1.335  50.028  1.00  0.00     0.003 A 
HETATM   24  C16 UNL     1      19.952   2.703  50.127  1.00  0.00     0.043 A 
HETATM   25  C17 UNL     1      20.952   3.571  49.747  1.00  0.00     0.124 A 
HETATM   26  F2  UNL     1      20.624   4.891  49.926  1.00  0.00    -0.205 F 
ENDBRANCH  19  20
ENDBRANCH  18  19
ENDBRANCH  14  18
ENDBRANCH   9  11
ENDBRANCH   5   9
ENDBRANCH   2   5
TORSDOF 7
ENDMDL
MODEL 4
REMARK VINA RESULT:      -7.1      3.362      7.509
REMARK  7 active torsions:
REMARK  status: ('A' for Active; 'I' for Inactive)
REMARK    1  A    between atoms: C2_2  and  C4_5 
REMARK    2  A    between atoms: C4_5  and  N2_9 
REMARK    3  A    between atoms: C5_6  and  C6_7 
REMARK    4  A    between atoms: N2_9  and  C7_10 
REMARK    5  A    between atoms: C10_13  and  O1_14 
REMARK    6  A    between atoms: O1_14  and  C11_15 
REMARK    7  A    between atoms: C11_15  and  C12_16 
ROOT
HETATM    1  C1  UNL     1      21.661   5.450  47.500  1.00  0.00     0.037 C 
HETATM    2  C2  UNL     1      22.535   4.610  48.033  1.00  0.00     0.061 C 
HETATM    3  C3  UNL     1      22.423   3.180  47.796  1.00  0.00     0.101 C 
HETATM    4  N1  UNL     1      22.316   2.046  47.603  1.00  0.00    -0.191 NA
ENDROOT
BRANCH   2   5
HETATM    5  C4  UNL     1      23.630   5.095  48.866  1.00  0.00     0.051 C 
HETATM    6  C5  UNL     1      24.536   5.937  48.391  1.00  0.00     0.035 C 
BRANCH   6   7
HETATM    7  C6  UNL     1      25.680   6.475  49.175  1.00  0.00     0.252 C 
HETATM    8  F1  UNL     1      26.812   5.709  49.080  1.00  0.00    -0.251 F 
ENDBRANCH   6   7
BRANCH   5   9
HETATM    9  N2  UNL     1      23.718   4.648  50.212  1.00  0.00    -0.355 N 
HETATM   10  H6  UNL     1      23.400   5.474  50.761  1.00  0.00     0.166 HD
BRANCH   9  11
HETATM   11  C7  UNL     1      24.115   3.426  50.818  1.00  0.00     0.034 A 
HETATM   12  C8  UNL     1      25.460   3.139  50.836  1.00  0.00     0.032 A 
HETATM   13  C9  UNL     1      25.843   1.958  51.421  1.00  0.00     0.041 A 
HETATM   14  C10 UNL     1      24.995   1.039  51.989  1.00  0.00     0.091 A 
HETATM   15  C18 UNL     1      23.630   1.366  51.951  1.00  0.00     0.069 A 
HETATM   16 CL1  UNL     1      22.299   0.415  52.584  1.00  0.00    -0.081 Cl
HETATM   17  C19 UNL     1      23.197   2.563  51.363  1.00  0.00     0.056 A 
BRANCH  14  18
HETATM   18  O1  UNL     1      25.132  -0.167  52.611  1.00  0.00    -0.345 OA
BRANCH  18  19
HETATM   19  C11 UNL     1      25.744  -0.420  53.819  1.00  0.00     0.217 C 
BRANCH  19  20
HETATM   20  C12 UNL     1      27.217  -0.347  53.846  1.00  0.00     0.004 A 
HETATM   21  C13 UNL     1      28.107   0.576  54.341  1.00  0.00     0.012 A 
HETATM   22  C14 UNL     1      29.475   0.456  54.248  1.00  0.00     0.001 A 
HETATM   23  C15 UNL     1      30.040  -0.653  53.624  1.00  0.00     0.003 A 
HETATM   24  C16 UNL     1      29.167  -1.592  53.120  1.00  0.00     0.043 A 
HETATM   25  C17 UNL     1      27.799  -1.460  53.219  1.00  0.00     0.124 A 
HETATM   26  F2  UNL     1      27.109  -2.502  52.655  1.00  0.00    -0.205 F 
ENDBRANCH  19  20
ENDBRANCH  18  19
ENDBRANCH  14  18
ENDBRANCH   9  11
ENDBRANCH   5   9
ENDBRANCH   2   5
TORSDOF 7
ENDMDL
MODEL 5
REMARK VINA RESULT:      -7.0      5.610      7.099
REMARK  7 active torsions:
REMARK  status: ('A' for Active; 'I' for Inactive)
REMARK    1  A    between atoms: C2_2  and  C4_5 
REMARK    2  A    between atoms: C4_5  and  N2_9 
REMARK    3  A    between atoms: C5_6  and  C6_7 
REMARK    4  A    between atoms: N2_9  and  C7_10 
REMARK    5  A    between atoms: C10_13  and  O1_14 
REMARK    6  A    between atoms: O1_14  and  C11_15 
REMARK    7  A    between atoms: C11_15  and  C12_16 
ROOT
HETATM    1  C1  UNL     1      18.476  -1.398  53.180  1.00  0.00     0.037 C 
HETATM    2  C2  UNL     1      17.897  -0.660  52.245  1.00  0.00     0.061 C 
HETATM    3  C3  UNL     1      16.503  -0.875  51.893  1.00  0.00     0.101 C 
HETATM    4  N1  UNL     1      15.396  -1.061  51.623  1.00  0.00    -0.191 NA
ENDROOT
BRANCH   2   5
HETATM    5  C4  UNL     1      18.640   0.383  51.546  1.00  0.00     0.051 C 
HETATM    6  C5  UNL     1      18.366   0.698  50.289  1.00  0.00     0.035 C 
BRANCH   6   7
HETATM    7  C6  UNL     1      19.075   1.748  49.509  1.00  0.00     0.252 C 
HETATM    8  F1  UNL     1      20.289   1.337  49.023  1.00  0.00    -0.251 F 
ENDBRANCH   6   7
BRANCH   5   9
HETATM    9  N2  UNL     1      19.674   1.069  52.237  1.00  0.00    -0.355 N 
HETATM   10  H6  UNL     1      19.213   1.949  52.550  1.00  0.00     0.166 HD
BRANCH   9  11
HETATM   11  C7  UNL     1      21.034   0.770  52.517  1.00  0.00     0.034 A 
HETATM   12  C8  UNL     1      21.981   1.277  51.657  1.00  0.00     0.032 A 
HETATM   13  C9  UNL     1      23.295   0.987  51.927  1.00  0.00     0.041 A 
HETATM   14  C10 UNL     1      23.743   0.234  52.986  1.00  0.00     0.091 A 
HETATM   15  C18 UNL     1      22.748  -0.265  53.841  1.00  0.00     0.069 A 
HETATM   16 CL1  UNL     1      22.985  -1.253  55.270  1.00  0.00    -0.081 Cl
HETATM   17  C19 UNL     1      21.394   0.007  53.600  1.00  0.00     0.056 A 
BRANCH  14  18
HETATM   18  O1  UNL     1      24.958  -0.178  53.449  1.00  0.00    -0.345 OA
BRANCH  18  19
HETATM   19  C11 UNL     1      25.984   0.609  53.922  1.00  0.00     0.217 C 
BRANCH  19  20
HETATM   20  C12 UNL     1      27.354   0.101  53.728  1.00  0.00     0.004 A 
HETATM   21  C13 UNL     1      27.872  -1.150  53.486  1.00  0.00     0.012 A 
HETATM   22  C14 UNL     1      29.215  -1.415  53.346  1.00  0.00     0.001 A 
HETATM   23  C15 UNL     1      30.147  -0.386  53.446  1.00  0.00     0.003 A 
HETATM   24  C16 UNL     1      29.652   0.877  53.687  1.00  0.00     0.043 A 
HETATM   25  C17 UNL     1      28.304   1.130  53.826  1.00  0.00     0.124 A 
HETATM   26  F2  UNL     1      28.020   2.450  54.062  1.00  0.00    -0.205 F 
ENDBRANCH  19  20
ENDBRANCH  18  19
ENDBRANCH  14  18
ENDBRANCH   9  11
ENDBRANCH   5   9
ENDBRANCH   2   5
TORSDOF 7
ENDMDL
MODEL 6
REMARK VINA RESULT:      -7.0      4.016      7.610
REMARK  7 active torsions:
REMARK  status: ('A' for Active; 'I' for Inactive)
REMARK    1  A    between atoms: C2_2  and  C4_5 
REMARK    2  A    between atoms: C4_5  and  N2_9 
REMARK    3  A    between atoms: C5_6  and  C6_7 
REMARK    4  A    between atoms: N2_9  and  C7_10 
REMARK    5  A    between atoms: C10_13  and  O1_14 
REMARK    6  A    between atoms: O1_14  and  C11_15 
REMARK    7  A    between atoms: C11_15  and  C12_16 
ROOT
HETATM    1  C1  UNL     1      22.907   6.626  48.615  1.00  0.00     0.037 C 
HETATM    2  C2  UNL     1      23.517   5.464  48.794  1.00  0.00     0.061 C 
HETATM    3  C3  UNL     1      24.967   5.398  48.884  1.00  0.00     0.101 C 
HETATM    4  N1  UNL     1      26.119   5.362  48.949  1.00  0.00    -0.191 NA
ENDROOT
BRANCH   2   5
HETATM    5  C4  UNL     1      22.754   4.226  48.905  1.00  0.00     0.051 C 
HETATM    6  C5  UNL     1      22.256   3.625  47.835  1.00  0.00     0.035 C 
BRANCH   6   7
HETATM    7  C6  UNL     1      21.469   2.363  47.866  1.00  0.00     0.252 C 
HETATM    8  F1  UNL     1      22.248   1.239  47.956  1.00  0.00    -0.251 F 
ENDBRANCH   6   7
BRANCH   5   9
HETATM    9  N2  UNL     1      22.548   3.661  50.193  1.00  0.00    -0.355 N 
HETATM   10  H6  UNL     1      21.739   4.202  50.565  1.00  0.00     0.166 HD
BRANCH   9  11
HETATM   11  C7  UNL     1      23.187   2.626  50.925  1.00  0.00     0.034 A 
HETATM   12  C8  UNL     1      24.563   2.604  50.916  1.00  0.00     0.032 A 
HETATM   13  C9  UNL     1      25.180   1.603  51.623  1.00  0.00     0.041 A 
HETATM   14  C10 UNL     1      24.539   0.622  52.340  1.00  0.00     0.091 A 
HETATM   15  C18 UNL     1      23.137   0.677  52.327  1.00  0.00     0.069 A 
HETATM   16 CL1  UNL     1      22.030  -0.417  53.134  1.00  0.00    -0.081 Cl
HETATM   17  C19 UNL     1      22.467   1.683  51.616  1.00  0.00     0.056 A 
BRANCH  14  18
HETATM   18  O1  UNL     1      24.922  -0.444  53.100  1.00  0.00    -0.345 OA
BRANCH  18  19
HETATM   19  C11 UNL     1      25.684  -0.423  54.247  1.00  0.00     0.217 C 
BRANCH  19  20
HETATM   20  C12 UNL     1      27.125  -0.158  54.081  1.00  0.00     0.004 A 
HETATM   21  C13 UNL     1      27.936   0.899  54.425  1.00  0.00     0.012 A 
HETATM   22  C14 UNL     1      29.285   0.953  54.162  1.00  0.00     0.001 A 
HETATM   23  C15 UNL     1      29.916  -0.104  53.510  1.00  0.00     0.003 A 
HETATM   24  C16 UNL     1      29.123  -1.174  53.156  1.00  0.00     0.043 A 
HETATM   25  C17 UNL     1      27.772  -1.216  53.425  1.00  0.00     0.124 A 
HETATM   26  F2  UNL     1      27.167  -2.367  52.991  1.00  0.00    -0.205 F 
ENDBRANCH  19  20
ENDBRANCH  18  19
ENDBRANCH  14  18
ENDBRANCH   9  11
ENDBRANCH   5   9
ENDBRANCH   2   5
TORSDOF 7
ENDMDL
MODEL 7
REMARK VINA RESULT:      -7.0      2.300      3.226
REMARK  7 active torsions:
REMARK  status: ('A' for Active; 'I' for Inactive)
REMARK    1  A    between atoms: C2_2  and  C4_5 
REMARK    2  A    between atoms: C4_5  and  N2_9 
REMARK    3  A    between atoms: C5_6  and  C6_7 
REMARK    4  A    between atoms: N2_9  and  C7_10 
REMARK    5  A    between atoms: C10_13  and  O1_14 
REMARK    6  A    between atoms: O1_14  and  C11_15 
REMARK    7  A    between atoms: C11_15  and  C12_16 
ROOT
HETATM    1  C1  UNL     1      26.225   0.639  54.313  1.00  0.00     0.037 C 
HETATM    2  C2  UNL     1      25.574  -0.317  53.669  1.00  0.00     0.061 C 
HETATM    3  C3  UNL     1      26.301  -1.311  52.894  1.00  0.00     0.101 C 
HETATM    4  N1  UNL     1      26.892  -2.089  52.279  1.00  0.00    -0.191 NA
ENDROOT
BRANCH   2   5
HETATM    5  C4  UNL     1      24.119  -0.400  53.719  1.00  0.00     0.051 C 
HETATM    6  C5  UNL     1      23.499  -1.027  54.708  1.00  0.00     0.035 C 
BRANCH   6   7
HETATM    7  C6  UNL     1      22.022  -1.155  54.830  1.00  0.00     0.252 C 
HETATM    8  F1  UNL     1      21.458  -1.912  53.837  1.00  0.00    -0.251 F 
ENDBRANCH   6   7
BRANCH   5   9
HETATM    9  N2  UNL     1      23.361   0.206  52.682  1.00  0.00    -0.355 N 
HETATM   10  H6  UNL     1      22.701  -0.547  52.394  1.00  0.00     0.166 HD
BRANCH   9  11
HETATM   11  C7  UNL     1      23.373   1.492  52.078  1.00  0.00     0.034 A 
HETATM   12  C8  UNL     1      23.266   1.546  50.708  1.00  0.00     0.032 A 
HETATM   13  C9  UNL     1      23.279   2.788  50.125  1.00  0.00     0.041 A 
HETATM   14  C10 UNL     1      23.390   3.982  50.796  1.00  0.00     0.091 A 
HETATM   15  C18 UNL     1      23.498   3.886  52.193  1.00  0.00     0.069 A 
HETATM   16 CL1  UNL     1      23.653   5.211  53.332  1.00  0.00    -0.081 Cl
HETATM   17  C19 UNL     1      23.489   2.636  52.827  1.00  0.00     0.056 A 
BRANCH  14  18
HETATM   18  O1  UNL     1      23.425   5.301  50.450  1.00  0.00    -0.345 OA
BRANCH  18  19
HETATM   19  C11 UNL     1      24.488   6.168  50.570  1.00  0.00     0.217 C 
BRANCH  19  20
HETATM   20  C12 UNL     1      25.702   5.841  49.799  1.00  0.00     0.004 A 
HETATM   21  C13 UNL     1      26.347   4.662  49.509  1.00  0.00     0.012 A 
HETATM   22  C14 UNL     1      27.502   4.576  48.766  1.00  0.00     0.001 A 
HETATM   23  C15 UNL     1      28.092   5.728  48.252  1.00  0.00     0.003 A 
HETATM   24  C16 UNL     1      27.463   6.923  48.529  1.00  0.00     0.043 A 
HETATM   25  C17 UNL     1      26.306   6.995  49.275  1.00  0.00     0.124 A 
HETATM   26  F2  UNL     1      25.842   8.275  49.437  1.00  0.00    -0.205 F 
ENDBRANCH  19  20
ENDBRANCH  18  19
ENDBRANCH  14  18
ENDBRANCH   9  11
ENDBRANCH   5   9
ENDBRANCH   2   5
TORSDOF 7
ENDMDL
MODEL 8
REMARK VINA RESULT:      -6.7      2.068      2.913
REMARK  7 active torsions:
REMARK  status: ('A' for Active; 'I' for Inactive)
REMARK    1  A    between atoms: C2_2  and  C4_5 
REMARK    2  A    between atoms: C4_5  and  N2_9 
REMARK    3  A    between atoms: C5_6  and  C6_7 
REMARK    4  A    between atoms: N2_9  and  C7_10 
REMARK    5  A    between atoms: C10_13  and  O1_14 
REMARK    6  A    between atoms: O1_14  and  C11_15 
REMARK    7  A    between atoms: C11_15  and  C12_16 
ROOT
HETATM    1  C1  UNL     1      26.523   1.720  53.827  1.00  0.00     0.037 C 
HETATM    2  C2  UNL     1      25.912   0.663  53.313  1.00  0.00     0.061 C 
HETATM    3  C3  UNL     1      26.598  -0.616  53.224  1.00  0.00     0.101 C 
HETATM    4  N1  UNL     1      27.159  -1.623  53.156  1.00  0.00    -0.191 NA
ENDROOT
BRANCH   2   5
HETATM    5  C4  UNL     1      24.540   0.753  52.826  1.00  0.00     0.051 C 
HETATM    6  C5  UNL     1      23.527   0.267  53.528  1.00  0.00     0.035 C 
BRANCH   6   7
HETATM    7  C6  UNL     1      22.103   0.319  53.101  1.00  0.00     0.252 C 
HETATM    8  F1  UNL     1      21.800  -0.576  52.109  1.00  0.00    -0.251 F 
ENDBRANCH   6   7
BRANCH   5   9
HETATM    9  N2  UNL     1      24.296   1.376  51.572  1.00  0.00    -0.355 N 
HETATM   10  H6  UNL     1      23.855   0.619  51.010  1.00  0.00     0.166 HD
BRANCH   9  11
HETATM   11  C7  UNL     1      24.532   2.680  51.061  1.00  0.00     0.034 A 
HETATM   12  C8  UNL     1      25.664   2.865  50.302  1.00  0.00     0.032 A 
HETATM   13  C9  UNL     1      25.892   4.125  49.809  1.00  0.00     0.041 A 
HETATM   14  C10 UNL     1      25.084   5.217  50.010  1.00  0.00     0.091 A 
HETATM   15  C18 UNL     1      23.938   4.990  50.789  1.00  0.00     0.069 A 
HETATM   16 CL1  UNL     1      22.712   6.165  51.229  1.00  0.00    -0.081 Cl
HETATM   17  C19 UNL     1      23.669   3.718  51.313  1.00  0.00     0.056 A 
BRANCH  14  18
HETATM   18  O1  UNL     1      25.098   6.528  49.636  1.00  0.00    -0.345 OA
BRANCH  18  19
HETATM   19  C11 UNL     1      26.018   7.489  49.991  1.00  0.00     0.217 C 
BRANCH  19  20
HETATM   20  C12 UNL     1      27.142   7.709  49.061  1.00  0.00     0.004 A 
HETATM   21  C13 UNL     1      27.537   7.095  47.896  1.00  0.00     0.012 A 
HETATM   22  C14 UNL     1      28.650   7.456  47.173  1.00  0.00     0.001 A 
HETATM   23  C15 UNL     1      29.458   8.504  47.606  1.00  0.00     0.003 A 
HETATM   24  C16 UNL     1      29.082   9.135  48.772  1.00  0.00     0.043 A 
HETATM   25  C17 UNL     1      27.964   8.764  49.488  1.00  0.00     0.124 A 
HETATM   26  F2  UNL     1      27.766   9.516  50.616  1.00  0.00    -0.205 F 
ENDBRANCH  19  20
ENDBRANCH  18  19
ENDBRANCH  14  18
ENDBRANCH   9  11
ENDBRANCH   5   9
ENDBRANCH   2   5
TORSDOF 7
ENDMDL
MODEL 9
REMARK VINA RESULT:      -6.7      2.557      3.158
REMARK  7 active torsions:
REMARK  status: ('A' for Active; 'I' for Inactive)
REMARK    1  A    between atoms: C2_2  and  C4_5 
REMARK    2  A    between atoms: C4_5  and  N2_9 
REMARK    3  A    between atoms: C5_6  and  C6_7 
REMARK    4  A    between atoms: N2_9  and  C7_10 
REMARK    5  A    between atoms: C10_13  and  O1_14 
REMARK    6  A    between atoms: O1_14  and  C11_15 
REMARK    7  A    between atoms: C11_15  and  C12_16 
ROOT
HETATM    1  C1  UNL     1      22.177   0.131  52.187  1.00  0.00     0.037 C 
HETATM    2  C2  UNL     1      22.950  -0.236  53.198  1.00  0.00     0.061 C 
HETATM    3  C3  UNL     1      22.405  -1.019  54.297  1.00  0.00     0.101 C 
HETATM    4  N1  UNL     1      21.956  -1.636  55.163  1.00  0.00    -0.191 NA
ENDROOT
BRANCH   2   5
HETATM    5  C4  UNL     1      24.361   0.132  53.237  1.00  0.00     0.051 C 
HETATM    6  C5  UNL     1      25.313  -0.788  53.187  1.00  0.00     0.035 C 
BRANCH   6   7
HETATM    7  C6  UNL     1      26.771  -0.494  53.222  1.00  0.00     0.252 C 
HETATM    8  F1  UNL     1      27.271  -0.076  52.017  1.00  0.00    -0.251 F 
ENDBRANCH   6   7
BRANCH   5   9
HETATM    9  N2  UNL     1      24.710   1.506  53.331  1.00  0.00    -0.355 N 
HETATM   10  H6  UNL     1      25.032   1.606  54.316  1.00  0.00     0.166 HD
BRANCH   9  11
HETATM   11  C7  UNL     1      24.686   2.590  52.413  1.00  0.00     0.034 A 
HETATM   12  C8  UNL     1      23.712   3.545  52.591  1.00  0.00     0.032 A 
HETATM   13  C9  UNL     1      23.689   4.592  51.704  1.00  0.00     0.041 A 
HETATM   14  C10 UNL     1      24.557   4.766  50.654  1.00  0.00     0.091 A 
HETATM   15  C18 UNL     1      25.537   3.772  50.505  1.00  0.00     0.069 A 
HETATM   16 CL1  UNL     1      26.786   3.698  49.276  1.00  0.00    -0.081 Cl
HETATM   17  C19 UNL     1      25.595   2.685  51.389  1.00  0.00     0.056 A 
BRANCH  14  18
HETATM   18  O1  UNL     1      24.730   5.693  49.669  1.00  0.00    -0.345 OA
BRANCH  18  19
HETATM   19  C11 UNL     1      23.856   6.690  49.297  1.00  0.00     0.217 C 
BRANCH  19  20
HETATM   20  C12 UNL     1      23.619   6.860  47.852  1.00  0.00     0.004 A 
HETATM   21  C13 UNL     1      24.189   7.659  46.889  1.00  0.00     0.012 A 
HETATM   22  C14 UNL     1      23.802   7.672  45.569  1.00  0.00     0.001 A 
HETATM   23  C15 UNL     1      22.774   6.841  45.131  1.00  0.00     0.003 A 
HETATM   24  C16 UNL     1      22.188   6.030  46.078  1.00  0.00     0.043 A 
HETATM   25  C17 UNL     1      22.584   6.027  47.398  1.00  0.00     0.124 A 
HETATM   26  F2  UNL     1      21.875   5.150  48.177  1.00  0.00    -0.205 F 
ENDBRANCH  19  20
ENDBRANCH  18  19
ENDBRANCH  14  18
ENDBRANCH   9  11
ENDBRANCH   5   9
ENDBRANCH   2   5
TORSDOF 7
ENDMDL
