MODEL 1
REMARK VINA RESULT:      -8.1      0.000      0.000
REMARK  5 active torsions:
REMARK  status: ('A' for Active; 'I' for Inactive)
REMARK    1  A    between atoms: C4_5  and  O1_6 
REMARK    2  A    between atoms: C6_8  and  C7_9 
REMARK    3  A    between atoms: C7_9  and  N2_10 
REMARK    4  A    between atoms: N2_10  and  C9_12 
REMARK    5  A    between atoms: C9_12  and  C11_14 
REMARK       I    between atoms: C11_14  and  N3_15 
ROOT
HETATM    1  C1  UNL     1      21.196   4.549  51.304  1.00  0.00     0.178 C 
HETATM    2  N1  UNL     1      21.607   3.342  51.837  1.00  0.00    -0.293 NA
HETATM    3  C2  UNL     1      22.546   2.637  52.059  1.00  0.00     0.066 A 
HETATM    4  C3  UNL     1      22.215   1.367  52.714  1.00  0.00     0.069 A 
HETATM    5  C4  UNL     1      23.075   0.419  53.064  1.00  0.00     0.078 A 
HETATM    6  C6  UNL     1      24.497   0.582  52.806  1.00  0.00    -0.006 A 
HETATM    7  C12 UNL     1      24.835   1.714  52.215  1.00  0.00     0.028 A 
HETATM    8  C13 UNL     1      23.961   2.803  51.799  1.00  0.00     0.032 A 
HETATM    9  C14 UNL     1      24.451   3.910  51.225  1.00  0.00     0.103 C 
HETATM   10  N4  UNL     1      25.799   4.399  50.825  1.00  0.00    -0.326 N 
HETATM   11  C15 UNL     1      25.054   4.807  49.714  1.00  0.00     0.286 A 
HETATM   12  F1  UNL     1      24.558   3.723  48.943  1.00  0.00    -0.193 F 
HETATM   13  C16 UNL     1      24.700   6.084  49.223  1.00  0.00     0.099 A 
HETATM   14 CL1  UNL     1      25.175   7.087  47.878  1.00  0.00    -0.081 Cl
HETATM   15  C17 UNL     1      23.798   6.437  50.109  1.00  0.00     0.098 A 
HETATM   16  N5  UNL     1      24.043   5.204  50.741  1.00  0.00    -0.183 NA
HETATM   17  H20 UNL     1      26.657   4.270  51.432  1.00  0.00     0.165 HD
ENDROOT
BRANCH   6  18
HETATM   18  C7  UNL     1      25.634  -0.332  53.077  1.00  0.00     0.159 C 
BRANCH  18  19
HETATM   19  N2  UNL     1      26.398  -0.123  54.217  1.00  0.00    -0.401 N 
HETATM   20  C8  UNL     1      25.900  -0.372  55.505  1.00  0.00     0.144 C 
BRANCH  19  21
HETATM   21  C9  UNL     1      27.810  -0.155  54.148  1.00  0.00     0.167 C 
HETATM   22  C10 UNL     1      28.378  -1.132  53.144  1.00  0.00     0.042 C 
BRANCH  21  23
HETATM   23  C11 UNL     1      28.427   1.190  53.954  1.00  0.00     0.237 C 
HETATM   24  N3  UNL     1      29.821   1.197  53.612  1.00  0.00    -0.368 N 
HETATM   25  H17 UNL     1      30.571   0.594  54.061  1.00  0.00     0.159 HD
HETATM   26  H18 UNL     1      30.362   1.756  52.898  1.00  0.00     0.159 HD
HETATM   27  O2  UNL     1      27.851   2.305  54.059  1.00  0.00    -0.271 OA
ENDBRANCH  21  23
ENDBRANCH  19  21
ENDBRANCH  18  19
ENDBRANCH   6  18
BRANCH   5  28
HETATM   28  O1  UNL     1      22.689  -0.758  53.679  1.00  0.00    -0.355 OA
HETATM   29  C5  UNL     1      21.852  -0.676  54.814  1.00  0.00     0.210 C 
ENDBRANCH   5  28
TORSDOF 5
ENDMDL
MODEL 2
REMARK VINA RESULT:      -7.5      2.242      2.573
REMARK  5 active torsions:
REMARK  status: ('A' for Active; 'I' for Inactive)
REMARK    1  A    between atoms: C4_5  and  O1_6 
REMARK    2  A    between atoms: C6_8  and  C7_9 
REMARK    3  A    between atoms: C7_9  and  N2_10 
REMARK    4  A    between atoms: N2_10  and  C9_12 
REMARK    5  A    between atoms: C9_12  and  C11_14 
REMARK       I    between atoms: C11_14  and  N3_15 
ROOT
HETATM    1  C1  UNL     1      19.646   1.081  50.146  1.00  0.00     0.178 C 
HETATM    2  N1  UNL     1      20.607   0.742  51.079  1.00  0.00    -0.293 NA
HETATM    3  C2  UNL     1      21.714   0.963  51.472  1.00  0.00     0.066 A 
HETATM    4  C3  UNL     1      22.129   0.148  52.618  1.00  0.00     0.069 A 
HETATM    5  C4  UNL     1      23.304   0.204  53.234  1.00  0.00     0.078 A 
HETATM    6  C6  UNL     1      24.327   1.136  52.788  1.00  0.00    -0.006 A 
HETATM    7  C12 UNL     1      23.990   1.887  51.755  1.00  0.00     0.028 A 
HETATM    8  C13 UNL     1      22.731   1.892  51.024  1.00  0.00     0.032 A 
HETATM    9  C14 UNL     1      22.521   2.732  50.001  1.00  0.00     0.103 C 
HETATM   10  N4  UNL     1      23.312   3.780  49.300  1.00  0.00    -0.326 N 
HETATM   11  C15 UNL     1      22.712   3.155  48.202  1.00  0.00     0.286 A 
HETATM   12  F1  UNL     1      23.166   1.826  47.996  1.00  0.00    -0.193 F 
HETATM   13  C16 UNL     1      21.743   3.593  47.272  1.00  0.00     0.099 A 
HETATM   14 CL1  UNL     1      21.738   4.067  45.593  1.00  0.00    -0.081 Cl
HETATM   15  C17 UNL     1      20.666   3.575  48.025  1.00  0.00     0.098 A 
HETATM   16  N5  UNL     1      21.499   3.148  49.075  1.00  0.00    -0.183 NA
HETATM   17  H20 UNL     1      23.923   4.475  49.814  1.00  0.00     0.165 HD
ENDROOT
BRANCH   6  18
HETATM   18  C7  UNL     1      25.704   1.364  53.290  1.00  0.00     0.159 C 
BRANCH  18  19
HETATM   19  N2  UNL     1      26.634   0.340  53.171  1.00  0.00    -0.401 N 
HETATM   20  C8  UNL     1      26.654  -0.524  52.065  1.00  0.00     0.144 C 
BRANCH  19  21
HETATM   21  C9  UNL     1      27.878   0.420  53.839  1.00  0.00     0.167 C 
HETATM   22  C10 UNL     1      28.811  -0.743  53.591  1.00  0.00     0.042 C 
BRANCH  21  23
HETATM   23  C11 UNL     1      28.596   1.708  53.606  1.00  0.00     0.237 C 
HETATM   24  N3  UNL     1      29.469   2.138  54.661  1.00  0.00    -0.368 N 
HETATM   25  H17 UNL     1      29.244   2.113  55.699  1.00  0.00     0.159 HD
HETATM   26  H18 UNL     1      30.445   2.541  54.640  1.00  0.00     0.159 HD
HETATM   27  O2  UNL     1      28.513   2.443  52.587  1.00  0.00    -0.271 OA
ENDBRANCH  21  23
ENDBRANCH  19  21
ENDBRANCH  18  19
ENDBRANCH   6  18
BRANCH   5  28
HETATM   28  O1  UNL     1      23.627  -0.600  54.313  1.00  0.00    -0.355 OA
HETATM   29  C5  UNL     1      22.587  -1.309  54.954  1.00  0.00     0.210 C 
ENDBRANCH   5  28
TORSDOF 5
ENDMDL
MODEL 3
REMARK VINA RESULT:      -7.4      3.043      6.159
REMARK  5 active torsions:
REMARK  status: ('A' for Active; 'I' for Inactive)
REMARK    1  A    between atoms: C4_5  and  O1_6 
REMARK    2  A    between atoms: C6_8  and  C7_9 
REMARK    3  A    between atoms: C7_9  and  N2_10 
REMARK    4  A    between atoms: N2_10  and  C9_12 
REMARK    5  A    between atoms: C9_12  and  C11_14 
REMARK       I    between atoms: C11_14  and  N3_15 
ROOT
HETATM    1  C1  UNL     1      24.890  -1.222  55.327  1.00  0.00     0.178 C 
HETATM    2  N1  UNL     1      23.797  -0.852  54.566  1.00  0.00    -0.293 NA
HETATM    3  C2  UNL     1      23.428  -0.216  53.624  1.00  0.00     0.066 A 
HETATM    4  C3  UNL     1      21.986  -0.285  53.369  1.00  0.00     0.069 A 
HETATM    5  C4  UNL     1      21.335   0.328  52.388  1.00  0.00     0.078 A 
HETATM    6  C6  UNL     1      22.049   1.165  51.438  1.00  0.00    -0.006 A 
HETATM    7  C12 UNL     1      23.352   1.253  51.637  1.00  0.00     0.028 A 
HETATM    8  C13 UNL     1      24.144   0.617  52.681  1.00  0.00     0.032 A 
HETATM    9  C14 UNL     1      25.473   0.782  52.747  1.00  0.00     0.103 C 
HETATM   10  N4  UNL     1      26.495   1.537  51.973  1.00  0.00    -0.326 N 
HETATM   11  C15 UNL     1      26.945   1.785  53.273  1.00  0.00     0.286 A 
HETATM   12  F1  UNL     1      26.054   2.590  54.030  1.00  0.00    -0.193 F 
HETATM   13  C16 UNL     1      28.106   1.382  53.970  1.00  0.00     0.099 A 
HETATM   14 CL1  UNL     1      29.577   2.151  54.507  1.00  0.00    -0.081 Cl
HETATM   15  C17 UNL     1      27.831   0.115  54.178  1.00  0.00     0.098 A 
HETATM   16  N5  UNL     1      26.628   0.340  53.485  1.00  0.00    -0.183 NA
HETATM   17  H20 UNL     1      26.488   1.588  50.915  1.00  0.00     0.165 HD
ENDROOT
BRANCH   6  18
HETATM   18  C7  UNL     1      21.548   1.961  50.291  1.00  0.00     0.159 C 
BRANCH  18  19
HETATM   19  N2  UNL     1      21.994   3.267  50.141  1.00  0.00    -0.401 N 
HETATM   20  C8  UNL     1      22.787   3.664  49.054  1.00  0.00     0.144 C 
BRANCH  19  21
HETATM   21  C9  UNL     1      21.290   4.338  50.739  1.00  0.00     0.167 C 
HETATM   22  C10 UNL     1      19.994   3.951  51.413  1.00  0.00     0.042 C 
BRANCH  21  23
HETATM   23  C11 UNL     1      22.125   5.152  51.669  1.00  0.00     0.237 C 
HETATM   24  N3  UNL     1      21.951   6.575  51.585  1.00  0.00    -0.368 N 
HETATM   25  H17 UNL     1      21.881   7.137  50.687  1.00  0.00     0.159 HD
HETATM   26  H18 UNL     1      21.861   7.313  52.335  1.00  0.00     0.159 HD
HETATM   27  O2  UNL     1      22.956   4.719  52.511  1.00  0.00    -0.271 OA
ENDBRANCH  21  23
ENDBRANCH  19  21
ENDBRANCH  18  19
ENDBRANCH   6  18
BRANCH   5  28
HETATM   28  O1  UNL     1      19.967   0.218  52.209  1.00  0.00    -0.355 OA
HETATM   29  C5  UNL     1      19.219  -0.484  53.180  1.00  0.00     0.210 C 
ENDBRANCH   5  28
TORSDOF 5
ENDMDL
MODEL 4
REMARK VINA RESULT:      -7.4      3.212      6.265
REMARK  5 active torsions:
REMARK  status: ('A' for Active; 'I' for Inactive)
REMARK    1  A    between atoms: C4_5  and  O1_6 
REMARK    2  A    between atoms: C6_8  and  C7_9 
REMARK    3  A    between atoms: C7_9  and  N2_10 
REMARK    4  A    between atoms: N2_10  and  C9_12 
REMARK    5  A    between atoms: C9_12  and  C11_14 
REMARK       I    between atoms: C11_14  and  N3_15 
ROOT
HETATM    1  C1  UNL     1      23.629  -0.887  53.448  1.00  0.00     0.178 C 
HETATM    2  N1  UNL     1      22.890   0.241  53.146  1.00  0.00    -0.293 NA
HETATM    3  C2  UNL     1      22.934   1.357  52.718  1.00  0.00     0.066 A 
HETATM    4  C3  UNL     1      21.640   2.045  52.676  1.00  0.00     0.069 A 
HETATM    5  C4  UNL     1      21.426   3.282  52.245  1.00  0.00     0.078 A 
HETATM    6  C6  UNL     1      22.528   4.094  51.753  1.00  0.00    -0.006 A 
HETATM    7  C12 UNL     1      23.711   3.507  51.776  1.00  0.00     0.028 A 
HETATM    8  C13 UNL     1      24.035   2.161  52.229  1.00  0.00     0.032 A 
HETATM    9  C14 UNL     1      25.288   1.689  52.174  1.00  0.00     0.103 C 
HETATM   10  N4  UNL     1      26.611   2.218  51.745  1.00  0.00    -0.326 N 
HETATM   11  C15 UNL     1      26.986   1.545  52.912  1.00  0.00     0.286 A 
HETATM   12  F1  UNL     1      26.462   2.133  54.092  1.00  0.00    -0.193 F 
HETATM   13  C16 UNL     1      27.778   0.395  53.133  1.00  0.00     0.099 A 
HETATM   14 CL1  UNL     1      29.373   0.072  53.761  1.00  0.00    -0.081 Cl
HETATM   15  C17 UNL     1      26.959  -0.541  52.712  1.00  0.00     0.098 A 
HETATM   16  N5  UNL     1      26.053   0.491  52.411  1.00  0.00    -0.183 NA
HETATM   17  H20 UNL     1      26.736   2.803  50.872  1.00  0.00     0.165 HD
ENDROOT
BRANCH   6  18
HETATM   18  C7  UNL     1      22.544   5.489  51.250  1.00  0.00     0.159 C 
BRANCH  18  19
HETATM   19  N2  UNL     1      23.010   5.728  49.965  1.00  0.00    -0.401 N 
HETATM   20  C8  UNL     1      22.284   5.345  48.826  1.00  0.00     0.144 C 
BRANCH  19  21
HETATM   21  C9  UNL     1      23.926   6.776  49.717  1.00  0.00     0.167 C 
HETATM   22  C10 UNL     1      23.551   8.108  50.326  1.00  0.00     0.042 C 
BRANCH  21  23
HETATM   23  C11 UNL     1      25.334   6.431  50.073  1.00  0.00     0.237 C 
HETATM   24  N3  UNL     1      26.061   7.436  50.797  1.00  0.00    -0.368 N 
HETATM   25  H17 UNL     1      26.060   8.476  50.581  1.00  0.00     0.159 HD
HETATM   26  H18 UNL     1      26.702   7.368  51.633  1.00  0.00     0.159 HD
HETATM   27  O2  UNL     1      25.938   5.359  49.805  1.00  0.00    -0.271 OA
ENDBRANCH  21  23
ENDBRANCH  19  21
ENDBRANCH  18  19
ENDBRANCH   6  18
BRANCH   5  28
HETATM   28  O1  UNL     1      20.173   3.870  52.237  1.00  0.00    -0.355 OA
HETATM   29  C5  UNL     1      19.117   3.185  51.597  1.00  0.00     0.210 C 
ENDBRANCH   5  28
TORSDOF 5
ENDMDL
MODEL 5
REMARK VINA RESULT:      -7.3      3.754      7.551
REMARK  5 active torsions:
REMARK  status: ('A' for Active; 'I' for Inactive)
REMARK    1  A    between atoms: C4_5  and  O1_6 
REMARK    2  A    between atoms: C6_8  and  C7_9 
REMARK    3  A    between atoms: C7_9  and  N2_10 
REMARK    4  A    between atoms: N2_10  and  C9_12 
REMARK    5  A    between atoms: C9_12  and  C11_14 
REMARK       I    between atoms: C11_14  and  N3_15 
ROOT
HETATM    1  C1  UNL     1      26.736   1.137  52.049  1.00  0.00     0.178 C 
HETATM    2  N1  UNL     1      26.789   2.201  51.169  1.00  0.00    -0.293 NA
HETATM    3  C2  UNL     1      26.159   3.068  50.639  1.00  0.00     0.066 A 
HETATM    4  C3  UNL     1      26.936   3.918  49.730  1.00  0.00     0.069 A 
HETATM    5  C4  UNL     1      26.469   4.942  49.027  1.00  0.00     0.078 A 
HETATM    6  C6  UNL     1      25.067   5.318  49.112  1.00  0.00    -0.006 A 
HETATM    7  C12 UNL     1      24.334   4.573  49.921  1.00  0.00     0.028 A 
HETATM    8  C13 UNL     1      24.762   3.438  50.726  1.00  0.00     0.032 A 
HETATM    9  C14 UNL     1      23.905   2.785  51.524  1.00  0.00     0.103 C 
HETATM   10  N4  UNL     1      22.456   2.891  51.848  1.00  0.00    -0.326 N 
HETATM   11  C15 UNL     1      22.582   1.502  51.754  1.00  0.00     0.286 A 
HETATM   12  F1  UNL     1      22.868   1.052  50.439  1.00  0.00    -0.193 F 
HETATM   13  C16 UNL     1      22.485   0.472  52.717  1.00  0.00     0.099 A 
HETATM   14 CL1  UNL     1      21.329  -0.775  53.108  1.00  0.00    -0.081 Cl
HETATM   15  C17 UNL     1      23.610   0.651  53.370  1.00  0.00     0.098 A 
HETATM   16  N5  UNL     1      23.855   1.729  52.502  1.00  0.00    -0.183 NA
HETATM   17  H20 UNL     1      21.970   3.820  51.997  1.00  0.00     0.165 HD
ENDROOT
BRANCH   6  18
HETATM   18  C7  UNL     1      24.315   6.391  48.416  1.00  0.00     0.159 C 
BRANCH  18  19
HETATM   19  N2  UNL     1      24.910   7.638  48.278  1.00  0.00    -0.401 N 
HETATM   20  C8  UNL     1      25.220   8.181  47.021  1.00  0.00     0.144 C 
BRANCH  19  21
HETATM   21  C9  UNL     1      24.768   8.616  49.289  1.00  0.00     0.167 C 
HETATM   22  C10 UNL     1      23.897   8.206  50.454  1.00  0.00     0.042 C 
BRANCH  21  23
HETATM   23  C11 UNL     1      26.070   9.147  49.789  1.00  0.00     0.237 C 
HETATM   24  N3  UNL     1      26.913   8.202  50.468  1.00  0.00    -0.368 N 
HETATM   25  H17 UNL     1      26.590   7.492  51.188  1.00  0.00     0.159 HD
HETATM   26  H18 UNL     1      27.951   8.021  50.404  1.00  0.00     0.159 HD
HETATM   27  O2  UNL     1      26.497  10.326  49.675  1.00  0.00    -0.271 OA
ENDBRANCH  21  23
ENDBRANCH  19  21
ENDBRANCH  18  19
ENDBRANCH   6  18
BRANCH   5  28
HETATM   28  O1  UNL     1      27.263   5.701  48.185  1.00  0.00    -0.355 OA
HETATM   29  C5  UNL     1      28.665   5.570  48.291  1.00  0.00     0.210 C 
ENDBRANCH   5  28
TORSDOF 5
ENDMDL
MODEL 6
REMARK VINA RESULT:      -7.3      3.428      6.350
REMARK  5 active torsions:
REMARK  status: ('A' for Active; 'I' for Inactive)
REMARK    1  A    between atoms: C4_5  and  O1_6 
REMARK    2  A    between atoms: C6_8  and  C7_9 
REMARK    3  A    between atoms: C7_9  and  N2_10 
REMARK    4  A    between atoms: N2_10  and  C9_12 
REMARK    5  A    between atoms: C9_12  and  C11_14 
REMARK       I    between atoms: C11_14  and  N3_15 
ROOT
HETATM    1  C1  UNL     1      26.533   3.634  50.284  1.00  0.00     0.178 C 
HETATM    2  N1  UNL     1      25.232   3.251  50.020  1.00  0.00    -0.293 NA
HETATM    3  C2  UNL     1      24.321   2.562  50.374  1.00  0.00     0.066 A 
HETATM    4  C3  UNL     1      23.118   2.666  49.541  1.00  0.00     0.069 A 
HETATM    5  C4  UNL     1      21.980   2.008  49.725  1.00  0.00     0.078 A 
HETATM    6  C6  UNL     1      21.836   1.078  50.834  1.00  0.00    -0.006 A 
HETATM    7  C12 UNL     1      22.900   0.957  51.606  1.00  0.00     0.028 A 
HETATM    8  C13 UNL     1      24.182   1.638  51.479  1.00  0.00     0.032 A 
HETATM    9  C14 UNL     1      25.173   1.430  52.358  1.00  0.00     0.103 C 
HETATM   10  N4  UNL     1      25.368   0.584  53.566  1.00  0.00    -0.326 N 
HETATM   11  C15 UNL     1      26.611   0.414  52.949  1.00  0.00     0.286 A 
HETATM   12  F1  UNL     1      26.536  -0.301  51.725  1.00  0.00    -0.193 F 
HETATM   13  C16 UNL     1      27.915   0.823  53.309  1.00  0.00     0.099 A 
HETATM   14 CL1  UNL     1      29.354   0.042  53.910  1.00  0.00    -0.081 Cl
HETATM   15  C17 UNL     1      27.835   2.111  53.066  1.00  0.00     0.098 A 
HETATM   16  N5  UNL     1      26.500   1.881  52.688  1.00  0.00    -0.183 NA
HETATM   17  H20 UNL     1      24.618   0.456  54.302  1.00  0.00     0.165 HD
ENDROOT
BRANCH   6  18
HETATM   18  C7  UNL     1      20.691   0.221  51.227  1.00  0.00     0.159 C 
BRANCH  18  19
HETATM   19  N2  UNL     1      19.743   0.736  52.101  1.00  0.00    -0.401 N 
HETATM   20  C8  UNL     1      18.865   1.764  51.726  1.00  0.00     0.144 C 
BRANCH  19  21
HETATM   21  C9  UNL     1      19.263  -0.044  53.178  1.00  0.00     0.167 C 
HETATM   22  C10 UNL     1      18.274  -1.121  52.794  1.00  0.00     0.042 C 
BRANCH  21  23
HETATM   23  C11 UNL     1      20.349  -0.627  54.020  1.00  0.00     0.237 C 
HETATM   24  N3  UNL     1      20.899   0.242  55.022  1.00  0.00    -0.368 N 
HETATM   25  H17 UNL     1      21.154   1.263  54.882  1.00  0.00     0.159 HD
HETATM   26  H18 UNL     1      21.150   0.070  56.033  1.00  0.00     0.159 HD
HETATM   27  O2  UNL     1      20.823  -1.791  53.939  1.00  0.00    -0.271 OA
ENDBRANCH  21  23
ENDBRANCH  19  21
ENDBRANCH  18  19
ENDBRANCH   6  18
BRANCH   5  28
HETATM   28  O1  UNL     1      20.883   2.155  48.894  1.00  0.00    -0.355 OA
HETATM   29  C5  UNL     1      20.964   3.091  47.839  1.00  0.00     0.210 C 
ENDBRANCH   5  28
TORSDOF 5
ENDMDL
MODEL 7
REMARK VINA RESULT:      -7.1      3.566      7.027
REMARK  5 active torsions:
REMARK  status: ('A' for Active; 'I' for Inactive)
REMARK    1  A    between atoms: C4_5  and  O1_6 
REMARK    2  A    between atoms: C6_8  and  C7_9 
REMARK    3  A    between atoms: C7_9  and  N2_10 
REMARK    4  A    between atoms: N2_10  and  C9_12 
REMARK    5  A    between atoms: C9_12  and  C11_14 
REMARK       I    between atoms: C11_14  and  N3_15 
ROOT
HETATM    1  C1  UNL     1      24.426  -1.264  55.356  1.00  0.00     0.178 C 
HETATM    2  N1  UNL     1      23.357  -0.796  54.616  1.00  0.00    -0.293 NA
HETATM    3  C2  UNL     1      23.029  -0.126  53.682  1.00  0.00     0.066 A 
HETATM    4  C3  UNL     1      21.581  -0.064  53.454  1.00  0.00     0.069 A 
HETATM    5  C4  UNL     1      20.970   0.608  52.487  1.00  0.00     0.078 A 
HETATM    6  C6  UNL     1      21.739   1.381  51.525  1.00  0.00    -0.006 A 
HETATM    7  C12 UNL     1      23.048   1.350  51.699  1.00  0.00     0.028 A 
HETATM    8  C13 UNL     1      23.799   0.642  52.726  1.00  0.00     0.032 A 
HETATM    9  C14 UNL     1      25.138   0.686  52.767  1.00  0.00     0.103 C 
HETATM   10  N4  UNL     1      26.209   1.348  51.974  1.00  0.00    -0.326 N 
HETATM   11  C15 UNL     1      26.704   1.551  53.266  1.00  0.00     0.286 A 
HETATM   12  F1  UNL     1      25.904   2.431  54.042  1.00  0.00    -0.193 F 
HETATM   13  C16 UNL     1      27.838   1.043  53.940  1.00  0.00     0.099 A 
HETATM   14 CL1  UNL     1      29.382   1.674  54.450  1.00  0.00    -0.081 Cl
HETATM   15  C17 UNL     1      27.453  -0.195  54.151  1.00  0.00     0.098 A 
HETATM   16  N5  UNL     1      26.262   0.140  53.482  1.00  0.00    -0.183 NA
HETATM   17  H20 UNL     1      26.187   1.403  50.917  1.00  0.00     0.165 HD
ENDROOT
BRANCH   6  18
HETATM   18  C7  UNL     1      21.289   2.222  50.388  1.00  0.00     0.159 C 
BRANCH  18  19
HETATM   19  N2  UNL     1      20.461   3.305  50.649  1.00  0.00    -0.401 N 
HETATM   20  C8  UNL     1      20.962   4.533  51.106  1.00  0.00     0.144 C 
BRANCH  19  21
HETATM   21  C9  UNL     1      19.206   3.418  50.007  1.00  0.00     0.167 C 
HETATM   22  C10 UNL     1      18.729   2.163  49.312  1.00  0.00     0.042 C 
BRANCH  21  23
HETATM   23  C11 UNL     1      18.130   3.947  50.896  1.00  0.00     0.237 C 
HETATM   24  N3  UNL     1      17.345   5.022  50.358  1.00  0.00    -0.368 N 
HETATM   25  H17 UNL     1      17.725   5.860  49.828  1.00  0.00     0.159 HD
HETATM   26  H18 UNL     1      16.304   5.200  50.369  1.00  0.00     0.159 HD
HETATM   27  O2  UNL     1      17.846   3.547  52.057  1.00  0.00    -0.271 OA
ENDBRANCH  21  23
ENDBRANCH  19  21
ENDBRANCH  18  19
ENDBRANCH   6  18
BRANCH   5  28
HETATM   28  O1  UNL     1      19.594   0.622  52.334  1.00  0.00    -0.355 OA
HETATM   29  C5  UNL     1      18.876  -0.556  52.635  1.00  0.00     0.210 C 
ENDBRANCH   5  28
TORSDOF 5
ENDMDL
MODEL 8
REMARK VINA RESULT:      -7.0      2.752      5.785
REMARK  5 active torsions:
REMARK  status: ('A' for Active; 'I' for Inactive)
REMARK    1  A    between atoms: C4_5  and  O1_6 
REMARK    2  A    between atoms: C6_8  and  C7_9 
REMARK    3  A    between atoms: C7_9  and  N2_10 
REMARK    4  A    between atoms: N2_10  and  C9_12 
REMARK    5  A    between atoms: C9_12  and  C11_14 
REMARK       I    between atoms: C11_14  and  N3_15 
ROOT
HETATM    1  C1  UNL     1      26.949   2.180  52.326  1.00  0.00     0.178 C 
HETATM    2  N1  UNL     1      25.768   1.505  52.568  1.00  0.00    -0.293 NA
HETATM    3  C2  UNL     1      24.652   1.312  52.186  1.00  0.00     0.066 A 
HETATM    4  C3  UNL     1      23.875   0.384  53.013  1.00  0.00     0.069 A 
HETATM    5  C4  UNL     1      22.620   0.009  52.800  1.00  0.00     0.078 A 
HETATM    6  C6  UNL     1      21.879   0.524  51.660  1.00  0.00    -0.006 A 
HETATM    7  C12 UNL     1      22.547   1.365  50.890  1.00  0.00     0.028 A 
HETATM    8  C13 UNL     1      23.918   1.828  51.048  1.00  0.00     0.032 A 
HETATM    9  C14 UNL     1      24.475   2.673  50.170  1.00  0.00     0.103 C 
HETATM   10  N4  UNL     1      24.032   3.375  48.935  1.00  0.00    -0.326 N 
HETATM   11  C15 UNL     1      24.747   4.404  49.555  1.00  0.00     0.286 A 
HETATM   12  F1  UNL     1      24.142   4.865  50.753  1.00  0.00    -0.193 F 
HETATM   13  C16 UNL     1      25.952   5.062  49.217  1.00  0.00     0.099 A 
HETATM   14 CL1  UNL     1      26.394   6.632  48.600  1.00  0.00    -0.081 Cl
HETATM   15  C17 UNL     1      26.823   4.122  49.503  1.00  0.00     0.098 A 
HETATM   16  N5  UNL     1      25.726   3.319  49.864  1.00  0.00    -0.183 NA
HETATM   17  H20 UNL     1      23.444   2.905  48.191  1.00  0.00     0.165 HD
ENDROOT
BRANCH   6  18
HETATM   18  C7  UNL     1      20.480   0.277  51.231  1.00  0.00     0.159 C 
BRANCH  18  19
HETATM   19  N2  UNL     1      19.450   0.878  51.941  1.00  0.00    -0.401 N 
HETATM   20  C8  UNL     1      19.476   2.238  52.283  1.00  0.00     0.144 C 
BRANCH  19  21
HETATM   21  C9  UNL     1      18.145   0.334  51.908  1.00  0.00     0.167 C 
HETATM   22  C10 UNL     1      17.607   0.050  50.525  1.00  0.00     0.042 C 
BRANCH  21  23
HETATM   23  C11 UNL     1      17.981  -0.869  52.776  1.00  0.00     0.237 C 
HETATM   24  N3  UNL     1      18.952  -1.024  53.822  1.00  0.00    -0.368 N 
HETATM   25  H17 UNL     1      19.999  -0.877  53.721  1.00  0.00     0.159 HD
HETATM   26  H18 UNL     1      18.848  -1.295  54.838  1.00  0.00     0.159 HD
HETATM   27  O2  UNL     1      17.085  -1.749  52.683  1.00  0.00    -0.271 OA
ENDBRANCH  21  23
ENDBRANCH  19  21
ENDBRANCH  18  19
ENDBRANCH   6  18
BRANCH   5  28
HETATM   28  O1  UNL     1      21.947  -0.873  53.628  1.00  0.00    -0.355 OA
HETATM   29  C5  UNL     1      22.530  -1.200  54.872  1.00  0.00     0.210 C 
ENDBRANCH   5  28
TORSDOF 5
ENDMDL
MODEL 9
REMARK VINA RESULT:      -7.0      2.155      2.759
REMARK  5 active torsions:
REMARK  status: ('A' for Active; 'I' for Inactive)
REMARK    1  A    between atoms: C4_5  and  O1_6 
REMARK    2  A    between atoms: C6_8  and  C7_9 
REMARK    3  A    between atoms: C7_9  and  N2_10 
REMARK    4  A    between atoms: N2_10  and  C9_12 
REMARK    5  A    between atoms: C9_12  and  C11_14 
REMARK       I    between atoms: C11_14  and  N3_15 
ROOT
HETATM    1  C1  UNL     1      22.671   5.115  47.424  1.00  0.00     0.178 C 
HETATM    2  N1  UNL     1      22.724   4.150  48.412  1.00  0.00    -0.293 NA
HETATM    3  C2  UNL     1      23.299   3.780  49.392  1.00  0.00     0.066 A 
HETATM    4  C3  UNL     1      22.762   2.553  49.988  1.00  0.00     0.069 A 
HETATM    5  C4  UNL     1      23.223   1.944  51.074  1.00  0.00     0.078 A 
HETATM    6  C6  UNL     1      24.364   2.485  51.796  1.00  0.00    -0.006 A 
HETATM    7  C12 UNL     1      24.876   3.591  51.287  1.00  0.00     0.028 A 
HETATM    8  C13 UNL     1      24.436   4.322  50.106  1.00  0.00     0.032 A 
HETATM    9  C14 UNL     1      25.045   5.451  49.718  1.00  0.00     0.103 C 
HETATM   10  N4  UNL     1      26.195   6.264  50.198  1.00  0.00    -0.326 N 
HETATM   11  C15 UNL     1      26.427   6.306  48.820  1.00  0.00     0.286 A 
HETATM   12  F1  UNL     1      26.775   5.044  48.270  1.00  0.00    -0.193 F 
HETATM   13  C16 UNL     1      26.375   7.359  47.879  1.00  0.00     0.099 A 
HETATM   14 CL1  UNL     1      27.538   8.297  46.978  1.00  0.00    -0.081 Cl
HETATM   15  C17 UNL     1      25.076   7.531  47.788  1.00  0.00     0.098 A 
HETATM   16  N5  UNL     1      24.949   6.505  48.741  1.00  0.00    -0.183 NA
HETATM   17  H20 UNL     1      26.367   6.461  51.223  1.00  0.00     0.165 HD
ENDROOT
BRANCH   6  18
HETATM   18  C7  UNL     1      25.066   1.980  53.001  1.00  0.00     0.159 C 
BRANCH  18  19
HETATM   19  N2  UNL     1      26.211   1.215  52.833  1.00  0.00    -0.401 N 
HETATM   20  C8  UNL     1      27.484   1.794  52.715  1.00  0.00     0.144 C 
BRANCH  19  21
HETATM   21  C9  UNL     1      26.247  -0.128  53.274  1.00  0.00     0.167 C 
HETATM   22  C10 UNL     1      27.049  -1.065  52.401  1.00  0.00     0.042 C 
BRANCH  21  23
HETATM   23  C11 UNL     1      26.669  -0.274  54.699  1.00  0.00     0.237 C 
HETATM   24  N3  UNL     1      28.084  -0.331  54.931  1.00  0.00    -0.368 N 
HETATM   25  H17 UNL     1      28.783  -0.892  54.360  1.00  0.00     0.159 HD
HETATM   26  H18 UNL     1      28.692   0.135  55.658  1.00  0.00     0.159 HD
HETATM   27  O2  UNL     1      25.914  -0.351  55.704  1.00  0.00    -0.271 OA
ENDBRANCH  21  23
ENDBRANCH  19  21
ENDBRANCH  18  19
ENDBRANCH   6  18
BRANCH   5  28
HETATM   28  O1  UNL     1      22.665   0.783  51.580  1.00  0.00    -0.355 OA
HETATM   29  C5  UNL     1      21.374   0.415  51.141  1.00  0.00     0.210 C 
ENDBRANCH   5  28
TORSDOF 5
ENDMDL
