MODEL 1
REMARK VINA RESULT:      -8.4      0.000      0.000
REMARK  8 active torsions:
REMARK  status: ('A' for Active; 'I' for Inactive)
REMARK    1  A    between atoms: N2_5  and  C4_6 
REMARK    2  A    between atoms: C4_6  and  C5_7 
REMARK    3  A    between atoms: C5_7  and  C6_8 
REMARK    4  A    between atoms: C6_8  and  C7_9 
REMARK    5  A    between atoms: C7_9  and  N3_10 
REMARK    6  A    between atoms: N3_10  and  C8_11 
REMARK    7  A    between atoms: C11_14  and  N4_15 
REMARK    8  A    between atoms: N4_15  and  C12_16 
ROOT
HETATM    1  C8  UNL     1      24.478  -0.275  53.538  1.00  0.00     0.124 A 
HETATM    2  C9  UNL     1      25.200   0.597  52.776  1.00  0.00     0.067 A 
HETATM    3  C10 UNL     1      26.444   1.120  53.105  1.00  0.00     0.044 A 
HETATM    4  C11 UNL     1      27.083   1.993  52.253  1.00  0.00     0.142 A 
HETATM    5  N5  UNL     1      28.301   2.479  52.614  1.00  0.00    -0.224 NA
HETATM    6  C18 UNL     1      28.816   2.071  53.797  1.00  0.00     0.236 A 
HETATM    7  N6  UNL     1      28.179   1.219  54.613  1.00  0.00    -0.240 NA
HETATM    8  C19 UNL     1      26.973   0.699  54.324  1.00  0.00     0.089 A 
HETATM    9  C20 UNL     1      26.237  -0.179  55.084  1.00  0.00     0.151 A 
HETATM   10  N7  UNL     1      25.048  -0.638  54.700  1.00  0.00    -0.241 NA
ENDROOT
BRANCH   1  11
HETATM   11  N3  UNL     1      23.213  -0.752  53.111  1.00  0.00    -0.375 N 
HETATM   12  H16 UNL     1      23.033  -0.864  52.094  1.00  0.00     0.161 HD
BRANCH  11  13
HETATM   13  C7  UNL     1      22.162  -1.091  54.013  1.00  0.00     0.121 C 
BRANCH  13  14
HETATM   14  C6  UNL     1      21.250   0.088  54.272  1.00  0.00     0.021 C 
BRANCH  14  15
HETATM   15  C5  UNL     1      20.306   0.156  53.087  1.00  0.00     0.021 C 
BRANCH  15  16
HETATM   16  C4  UNL     1      20.078   1.620  52.754  1.00  0.00     0.126 C 
BRANCH  16  17
HETATM   17  N2  UNL     1      20.764   1.919  51.487  1.00  0.00    -0.349 N 
HETATM   18  C3  UNL     1      20.994   0.818  50.545  1.00  0.00     0.156 C 
HETATM   19  C2  UNL     1      20.574   1.388  49.190  1.00  0.00     0.292 C 
HETATM   20  N1  UNL     1      21.270   2.590  48.863  1.00  0.00     0.094 N 
HETATM   21  C1  UNL     1      22.671   2.379  48.647  1.00  0.00     0.310 C 
HETATM   22  C22 UNL     1      21.082   3.689  49.754  1.00  0.00     0.374 C 
HETATM   23  C21 UNL     1      21.193   3.236  51.178  1.00  0.00     0.248 C 
HETATM   24  O1  UNL     1      21.639   3.926  52.146  1.00  0.00    -0.271 OA
ENDBRANCH  16  17
ENDBRANCH  15  16
ENDBRANCH  14  15
ENDBRANCH  13  14
ENDBRANCH  11  13
ENDBRANCH   1  11
BRANCH   4  25
HETATM   25  N4  UNL     1      26.514   2.402  51.018  1.00  0.00    -0.340 N 
HETATM   26  H18 UNL     1      26.366   1.444  50.612  1.00  0.00     0.167 HD
BRANCH  25  27
HETATM   27  C12 UNL     1      26.170   3.609  50.346  1.00  0.00     0.035 A 
HETATM   28  C13 UNL     1      26.981   4.017  49.326  1.00  0.00     0.032 A 
HETATM   29  C14 UNL     1      26.592   5.191  48.725  1.00  0.00     0.046 A 
HETATM   30  C15 UNL     1      25.487   5.932  49.082  1.00  0.00     0.138 A 
HETATM   31  F1  UNL     1      25.157   7.098  48.438  1.00  0.00    -0.204 F 
HETATM   32  C16 UNL     1      24.708   5.457  50.126  1.00  0.00     0.074 A 
HETATM   33 CL1  UNL     1      23.307   6.382  50.592  1.00  0.00    -0.081 Cl
HETATM   34  C17 UNL     1      25.043   4.270  50.785  1.00  0.00     0.056 A 
ENDBRANCH  25  27
ENDBRANCH   4  25
TORSDOF 8
ENDMDL
MODEL 2
REMARK VINA RESULT:      -8.3      4.553      8.535
REMARK  8 active torsions:
REMARK  status: ('A' for Active; 'I' for Inactive)
REMARK    1  A    between atoms: N2_5  and  C4_6 
REMARK    2  A    between atoms: C4_6  and  C5_7 
REMARK    3  A    between atoms: C5_7  and  C6_8 
REMARK    4  A    between atoms: C6_8  and  C7_9 
REMARK    5  A    between atoms: C7_9  and  N3_10 
REMARK    6  A    between atoms: N3_10  and  C8_11 
REMARK    7  A    between atoms: C11_14  and  N4_15 
REMARK    8  A    between atoms: N4_15  and  C12_16 
ROOT
HETATM    1  C8  UNL     1      25.005   3.577  50.556  1.00  0.00     0.124 A 
HETATM    2  C9  UNL     1      25.057   2.678  51.581  1.00  0.00     0.067 A 
HETATM    3  C10 UNL     1      24.087   1.728  51.874  1.00  0.00     0.044 A 
HETATM    4  C11 UNL     1      24.249   0.869  52.937  1.00  0.00     0.142 A 
HETATM    5  N5  UNL     1      23.275  -0.048  53.185  1.00  0.00    -0.224 NA
HETATM    6  C18 UNL     1      22.198  -0.061  52.366  1.00  0.00     0.236 A 
HETATM    7  N6  UNL     1      22.059   0.785  51.334  1.00  0.00    -0.240 NA
HETATM    8  C19 UNL     1      22.979   1.717  51.029  1.00  0.00     0.089 A 
HETATM    9  C20 UNL     1      22.937   2.627  49.999  1.00  0.00     0.151 A 
HETATM   10  N7  UNL     1      23.909   3.510  49.781  1.00  0.00    -0.241 NA
ENDROOT
BRANCH   1  11
HETATM   11  N3  UNL     1      26.052   4.509  50.341  1.00  0.00    -0.375 N 
HETATM   12  H16 UNL     1      26.550   4.907  51.161  1.00  0.00     0.161 HD
BRANCH  11  13
HETATM   13  C7  UNL     1      26.464   4.933  49.043  1.00  0.00     0.121 C 
BRANCH  13  14
HETATM   14  C6  UNL     1      26.523   6.443  48.945  1.00  0.00     0.021 C 
BRANCH  14  15
HETATM   15  C5  UNL     1      27.666   6.756  47.998  1.00  0.00     0.021 C 
BRANCH  15  16
HETATM   16  C4  UNL     1      28.775   5.752  48.256  1.00  0.00     0.126 C 
BRANCH  16  17
HETATM   17  N2  UNL     1      30.050   6.484  48.348  1.00  0.00    -0.349 N 
HETATM   18  C3  UNL     1      30.036   7.934  48.127  1.00  0.00     0.156 C 
HETATM   19  C2  UNL     1      30.886   8.497  49.266  1.00  0.00     0.292 C 
HETATM   20  N1  UNL     1      32.193   7.925  49.305  1.00  0.00     0.094 N 
HETATM   21  C1  UNL     1      32.990   8.282  48.169  1.00  0.00     0.310 C 
HETATM   22  C22 UNL     1      32.257   6.515  49.514  1.00  0.00     0.374 C 
HETATM   23  C21 UNL     1      31.263   5.809  48.644  1.00  0.00     0.248 C 
HETATM   24  O1  UNL     1      31.403   4.652  48.141  1.00  0.00    -0.271 OA
ENDBRANCH  16  17
ENDBRANCH  15  16
ENDBRANCH  14  15
ENDBRANCH  13  14
ENDBRANCH  11  13
ENDBRANCH   1  11
BRANCH   4  25
HETATM   25  N4  UNL     1      25.391   0.909  53.779  1.00  0.00    -0.340 N 
HETATM   26  H18 UNL     1      24.927   1.334  54.621  1.00  0.00     0.167 HD
BRANCH  25  27
HETATM   27  C12 UNL     1      26.771   0.559  53.727  1.00  0.00     0.035 A 
HETATM   28  C13 UNL     1      27.682   1.550  53.953  1.00  0.00     0.032 A 
HETATM   29  C14 UNL     1      28.994   1.143  53.884  1.00  0.00     0.046 A 
HETATM   30  C15 UNL     1      29.408  -0.143  53.614  1.00  0.00     0.138 A 
HETATM   31  F1  UNL     1      30.737  -0.480  53.559  1.00  0.00    -0.204 F 
HETATM   32  C16 UNL     1      28.427  -1.098  53.396  1.00  0.00     0.074 A 
HETATM   33 CL1  UNL     1      28.933  -2.730  53.052  1.00  0.00    -0.081 Cl
HETATM   34  C17 UNL     1      27.072  -0.757  53.450  1.00  0.00     0.056 A 
ENDBRANCH  25  27
ENDBRANCH   4  25
TORSDOF 8
ENDMDL
MODEL 3
REMARK VINA RESULT:      -8.3      3.185      5.798
REMARK  8 active torsions:
REMARK  status: ('A' for Active; 'I' for Inactive)
REMARK    1  A    between atoms: N2_5  and  C4_6 
REMARK    2  A    between atoms: C4_6  and  C5_7 
REMARK    3  A    between atoms: C5_7  and  C6_8 
REMARK    4  A    between atoms: C6_8  and  C7_9 
REMARK    5  A    between atoms: C7_9  and  N3_10 
REMARK    6  A    between atoms: N3_10  and  C8_11 
REMARK    7  A    between atoms: C11_14  and  N4_15 
REMARK    8  A    between atoms: N4_15  and  C12_16 
ROOT
HETATM    1  C8  UNL     1      20.841   0.596  51.452  1.00  0.00     0.124 A 
HETATM    2  C9  UNL     1      22.070   0.393  52.011  1.00  0.00     0.067 A 
HETATM    3  C10 UNL     1      22.314  -0.269  53.207  1.00  0.00     0.044 A 
HETATM    4  C11 UNL     1      23.600  -0.417  53.675  1.00  0.00     0.142 A 
HETATM    5  N5  UNL     1      23.794  -1.076  54.849  1.00  0.00    -0.224 NA
HETATM    6  C18 UNL     1      22.701  -1.550  55.492  1.00  0.00     0.236 A 
HETATM    7  N6  UNL     1      21.456  -1.396  55.021  1.00  0.00    -0.240 NA
HETATM    8  C19 UNL     1      21.188  -0.757  53.868  1.00  0.00     0.089 A 
HETATM    9  C20 UNL     1      19.955  -0.547  53.296  1.00  0.00     0.151 A 
HETATM   10  N7  UNL     1      19.801   0.099  52.142  1.00  0.00    -0.241 NA
ENDROOT
BRANCH   1  11
HETATM   11  N3  UNL     1      20.699   1.287  50.222  1.00  0.00    -0.375 N 
HETATM   12  H16 UNL     1      20.001   2.052  50.150  1.00  0.00     0.161 HD
BRANCH  11  13
HETATM   13  C7  UNL     1      21.473   0.983  49.063  1.00  0.00     0.121 C 
BRANCH  13  14
HETATM   14  C6  UNL     1      21.167   1.934  47.926  1.00  0.00     0.021 C 
BRANCH  14  15
HETATM   15  C5  UNL     1      22.492   2.563  47.538  1.00  0.00     0.021 C 
BRANCH  15  16
HETATM   16  C4  UNL     1      22.476   4.009  47.999  1.00  0.00     0.126 C 
BRANCH  16  17
HETATM   17  N2  UNL     1      22.860   4.047  49.419  1.00  0.00    -0.349 N 
HETATM   18  C3  UNL     1      24.167   3.499  49.800  1.00  0.00     0.156 C 
HETATM   19  C2  UNL     1      24.756   4.553  50.739  1.00  0.00     0.292 C 
HETATM   20  N1  UNL     1      23.900   4.840  51.844  1.00  0.00     0.094 N 
HETATM   21  C1  UNL     1      23.755   3.729  52.737  1.00  0.00     0.310 C 
HETATM   22  C22 UNL     1      22.615   5.370  51.522  1.00  0.00     0.374 C 
HETATM   23  C21 UNL     1      21.994   4.597  50.399  1.00  0.00     0.248 C 
HETATM   24  O1  UNL     1      20.752   4.387  50.238  1.00  0.00    -0.271 OA
ENDBRANCH  16  17
ENDBRANCH  15  16
ENDBRANCH  14  15
ENDBRANCH  13  14
ENDBRANCH  11  13
ENDBRANCH   1  11
BRANCH   4  25
HETATM   25  N4  UNL     1      24.725   0.094  52.976  1.00  0.00    -0.340 N 
HETATM   26  H18 UNL     1      24.212   0.450  52.131  1.00  0.00     0.167 HD
BRANCH  25  27
HETATM   27  C12 UNL     1      26.135   0.202  53.149  1.00  0.00     0.035 A 
HETATM   28  C13 UNL     1      26.648   1.445  53.385  1.00  0.00     0.032 A 
HETATM   29  C14 UNL     1      28.015   1.475  53.539  1.00  0.00     0.046 A 
HETATM   30  C15 UNL     1      28.842   0.375  53.470  1.00  0.00     0.138 A 
HETATM   31  F1  UNL     1      30.200   0.478  53.633  1.00  0.00    -0.204 F 
HETATM   32  C16 UNL     1      28.250  -0.855  53.229  1.00  0.00     0.074 A 
HETATM   33 CL1  UNL     1      29.281  -2.257  53.138  1.00  0.00    -0.081 Cl
HETATM   34  C17 UNL     1      26.866  -0.963  53.062  1.00  0.00     0.056 A 
ENDBRANCH  25  27
ENDBRANCH   4  25
TORSDOF 8
ENDMDL
MODEL 4
REMARK VINA RESULT:      -8.2      4.994      9.011
REMARK  8 active torsions:
REMARK  status: ('A' for Active; 'I' for Inactive)
REMARK    1  A    between atoms: N2_5  and  C4_6 
REMARK    2  A    between atoms: C4_6  and  C5_7 
REMARK    3  A    between atoms: C5_7  and  C6_8 
REMARK    4  A    between atoms: C6_8  and  C7_9 
REMARK    5  A    between atoms: C7_9  and  N3_10 
REMARK    6  A    between atoms: N3_10  and  C8_11 
REMARK    7  A    between atoms: C11_14  and  N4_15 
REMARK    8  A    between atoms: N4_15  and  C12_16 
ROOT
HETATM    1  C8  UNL     1      25.098   3.822  50.129  1.00  0.00     0.124 A 
HETATM    2  C9  UNL     1      25.147   2.961  51.187  1.00  0.00     0.067 A 
HETATM    3  C10 UNL     1      24.174   2.025  51.513  1.00  0.00     0.044 A 
HETATM    4  C11 UNL     1      24.333   1.204  52.607  1.00  0.00     0.142 A 
HETATM    5  N5  UNL     1      23.356   0.300  52.888  1.00  0.00    -0.224 NA
HETATM    6  C18 UNL     1      22.280   0.260  52.069  1.00  0.00     0.236 A 
HETATM    7  N6  UNL     1      22.143   1.068  51.007  1.00  0.00    -0.240 NA
HETATM    8  C19 UNL     1      23.066   1.986  50.668  1.00  0.00     0.089 A 
HETATM    9  C20 UNL     1      23.027   2.858  49.606  1.00  0.00     0.151 A 
HETATM   10  N7  UNL     1      24.002   3.729  49.357  1.00  0.00    -0.241 NA
ENDROOT
BRANCH   1  11
HETATM   11  N3  UNL     1      26.147   4.743  49.881  1.00  0.00    -0.375 N 
HETATM   12  H16 UNL     1      26.153   5.650  50.385  1.00  0.00     0.161 HD
BRANCH  11  13
HETATM   13  C7  UNL     1      27.210   4.485  48.965  1.00  0.00     0.121 C 
BRANCH  13  14
HETATM   14  C6  UNL     1      27.769   5.768  48.388  1.00  0.00     0.021 C 
BRANCH  14  15
HETATM   15  C5  UNL     1      29.250   5.519  48.174  1.00  0.00     0.021 C 
BRANCH  15  16
HETATM   16  C4  UNL     1      29.980   6.832  48.392  1.00  0.00     0.126 C 
BRANCH  16  17
HETATM   17  N2  UNL     1      31.426   6.557  48.433  1.00  0.00    -0.349 N 
HETATM   18  C3  UNL     1      31.898   5.251  47.961  1.00  0.00     0.156 C 
HETATM   19  C2  UNL     1      33.093   5.583  47.067  1.00  0.00     0.292 C 
HETATM   20  N1  UNL     1      34.086   6.351  47.746  1.00  0.00     0.094 N 
HETATM   21  C1  UNL     1      34.728   5.622  48.800  1.00  0.00     0.310 C 
HETATM   22  C22 UNL     1      33.672   7.629  48.228  1.00  0.00     0.374 C 
HETATM   23  C21 UNL     1      32.344   7.527  48.914  1.00  0.00     0.248 C 
HETATM   24  O1  UNL     1      31.956   8.233  49.896  1.00  0.00    -0.271 OA
ENDBRANCH  16  17
ENDBRANCH  15  16
ENDBRANCH  14  15
ENDBRANCH  13  14
ENDBRANCH  11  13
ENDBRANCH   1  11
BRANCH   4  25
HETATM   25  N4  UNL     1      25.475   1.272  53.447  1.00  0.00    -0.340 N 
HETATM   26  H18 UNL     1      25.075   1.919  54.172  1.00  0.00     0.167 HD
BRANCH  25  27
HETATM   27  C12 UNL     1      26.797   0.745  53.500  1.00  0.00     0.035 A 
HETATM   28  C13 UNL     1      27.810   1.611  53.794  1.00  0.00     0.032 A 
HETATM   29  C14 UNL     1      29.060   1.035  53.824  1.00  0.00     0.046 A 
HETATM   30  C15 UNL     1      29.321  -0.296  53.585  1.00  0.00     0.138 A 
HETATM   31  F1  UNL     1      30.595  -0.804  53.631  1.00  0.00    -0.204 F 
HETATM   32  C16 UNL     1      28.243  -1.117  53.294  1.00  0.00     0.074 A 
HETATM   33 CL1  UNL     1      28.556  -2.804  52.989  1.00  0.00    -0.081 Cl
HETATM   34  C17 UNL     1      26.944  -0.602  53.246  1.00  0.00     0.056 A 
ENDBRANCH  25  27
ENDBRANCH   4  25
TORSDOF 8
ENDMDL
MODEL 5
REMARK VINA RESULT:      -8.1      4.233      7.908
REMARK  8 active torsions:
REMARK  status: ('A' for Active; 'I' for Inactive)
REMARK    1  A    between atoms: N2_5  and  C4_6 
REMARK    2  A    between atoms: C4_6  and  C5_7 
REMARK    3  A    between atoms: C5_7  and  C6_8 
REMARK    4  A    between atoms: C6_8  and  C7_9 
REMARK    5  A    between atoms: C7_9  and  N3_10 
REMARK    6  A    between atoms: N3_10  and  C8_11 
REMARK    7  A    between atoms: C11_14  and  N4_15 
REMARK    8  A    between atoms: N4_15  and  C12_16 
ROOT
HETATM    1  C8  UNL     1      23.805   3.141  49.745  1.00  0.00     0.124 A 
HETATM    2  C9  UNL     1      24.298   2.537  50.865  1.00  0.00     0.067 A 
HETATM    3  C10 UNL     1      23.657   1.546  51.599  1.00  0.00     0.044 A 
HETATM    4  C11 UNL     1      24.255   1.006  52.715  1.00  0.00     0.142 A 
HETATM    5  N5  UNL     1      23.593   0.036  53.401  1.00  0.00    -0.224 NA
HETATM    6  C18 UNL     1      22.377  -0.342  52.942  1.00  0.00     0.236 A 
HETATM    7  N6  UNL     1      21.812   0.196  51.851  1.00  0.00    -0.240 NA
HETATM    8  C19 UNL     1      22.406   1.159  51.123  1.00  0.00     0.089 A 
HETATM    9  C20 UNL     1      21.918   1.773  49.995  1.00  0.00     0.151 A 
HETATM   10  N7  UNL     1      22.594   2.718  49.344  1.00  0.00    -0.241 NA
ENDROOT
BRANCH   1  11
HETATM   11  N3  UNL     1      24.541   4.145  49.067  1.00  0.00    -0.375 N 
HETATM   12  H16 UNL     1      24.265   4.408  48.101  1.00  0.00     0.161 HD
BRANCH  11  13
HETATM   13  C7  UNL     1      25.654   4.822  49.647  1.00  0.00     0.121 C 
BRANCH  13  14
HETATM   14  C6  UNL     1      26.965   4.175  49.254  1.00  0.00     0.021 C 
BRANCH  14  15
HETATM   15  C5  UNL     1      27.732   5.225  48.474  1.00  0.00     0.021 C 
BRANCH  15  16
HETATM   16  C4  UNL     1      27.047   6.562  48.689  1.00  0.00     0.126 C 
BRANCH  16  17
HETATM   17  N2  UNL     1      28.084   7.598  48.828  1.00  0.00    -0.349 N 
HETATM   18  C3  UNL     1      29.433   7.300  48.334  1.00  0.00     0.156 C 
HETATM   19  C2  UNL     1      29.831   8.552  47.551  1.00  0.00     0.292 C 
HETATM   20  N1  UNL     1      29.747   9.738  48.339  1.00  0.00     0.094 N 
HETATM   21  C1  UNL     1      30.706   9.767  49.404  1.00  0.00     0.310 C 
HETATM   22  C22 UNL     1      28.454  10.067  48.847  1.00  0.00     0.374 C 
HETATM   23  C21 UNL     1      27.792   8.853  49.423  1.00  0.00     0.248 C 
HETATM   24  O1  UNL     1      26.985   8.840  50.404  1.00  0.00    -0.271 OA
ENDBRANCH  16  17
ENDBRANCH  15  16
ENDBRANCH  14  15
ENDBRANCH  13  14
ENDBRANCH  11  13
ENDBRANCH   1  11
BRANCH   4  25
HETATM   25  N4  UNL     1      25.531   1.427  53.171  1.00  0.00    -0.340 N 
HETATM   26  H18 UNL     1      25.267   2.410  53.433  1.00  0.00     0.167 HD
BRANCH  25  27
HETATM   27  C12 UNL     1      26.844   0.894  53.318  1.00  0.00     0.035 A 
HETATM   28  C13 UNL     1      27.840   1.758  53.674  1.00  0.00     0.032 A 
HETATM   29  C14 UNL     1      29.081   1.176  53.794  1.00  0.00     0.046 A 
HETATM   30  C15 UNL     1      29.351  -0.158  53.584  1.00  0.00     0.138 A 
HETATM   31  F1  UNL     1      30.616  -0.672  53.720  1.00  0.00    -0.204 F 
HETATM   32  C16 UNL     1      28.291  -0.976  53.226  1.00  0.00     0.074 A 
HETATM   33 CL1  UNL     1      28.615  -2.667  52.955  1.00  0.00    -0.081 Cl
HETATM   34  C17 UNL     1      27.001  -0.455  53.085  1.00  0.00     0.056 A 
ENDBRANCH  25  27
ENDBRANCH   4  25
TORSDOF 8
ENDMDL
MODEL 6
REMARK VINA RESULT:      -8.1      3.004      5.863
REMARK  8 active torsions:
REMARK  status: ('A' for Active; 'I' for Inactive)
REMARK    1  A    between atoms: N2_5  and  C4_6 
REMARK    2  A    between atoms: C4_6  and  C5_7 
REMARK    3  A    between atoms: C5_7  and  C6_8 
REMARK    4  A    between atoms: C6_8  and  C7_9 
REMARK    5  A    between atoms: C7_9  and  N3_10 
REMARK    6  A    between atoms: N3_10  and  C8_11 
REMARK    7  A    between atoms: C11_14  and  N4_15 
REMARK    8  A    between atoms: N4_15  and  C12_16 
ROOT
HETATM    1  C8  UNL     1      21.122   1.033  51.680  1.00  0.00     0.124 A 
HETATM    2  C9  UNL     1      22.325   0.713  52.240  1.00  0.00     0.067 A 
HETATM    3  C10 UNL     1      22.510  -0.097  53.352  1.00  0.00     0.044 A 
HETATM    4  C11 UNL     1      23.776  -0.353  53.829  1.00  0.00     0.142 A 
HETATM    5  N5  UNL     1      23.910  -1.156  54.919  1.00  0.00    -0.224 NA
HETATM    6  C18 UNL     1      22.783  -1.658  55.474  1.00  0.00     0.236 A 
HETATM    7  N6  UNL     1      21.558  -1.397  54.995  1.00  0.00    -0.240 NA
HETATM    8  C19 UNL     1      21.347  -0.613  53.922  1.00  0.00     0.089 A 
HETATM    9  C20 UNL     1      20.141  -0.285  53.351  1.00  0.00     0.151 A 
HETATM   10  N7  UNL     1      20.044   0.501  52.281  1.00  0.00    -0.241 NA
ENDROOT
BRANCH   1  11
HETATM   11  N3  UNL     1      21.041   1.872  50.540  1.00  0.00    -0.375 N 
HETATM   12  H16 UNL     1      21.701   1.719  49.753  1.00  0.00     0.161 HD
BRANCH  11  13
HETATM   13  C7  UNL     1      20.090   2.926  50.414  1.00  0.00     0.121 C 
BRANCH  13  14
HETATM   14  C6  UNL     1      20.153   3.875  51.592  1.00  0.00     0.021 C 
BRANCH  14  15
HETATM   15  C5  UNL     1      21.015   5.041  51.144  1.00  0.00     0.021 C 
BRANCH  15  16
HETATM   16  C4  UNL     1      22.366   4.912  51.823  1.00  0.00     0.126 C 
BRANCH  16  17
HETATM   17  N2  UNL     1      23.405   5.336  50.871  1.00  0.00    -0.349 N 
HETATM   18  C3  UNL     1      23.572   6.771  50.618  1.00  0.00     0.156 C 
HETATM   19  C2  UNL     1      25.084   6.992  50.686  1.00  0.00     0.292 C 
HETATM   20  N1  UNL     1      25.799   6.153  49.780  1.00  0.00     0.094 N 
HETATM   21  C1  UNL     1      25.539   6.469  48.407  1.00  0.00     0.310 C 
HETATM   22  C22 UNL     1      25.663   4.747  49.983  1.00  0.00     0.374 C 
HETATM   23  C21 UNL     1      24.228   4.385  50.212  1.00  0.00     0.248 C 
HETATM   24  O1  UNL     1      23.671   3.296  49.870  1.00  0.00    -0.271 OA
ENDBRANCH  16  17
ENDBRANCH  15  16
ENDBRANCH  14  15
ENDBRANCH  13  14
ENDBRANCH  11  13
ENDBRANCH   1  11
BRANCH   4  25
HETATM   25  N4  UNL     1      24.939   0.190  53.223  1.00  0.00    -0.340 N 
HETATM   26  H18 UNL     1      24.455   0.857  52.570  1.00  0.00     0.167 HD
BRANCH  25  27
HETATM   27  C12 UNL     1      26.354   0.045  53.301  1.00  0.00     0.035 A 
HETATM   28  C13 UNL     1      26.886  -1.157  52.933  1.00  0.00     0.032 A 
HETATM   29  C14 UNL     1      28.257  -1.227  53.037  1.00  0.00     0.046 A 
HETATM   30  C15 UNL     1      29.069  -0.202  53.471  1.00  0.00     0.138 A 
HETATM   31  F1  UNL     1      30.431  -0.342  53.551  1.00  0.00    -0.204 F 
HETATM   32  C16 UNL     1      28.458   0.990  53.827  1.00  0.00     0.074 A 
HETATM   33 CL1  UNL     1      29.471   2.297  54.379  1.00  0.00    -0.081 Cl
HETATM   34  C17 UNL     1      27.070   1.135  53.747  1.00  0.00     0.056 A 
ENDBRANCH  25  27
ENDBRANCH   4  25
TORSDOF 8
ENDMDL
MODEL 7
REMARK VINA RESULT:      -8.0      1.517      2.052
REMARK  8 active torsions:
REMARK  status: ('A' for Active; 'I' for Inactive)
REMARK    1  A    between atoms: N2_5  and  C4_6 
REMARK    2  A    between atoms: C4_6  and  C5_7 
REMARK    3  A    between atoms: C5_7  and  C6_8 
REMARK    4  A    between atoms: C6_8  and  C7_9 
REMARK    5  A    between atoms: C7_9  and  N3_10 
REMARK    6  A    between atoms: N3_10  and  C8_11 
REMARK    7  A    between atoms: C11_14  and  N4_15 
REMARK    8  A    between atoms: N4_15  and  C12_16 
ROOT
HETATM    1  C8  UNL     1      24.500  -0.516  53.704  1.00  0.00     0.124 A 
HETATM    2  C9  UNL     1      25.197   0.322  52.882  1.00  0.00     0.067 A 
HETATM    3  C10 UNL     1      26.414   0.920  53.181  1.00  0.00     0.044 A 
HETATM    4  C11 UNL     1      27.029   1.749  52.269  1.00  0.00     0.142 A 
HETATM    5  N5  UNL     1      28.222   2.310  52.603  1.00  0.00    -0.224 NA
HETATM    6  C18 UNL     1      28.737   2.018  53.819  1.00  0.00     0.236 A 
HETATM    7  N6  UNL     1      28.124   1.208  54.694  1.00  0.00    -0.240 NA
HETATM    8  C19 UNL     1      26.943   0.617  54.434  1.00  0.00     0.089 A 
HETATM    9  C20 UNL     1      26.233  -0.227  55.254  1.00  0.00     0.151 A 
HETATM   10  N7  UNL     1      25.069  -0.764  54.896  1.00  0.00    -0.241 NA
ENDROOT
BRANCH   1  11
HETATM   11  N3  UNL     1      23.261  -1.077  53.302  1.00  0.00    -0.375 N 
HETATM   12  H16 UNL     1      23.096  -2.092  53.447  1.00  0.00     0.161 HD
BRANCH  11  13
HETATM   13  C7  UNL     1      22.217  -0.312  52.704  1.00  0.00     0.121 C 
BRANCH  13  14
HETATM   14  C6  UNL     1      21.341   0.345  53.749  1.00  0.00     0.021 C 
BRANCH  14  15
HETATM   15  C5  UNL     1      20.756   1.580  53.090  1.00  0.00     0.021 C 
BRANCH  15  16
HETATM   16  C4  UNL     1      21.533   1.839  51.811  1.00  0.00     0.126 C 
BRANCH  16  17
HETATM   17  N2  UNL     1      20.732   2.727  50.954  1.00  0.00    -0.349 N 
HETATM   18  C3  UNL     1      20.166   3.942  51.550  1.00  0.00     0.156 C 
HETATM   19  C2  UNL     1      20.476   5.040  50.532  1.00  0.00     0.292 C 
HETATM   20  N1  UNL     1      19.969   4.738  49.233  1.00  0.00     0.094 N 
HETATM   21  C1  UNL     1      18.538   4.719  49.185  1.00  0.00     0.310 C 
HETATM   22  C22 UNL     1      20.487   3.561  48.614  1.00  0.00     0.374 C 
HETATM   23  C21 UNL     1      20.509   2.422  49.586  1.00  0.00     0.248 C 
HETATM   24  O1  UNL     1      20.347   1.196  49.300  1.00  0.00    -0.271 OA
ENDBRANCH  16  17
ENDBRANCH  15  16
ENDBRANCH  14  15
ENDBRANCH  13  14
ENDBRANCH  11  13
ENDBRANCH   1  11
BRANCH   4  25
HETATM   25  N4  UNL     1      26.460   2.035  51.001  1.00  0.00    -0.340 N 
HETATM   26  H18 UNL     1      26.561   1.075  50.585  1.00  0.00     0.167 HD
BRANCH  25  27
HETATM   27  C12 UNL     1      25.891   3.143  50.308  1.00  0.00     0.035 A 
HETATM   28  C13 UNL     1      24.530   3.244  50.291  1.00  0.00     0.032 A 
HETATM   29  C14 UNL     1      24.051   4.334  49.601  1.00  0.00     0.046 A 
HETATM   30  C15 UNL     1      24.833   5.272  48.965  1.00  0.00     0.138 A 
HETATM   31  F1  UNL     1      24.286   6.337  48.294  1.00  0.00    -0.204 F 
HETATM   32  C16 UNL     1      26.208   5.106  49.026  1.00  0.00     0.074 A 
HETATM   33 CL1  UNL     1      27.213   6.284  48.226  1.00  0.00    -0.081 Cl
HETATM   34  C17 UNL     1      26.768   4.021  49.708  1.00  0.00     0.056 A 
ENDBRANCH  25  27
ENDBRANCH   4  25
TORSDOF 8
ENDMDL
MODEL 8
REMARK VINA RESULT:      -7.9      1.947      2.870
REMARK  8 active torsions:
REMARK  status: ('A' for Active; 'I' for Inactive)
REMARK    1  A    between atoms: N2_5  and  C4_6 
REMARK    2  A    between atoms: C4_6  and  C5_7 
REMARK    3  A    between atoms: C5_7  and  C6_8 
REMARK    4  A    between atoms: C6_8  and  C7_9 
REMARK    5  A    between atoms: C7_9  and  N3_10 
REMARK    6  A    between atoms: N3_10  and  C8_11 
REMARK    7  A    between atoms: C11_14  and  N4_15 
REMARK    8  A    between atoms: N4_15  and  C12_16 
ROOT
HETATM    1  C8  UNL     1      21.450  -0.471  53.882  1.00  0.00     0.124 A 
HETATM    2  C9  UNL     1      22.513   0.157  53.300  1.00  0.00     0.067 A 
HETATM    3  C10 UNL     1      23.842   0.017  53.681  1.00  0.00     0.044 A 
HETATM    4  C11 UNL     1      24.835   0.700  53.017  1.00  0.00     0.142 A 
HETATM    5  N5  UNL     1      26.123   0.531  53.422  1.00  0.00    -0.224 NA
HETATM    6  C18 UNL     1      26.352  -0.306  54.460  1.00  0.00     0.236 A 
HETATM    7  N6  UNL     1      25.370  -0.964  55.095  1.00  0.00    -0.240 NA
HETATM    8  C19 UNL     1      24.075  -0.846  54.751  1.00  0.00     0.089 A 
HETATM    9  C20 UNL     1      22.997  -1.472  55.329  1.00  0.00     0.151 A 
HETATM   10  N7  UNL     1      21.748  -1.287  54.906  1.00  0.00    -0.241 NA
ENDROOT
BRANCH   1  11
HETATM   11  N3  UNL     1      20.127  -0.260  53.416  1.00  0.00    -0.375 N 
HETATM   12  H16 UNL     1      19.905   0.619  52.909  1.00  0.00     0.161 HD
BRANCH  11  13
HETATM   13  C7  UNL     1      19.074  -1.202  53.607  1.00  0.00     0.121 C 
BRANCH  13  14
HETATM   14  C6  UNL     1      17.834  -0.815  52.830  1.00  0.00     0.021 C 
BRANCH  14  15
HETATM   15  C5  UNL     1      18.327  -0.167  51.549  1.00  0.00     0.021 C 
BRANCH  15  16
HETATM   16  C4  UNL     1      17.842   1.271  51.536  1.00  0.00     0.126 C 
BRANCH  16  17
HETATM   17  N2  UNL     1      18.867   2.099  50.881  1.00  0.00    -0.349 N 
HETATM   18  C3  UNL     1      19.059   1.952  49.434  1.00  0.00     0.156 C 
HETATM   19  C2  UNL     1      19.127   3.389  48.915  1.00  0.00     0.292 C 
HETATM   20  N1  UNL     1      20.142   4.155  49.562  1.00  0.00     0.094 N 
HETATM   21  C1  UNL     1      21.464   3.693  49.259  1.00  0.00     0.310 C 
HETATM   22  C22 UNL     1      20.001   4.322  50.972  1.00  0.00     0.374 C 
HETATM   23  C21 UNL     1      19.653   3.019  51.624  1.00  0.00     0.248 C 
HETATM   24  O1  UNL     1      19.997   2.654  52.791  1.00  0.00    -0.271 OA
ENDBRANCH  16  17
ENDBRANCH  15  16
ENDBRANCH  14  15
ENDBRANCH  13  14
ENDBRANCH  11  13
ENDBRANCH   1  11
BRANCH   4  25
HETATM   25  N4  UNL     1      24.561   1.572  51.931  1.00  0.00    -0.340 N 
HETATM   26  H18 UNL     1      24.535   0.843  51.173  1.00  0.00     0.167 HD
BRANCH  25  27
HETATM   27  C12 UNL     1      24.355   2.962  51.700  1.00  0.00     0.035 A 
HETATM   28  C13 UNL     1      23.576   3.641  52.592  1.00  0.00     0.032 A 
HETATM   29  C14 UNL     1      23.417   4.977  52.306  1.00  0.00     0.046 A 
HETATM   30  C15 UNL     1      23.972   5.624  51.224  1.00  0.00     0.138 A 
HETATM   31  F1  UNL     1      23.770   6.963  50.997  1.00  0.00    -0.204 F 
HETATM   32  C16 UNL     1      24.752   4.871  50.360  1.00  0.00     0.074 A 
HETATM   33 CL1  UNL     1      25.462   5.674  48.985  1.00  0.00    -0.081 Cl
HETATM   34  C17 UNL     1      24.958   3.507  50.587  1.00  0.00     0.056 A 
ENDBRANCH  25  27
ENDBRANCH   4  25
TORSDOF 8
ENDMDL
MODEL 9
REMARK VINA RESULT:      -7.8      4.754      7.842
REMARK  8 active torsions:
REMARK  status: ('A' for Active; 'I' for Inactive)
REMARK    1  A    between atoms: N2_5  and  C4_6 
REMARK    2  A    between atoms: C4_6  and  C5_7 
REMARK    3  A    between atoms: C5_7  and  C6_8 
REMARK    4  A    between atoms: C6_8  and  C7_9 
REMARK    5  A    between atoms: C7_9  and  N3_10 
REMARK    6  A    between atoms: N3_10  and  C8_11 
REMARK    7  A    between atoms: C11_14  and  N4_15 
REMARK    8  A    between atoms: N4_15  and  C12_16 
ROOT
HETATM    1  C8  UNL     1      25.851   5.183  49.599  1.00  0.00     0.124 A 
HETATM    2  C9  UNL     1      27.108   5.354  49.097  1.00  0.00     0.067 A 
HETATM    3  C10 UNL     1      27.492   6.337  48.194  1.00  0.00     0.044 A 
HETATM    4  C11 UNL     1      28.795   6.416  47.756  1.00  0.00     0.142 A 
HETATM    5  N5  UNL     1      29.126   7.397  46.874  1.00  0.00    -0.224 NA
HETATM    6  C18 UNL     1      28.148   8.243  46.476  1.00  0.00     0.236 A 
HETATM    7  N6  UNL     1      26.884   8.150  46.914  1.00  0.00    -0.240 NA
HETATM    8  C19 UNL     1      26.482   7.207  47.785  1.00  0.00     0.089 A 
HETATM    9  C20 UNL     1      25.219   7.026  48.297  1.00  0.00     0.151 A 
HETATM   10  N7  UNL     1      24.929   6.057  49.163  1.00  0.00    -0.241 NA
ENDROOT
BRANCH   1  11
HETATM   11  N3  UNL     1      25.562   4.144  50.521  1.00  0.00    -0.375 N 
HETATM   12  H16 UNL     1      26.031   4.147  51.447  1.00  0.00     0.161 HD
BRANCH  11  13
HETATM   13  C7  UNL     1      24.651   3.084  50.240  1.00  0.00     0.121 C 
BRANCH  13  14
HETATM   14  C6  UNL     1      23.853   2.698  51.467  1.00  0.00     0.021 C 
BRANCH  14  15
HETATM   15  C5  UNL     1      24.846   2.649  52.613  1.00  0.00     0.021 C 
BRANCH  15  16
HETATM   16  C4  UNL     1      24.997   1.200  53.039  1.00  0.00     0.126 C 
BRANCH  16  17
HETATM   17  N2  UNL     1      26.426   0.933  53.273  1.00  0.00    -0.349 N 
HETATM   18  C3  UNL     1      27.412   1.739  52.545  1.00  0.00     0.156 C 
HETATM   19  C2  UNL     1      28.432   2.140  53.611  1.00  0.00     0.292 C 
HETATM   20  N1  UNL     1      28.986   1.012  54.287  1.00  0.00     0.094 N 
HETATM   21  C1  UNL     1      29.793   0.193  53.432  1.00  0.00     0.310 C 
HETATM   22  C22 UNL     1      28.064   0.194  55.006  1.00  0.00     0.374 C 
HETATM   23  C21 UNL     1      26.845  -0.076  54.179  1.00  0.00     0.248 C 
HETATM   24  O1  UNL     1      26.142  -1.133  54.212  1.00  0.00    -0.271 OA
ENDBRANCH  16  17
ENDBRANCH  15  16
ENDBRANCH  14  15
ENDBRANCH  13  14
ENDBRANCH  11  13
ENDBRANCH   1  11
BRANCH   4  25
HETATM   25  N4  UNL     1      29.797   5.511  48.193  1.00  0.00    -0.340 N 
HETATM   26  H18 UNL     1      29.158   4.783  48.601  1.00  0.00     0.167 HD
BRANCH  25  27
HETATM   27  C12 UNL     1      31.218   5.407  48.194  1.00  0.00     0.035 A 
HETATM   28  C13 UNL     1      31.917   6.315  48.935  1.00  0.00     0.032 A 
HETATM   29  C14 UNL     1      33.283   6.157  48.886  1.00  0.00     0.046 A 
HETATM   30  C15 UNL     1      33.940   5.184  48.166  1.00  0.00     0.138 A 
HETATM   31  F1  UNL     1      35.309   5.084  48.162  1.00  0.00    -0.204 F 
HETATM   32  C16 UNL     1      33.165   4.295  47.438  1.00  0.00     0.074 A 
HETATM   33 CL1  UNL     1      33.980   3.056  46.521  1.00  0.00    -0.081 Cl
HETATM   34  C17 UNL     1      31.770   4.394  47.439  1.00  0.00     0.056 A 
ENDBRANCH  25  27
ENDBRANCH   4  25
TORSDOF 8
ENDMDL
