MODEL 1
REMARK VINA RESULT:      -8.6      0.000      0.000
REMARK  7 active torsions:
REMARK  status: ('A' for Active; 'I' for Inactive)
REMARK    1  A    between atoms: N1_2  and  C3_4 
REMARK    2  A    between atoms: C3_4  and  C4_5 
REMARK    3  A    between atoms: C5_6  and  C6_7 
REMARK       I    between atoms: C6_7  and  N2_9 
REMARK    4  A    between atoms: N2_9  and  C7_10 
REMARK    5  A    between atoms: C13_16  and  N3_17 
REMARK    6  A    between atoms: N3_17  and  C14_18 
REMARK    7  A    between atoms: N4_25  and  P1_26 
ROOT
HETATM    1  C7  UNL     1      27.835   5.192  48.558  1.00  0.00     0.036 A 
HETATM    2  C8  UNL     1      27.170   6.363  48.263  1.00  0.00     0.032 A 
HETATM    3  C9  UNL     1      25.884   6.504  48.744  1.00  0.00     0.034 A 
HETATM    4  C10 UNL     1      25.262   5.534  49.491  1.00  0.00     0.068 A 
HETATM    5  C11 UNL     1      25.901   4.359  49.799  1.00  0.00     0.015 A 
HETATM    6  C12 UNL     1      27.211   4.198  49.319  1.00  0.00     0.043 A 
HETATM    7  C13 UNL     1      25.570   3.120  50.550  1.00  0.00     0.225 A 
HETATM    8  N4  UNL     1      24.196   3.343  51.040  1.00  0.00    -0.329 N 
HETATM    9  C20 UNL     1      23.499   4.563  50.733  1.00  0.00     0.211 A 
HETATM   10  N5  UNL     1      23.954   5.558  50.042  1.00  0.00    -0.243 NA
ENDROOT
BRANCH   1  11
HETATM   11  N2  UNL     1      29.154   5.128  48.027  1.00  0.00    -0.316 N 
HETATM   12  C6  UNL     1      30.362   5.876  48.123  1.00  0.00     0.301 C 
HETATM   13  O1  UNL     1      30.445   6.917  48.844  1.00  0.00    -0.258 OA
HETATM   14  H9  UNL     1      29.091   4.260  47.422  1.00  0.00     0.170 HD
BRANCH  12  15
HETATM   15  C5  UNL     1      31.470   5.377  47.354  1.00  0.00    -0.004 C 
HETATM   16  C4  UNL     1      32.410   4.941  46.715  1.00  0.00    -0.066 C 
BRANCH  16  17
HETATM   17  C3  UNL     1      33.548   4.399  45.946  1.00  0.00     0.365 C 
BRANCH  17  18
HETATM   18  N1  UNL     1      34.043   3.203  46.606  1.00  0.00     0.090 N 
HETATM   19  C1  UNL     1      32.956   2.312  46.900  1.00  0.00     0.310 C 
HETATM   20  C2  UNL     1      34.760   3.631  47.783  1.00  0.00     0.310 C 
ENDBRANCH  17  18
ENDBRANCH  16  17
ENDBRANCH  12  15
ENDBRANCH   1  11
BRANCH   7  21
HETATM   21  N3  UNL     1      26.373   3.118  51.783  1.00  0.00    -0.364 N 
HETATM   22  H14 UNL     1      26.438   4.027  52.332  1.00  0.00     0.162 HD
BRANCH  21  23
HETATM   23  C14 UNL     1      27.123   2.083  52.421  1.00  0.00     0.031 A 
HETATM   24  C15 UNL     1      28.210   2.288  53.251  1.00  0.00     0.029 A 
HETATM   25  C16 UNL     1      28.846   1.191  53.775  1.00  0.00     0.004 A 
HETATM   26  C17 UNL     1      28.496  -0.114  53.545  1.00  0.00     0.019 A 
HETATM   27  C18 UNL     1      27.403  -0.318  52.711  1.00  0.00     0.013 A 
HETATM   28 BR1  UNL     1      26.925  -2.138  52.401  1.00  0.00    -0.051 Br
HETATM   29  C19 UNL     1      26.745   0.767  52.172  1.00  0.00     0.048 A 
ENDBRANCH  21  23
ENDBRANCH   7  21
BRANCH   8  30
HETATM   30  P1  UNL     1      23.079   2.352  52.031  1.00  0.00    -0.035 P 
HETATM   31  H19 UNL     1      23.363   2.400  53.436  1.00  0.00     0.077 HD
HETATM   32  H20 UNL     1      23.184   0.975  51.580  1.00  0.00     0.077 HD
ENDBRANCH   8  30
TORSDOF 7
ENDMDL
MODEL 2
REMARK VINA RESULT:      -8.2      1.394      1.960
REMARK  7 active torsions:
REMARK  status: ('A' for Active; 'I' for Inactive)
REMARK    1  A    between atoms: N1_2  and  C3_4 
REMARK    2  A    between atoms: C3_4  and  C4_5 
REMARK    3  A    between atoms: C5_6  and  C6_7 
REMARK       I    between atoms: C6_7  and  N2_9 
REMARK    4  A    between atoms: N2_9  and  C7_10 
REMARK    5  A    between atoms: C13_16  and  N3_17 
REMARK    6  A    between atoms: N3_17  and  C14_18 
REMARK    7  A    between atoms: N4_25  and  P1_26 
ROOT
HETATM    1  C7  UNL     1      26.462   4.304  49.455  1.00  0.00     0.036 A 
HETATM    2  C8  UNL     1      25.480   5.219  49.136  1.00  0.00     0.032 A 
HETATM    3  C9  UNL     1      24.205   4.973  49.602  1.00  0.00     0.034 A 
HETATM    4  C10 UNL     1      23.891   3.869  50.357  1.00  0.00     0.068 A 
HETATM    5  C11 UNL     1      24.849   2.944  50.688  1.00  0.00     0.015 A 
HETATM    6  C12 UNL     1      26.153   3.177  50.223  1.00  0.00     0.043 A 
HETATM    7  C13 UNL     1      24.894   1.671  51.454  1.00  0.00     0.225 A 
HETATM    8  N4  UNL     1      23.510   1.477  51.927  1.00  0.00    -0.329 N 
HETATM    9  C20 UNL     1      22.483   2.428  51.595  1.00  0.00     0.211 A 
HETATM   10  N5  UNL     1      22.629   3.506  50.895  1.00  0.00    -0.243 NA
ENDROOT
BRANCH   1  11
HETATM   11  N2  UNL     1      27.746   4.633  48.937  1.00  0.00    -0.316 N 
HETATM   12  C6  UNL     1      28.370   5.748  48.307  1.00  0.00     0.301 C 
HETATM   13  O1  UNL     1      27.736   6.821  48.074  1.00  0.00    -0.258 OA
HETATM   14  H9  UNL     1      28.282   3.739  49.129  1.00  0.00     0.170 HD
BRANCH  12  15
HETATM   15  C5  UNL     1      29.755   5.575  47.958  1.00  0.00    -0.004 C 
HETATM   16  C4  UNL     1      30.923   5.413  47.656  1.00  0.00    -0.066 C 
BRANCH  16  17
HETATM   17  C3  UNL     1      32.335   5.207  47.277  1.00  0.00     0.365 C 
BRANCH  17  18
HETATM   18  N1  UNL     1      32.717   3.839  47.584  1.00  0.00     0.090 N 
HETATM   19  C1  UNL     1      34.145   3.733  47.686  1.00  0.00     0.310 C 
HETATM   20  C2  UNL     1      32.157   2.998  46.554  1.00  0.00     0.310 C 
ENDBRANCH  17  18
ENDBRANCH  16  17
ENDBRANCH  12  15
ENDBRANCH   1  11
BRANCH   7  21
HETATM   21  N3  UNL     1      25.644   1.922  52.694  1.00  0.00    -0.364 N 
HETATM   22  H14 UNL     1      25.187   2.540  53.430  1.00  0.00     0.162 HD
BRANCH  21  23
HETATM   23  C14 UNL     1      26.930   1.479  53.127  1.00  0.00     0.031 A 
HETATM   24  C15 UNL     1      27.911   2.293  53.666  1.00  0.00     0.029 A 
HETATM   25  C16 UNL     1      29.110   1.727  54.016  1.00  0.00     0.004 A 
HETATM   26  C17 UNL     1      29.431   0.401  53.878  1.00  0.00     0.019 A 
HETATM   27  C18 UNL     1      28.446  -0.416  53.337  1.00  0.00     0.013 A 
HETATM   28 BR1  UNL     1      28.905  -2.257  53.151  1.00  0.00    -0.051 Br
HETATM   29  C19 UNL     1      27.231   0.128  52.977  1.00  0.00     0.048 A 
ENDBRANCH  21  23
ENDBRANCH   7  21
BRANCH   8  30
HETATM   30  P1  UNL     1      22.727   0.207  52.921  1.00  0.00    -0.035 P 
HETATM   31  H19 UNL     1      22.909   0.390  54.332  1.00  0.00     0.077 HD
HETATM   32  H20 UNL     1      23.298  -1.073  52.539  1.00  0.00     0.077 HD
ENDBRANCH   8  30
TORSDOF 7
ENDMDL
MODEL 3
REMARK VINA RESULT:      -8.0      2.631      4.239
REMARK  7 active torsions:
REMARK  status: ('A' for Active; 'I' for Inactive)
REMARK    1  A    between atoms: N1_2  and  C3_4 
REMARK    2  A    between atoms: C3_4  and  C4_5 
REMARK    3  A    between atoms: C5_6  and  C6_7 
REMARK       I    between atoms: C6_7  and  N2_9 
REMARK    4  A    between atoms: N2_9  and  C7_10 
REMARK    5  A    between atoms: C13_16  and  N3_17 
REMARK    6  A    between atoms: N3_17  and  C14_18 
REMARK    7  A    between atoms: N4_25  and  P1_26 
ROOT
HETATM    1  C7  UNL     1      24.081   4.341  50.558  1.00  0.00     0.036 A 
HETATM    2  C8  UNL     1      23.170   5.369  50.672  1.00  0.00     0.032 A 
HETATM    3  C9  UNL     1      21.965   5.087  51.284  1.00  0.00     0.034 A 
HETATM    4  C10 UNL     1      21.656   3.842  51.774  1.00  0.00     0.068 A 
HETATM    5  C11 UNL     1      22.546   2.802  51.673  1.00  0.00     0.015 A 
HETATM    6  C12 UNL     1      23.777   3.069  51.053  1.00  0.00     0.043 A 
HETATM    7  C13 UNL     1      22.571   1.368  52.064  1.00  0.00     0.225 A 
HETATM    8  N4  UNL     1      21.267   1.141  52.716  1.00  0.00    -0.329 N 
HETATM    9  C20 UNL     1      20.312   2.211  52.836  1.00  0.00     0.211 A 
HETATM   10  N5  UNL     1      20.464   3.427  52.422  1.00  0.00    -0.243 NA
ENDROOT
BRANCH   1  11
HETATM   11  N2  UNL     1      25.295   4.715  49.916  1.00  0.00    -0.316 N 
HETATM   12  C6  UNL     1      26.520   4.092  49.540  1.00  0.00     0.301 C 
HETATM   13  O1  UNL     1      26.742   2.865  49.776  1.00  0.00    -0.258 OA
HETATM   14  H9  UNL     1      25.116   5.740  49.716  1.00  0.00     0.170 HD
BRANCH  12  15
HETATM   15  C5  UNL     1      27.477   4.940  48.883  1.00  0.00    -0.004 C 
HETATM   16  C4  UNL     1      28.278   5.658  48.312  1.00  0.00    -0.066 C 
BRANCH  16  17
HETATM   17  C3  UNL     1      29.237   6.534  47.609  1.00  0.00     0.365 C 
BRANCH  17  18
HETATM   18  N1  UNL     1      30.466   6.610  48.381  1.00  0.00     0.090 N 
HETATM   19  C1  UNL     1      31.130   7.859  48.134  1.00  0.00     0.310 C 
HETATM   20  C2  UNL     1      31.265   5.462  48.027  1.00  0.00     0.310 C 
ENDBRANCH  17  18
ENDBRANCH  16  17
ENDBRANCH  12  15
ENDBRANCH   1  11
BRANCH   7  21
HETATM   21  N3  UNL     1      23.532   1.222  53.167  1.00  0.00    -0.364 N 
HETATM   22  H14 UNL     1      23.241   1.579  54.126  1.00  0.00     0.162 HD
BRANCH  21  23
HETATM   23  C14 UNL     1      24.848   0.668  53.207  1.00  0.00     0.031 A 
HETATM   24  C15 UNL     1      25.145  -0.680  53.117  1.00  0.00     0.029 A 
HETATM   25  C16 UNL     1      26.459  -1.066  53.195  1.00  0.00     0.004 A 
HETATM   26  C17 UNL     1      27.526  -0.220  53.358  1.00  0.00     0.019 A 
HETATM   27  C18 UNL     1      27.226   1.134  53.448  1.00  0.00     0.013 A 
HETATM   28 BR1  UNL     1      28.718   2.300  53.674  1.00  0.00    -0.051 Br
HETATM   29  C19 UNL     1      25.913   1.549  53.372  1.00  0.00     0.048 A 
ENDBRANCH  21  23
ENDBRANCH   7  21
BRANCH   8  30
HETATM   30  P1  UNL     1      20.517  -0.299  53.476  1.00  0.00    -0.035 P 
HETATM   31  H19 UNL     1      21.393  -1.433  53.543  1.00  0.00     0.077 HD
HETATM   32  H20 UNL     1      19.347  -0.658  52.693  1.00  0.00     0.077 HD
ENDBRANCH   8  30
TORSDOF 7
ENDMDL
MODEL 4
REMARK VINA RESULT:      -7.9      3.653      6.263
REMARK  7 active torsions:
REMARK  status: ('A' for Active; 'I' for Inactive)
REMARK    1  A    between atoms: N1_2  and  C3_4 
REMARK    2  A    between atoms: C3_4  and  C4_5 
REMARK    3  A    between atoms: C5_6  and  C6_7 
REMARK       I    between atoms: C6_7  and  N2_9 
REMARK    4  A    between atoms: N2_9  and  C7_10 
REMARK    5  A    between atoms: C13_16  and  N3_17 
REMARK    6  A    between atoms: N3_17  and  C14_18 
REMARK    7  A    between atoms: N4_25  and  P1_26 
ROOT
HETATM    1  C7  UNL     1      26.300   2.159  51.687  1.00  0.00     0.036 A 
HETATM    2  C8  UNL     1      27.292   1.433  52.313  1.00  0.00     0.032 A 
HETATM    3  C9  UNL     1      26.901   0.470  53.220  1.00  0.00     0.034 A 
HETATM    4  C10 UNL     1      25.583   0.217  53.511  1.00  0.00     0.068 A 
HETATM    5  C11 UNL     1      24.577   0.925  52.903  1.00  0.00     0.015 A 
HETATM    6  C12 UNL     1      24.955   1.910  51.977  1.00  0.00     0.043 A 
HETATM    7  C13 UNL     1      23.091   0.943  52.957  1.00  0.00     0.225 A 
HETATM    8  N4  UNL     1      22.746  -0.110  53.932  1.00  0.00    -0.329 N 
HETATM    9  C20 UNL     1      23.778  -0.868  54.587  1.00  0.00     0.211 A 
HETATM   10  N5  UNL     1      25.054  -0.740  54.415  1.00  0.00    -0.243 NA
ENDROOT
BRANCH   1  11
HETATM   11  N2  UNL     1      26.788   3.130  50.769  1.00  0.00    -0.316 N 
HETATM   12  C6  UNL     1      26.308   3.825  49.622  1.00  0.00     0.301 C 
HETATM   13  O1  UNL     1      25.137   3.634  49.170  1.00  0.00    -0.258 OA
HETATM   14  H9  UNL     1      27.767   3.294  51.141  1.00  0.00     0.170 HD
BRANCH  12  15
HETATM   15  C5  UNL     1      27.230   4.748  49.018  1.00  0.00    -0.004 C 
HETATM   16  C4  UNL     1      28.021   5.517  48.503  1.00  0.00    -0.066 C 
BRANCH  16  17
HETATM   17  C3  UNL     1      28.988   6.437  47.871  1.00  0.00     0.365 C 
BRANCH  17  18
HETATM   18  N1  UNL     1      30.275   6.304  48.530  1.00  0.00     0.090 N 
HETATM   19  C1  UNL     1      30.874   7.596  48.716  1.00  0.00     0.310 C 
HETATM   20  C2  UNL     1      31.078   5.417  47.724  1.00  0.00     0.310 C 
ENDBRANCH  17  18
ENDBRANCH  16  17
ENDBRANCH  12  15
ENDBRANCH   1  11
BRANCH   7  21
HETATM   21  N3  UNL     1      22.592   0.404  51.683  1.00  0.00    -0.364 N 
HETATM   22  H14 UNL     1      22.981  -0.531  51.356  1.00  0.00     0.162 HD
BRANCH  21  23
HETATM   23  C14 UNL     1      21.638   0.914  50.750  1.00  0.00     0.031 A 
HETATM   24  C15 UNL     1      20.270   0.730  50.834  1.00  0.00     0.029 A 
HETATM   25  C16 UNL     1      19.479   1.261  49.847  1.00  0.00     0.004 A 
HETATM   26  C17 UNL     1      19.930   1.970  48.764  1.00  0.00     0.019 A 
HETATM   27  C18 UNL     1      21.305   2.154  48.682  1.00  0.00     0.013 A 
HETATM   28 BR1  UNL     1      21.920   3.142  47.171  1.00  0.00    -0.051 Br
HETATM   29  C19 UNL     1      22.123   1.631  49.660  1.00  0.00     0.048 A 
ENDBRANCH  21  23
ENDBRANCH   7  21
BRANCH   8  30
HETATM   30  P1  UNL     1      21.183  -0.733  54.551  1.00  0.00    -0.035 P 
HETATM   31  H19 UNL     1      21.055  -0.643  55.977  1.00  0.00     0.077 HD
HETATM   32  H20 UNL     1      21.072  -2.128  54.159  1.00  0.00     0.077 HD
ENDBRANCH   8  30
TORSDOF 7
ENDMDL
MODEL 5
REMARK VINA RESULT:      -7.8      6.184     11.409
REMARK  7 active torsions:
REMARK  status: ('A' for Active; 'I' for Inactive)
REMARK    1  A    between atoms: N1_2  and  C3_4 
REMARK    2  A    between atoms: C3_4  and  C4_5 
REMARK    3  A    between atoms: C5_6  and  C6_7 
REMARK       I    between atoms: C6_7  and  N2_9 
REMARK    4  A    between atoms: N2_9  and  C7_10 
REMARK    5  A    between atoms: C13_16  and  N3_17 
REMARK    6  A    between atoms: N3_17  and  C14_18 
REMARK    7  A    between atoms: N4_25  and  P1_26 
ROOT
HETATM    1  C7  UNL     1      21.454  -0.575  53.686  1.00  0.00     0.036 A 
HETATM    2  C8  UNL     1      21.662  -1.423  54.753  1.00  0.00     0.032 A 
HETATM    3  C9  UNL     1      22.949  -1.530  55.240  1.00  0.00     0.034 A 
HETATM    4  C10 UNL     1      24.005  -0.833  54.705  1.00  0.00     0.068 A 
HETATM    5  C11 UNL     1      23.825   0.016  53.642  1.00  0.00     0.015 A 
HETATM    6  C12 UNL     1      22.522   0.139  53.133  1.00  0.00     0.043 A 
HETATM    7  C13 UNL     1      24.687   0.905  52.819  1.00  0.00     0.225 A 
HETATM    8  N4  UNL     1      26.036   0.748  53.398  1.00  0.00    -0.329 N 
HETATM    9  C20 UNL     1      26.256  -0.136  54.511  1.00  0.00     0.211 A 
HETATM   10  N5  UNL     1      25.364  -0.854  55.113  1.00  0.00    -0.243 NA
ENDROOT
BRANCH   1  11
HETATM   11  N2  UNL     1      20.102  -0.523  53.247  1.00  0.00    -0.316 N 
HETATM   12  C6  UNL     1      19.392  -0.114  52.081  1.00  0.00     0.301 C 
HETATM   13  O1  UNL     1      19.991   0.355  51.066  1.00  0.00    -0.258 OA
HETATM   14  H9  UNL     1      19.595  -0.913  54.091  1.00  0.00     0.170 HD
BRANCH  12  15
HETATM   15  C5  UNL     1      17.963  -0.268  52.133  1.00  0.00    -0.004 C 
HETATM   16  C4  UNL     1      16.753  -0.392  52.193  1.00  0.00    -0.066 C 
BRANCH  16  17
HETATM   17  C3  UNL     1      15.285  -0.529  52.275  1.00  0.00     0.365 C 
BRANCH  17  18
HETATM   18  N1  UNL     1      14.759   0.499  53.157  1.00  0.00     0.090 N 
HETATM   19  C1  UNL     1      13.420   0.170  53.560  1.00  0.00     0.310 C 
HETATM   20  C2  UNL     1      14.846   1.754  52.450  1.00  0.00     0.310 C 
ENDBRANCH  17  18
ENDBRANCH  16  17
ENDBRANCH  12  15
ENDBRANCH   1  11
BRANCH   7  21
HETATM   21  N3  UNL     1      24.336   2.295  53.147  1.00  0.00    -0.364 N 
HETATM   22  H14 UNL     1      24.264   2.556  54.176  1.00  0.00     0.162 HD
BRANCH  21  23
HETATM   23  C14 UNL     1      24.059   3.422  52.314  1.00  0.00     0.031 A 
HETATM   24  C15 UNL     1      22.925   4.209  52.396  1.00  0.00     0.029 A 
HETATM   25  C16 UNL     1      22.786   5.247  51.510  1.00  0.00     0.004 A 
HETATM   26  C17 UNL     1      23.686   5.581  50.532  1.00  0.00     0.019 A 
HETATM   27  C18 UNL     1      24.825   4.789  50.451  1.00  0.00     0.013 A 
HETATM   28 BR1  UNL     1      26.069   5.265  49.086  1.00  0.00    -0.051 Br
HETATM   29  C19 UNL     1      24.990   3.740  51.330  1.00  0.00     0.048 A 
ENDBRANCH  21  23
ENDBRANCH   7  21
BRANCH   8  30
HETATM   30  P1  UNL     1      27.624   1.477  53.001  1.00  0.00    -0.035 P 
HETATM   31  H19 UNL     1      28.004   1.313  51.628  1.00  0.00     0.077 HD
HETATM   32  H20 UNL     1      28.627   0.846  53.842  1.00  0.00     0.077 HD
ENDBRANCH   8  30
TORSDOF 7
ENDMDL
MODEL 6
REMARK VINA RESULT:      -7.8      3.003      3.952
REMARK  7 active torsions:
REMARK  status: ('A' for Active; 'I' for Inactive)
REMARK    1  A    between atoms: N1_2  and  C3_4 
REMARK    2  A    between atoms: C3_4  and  C4_5 
REMARK    3  A    between atoms: C5_6  and  C6_7 
REMARK       I    between atoms: C6_7  and  N2_9 
REMARK    4  A    between atoms: N2_9  and  C7_10 
REMARK    5  A    between atoms: C13_16  and  N3_17 
REMARK    6  A    between atoms: N3_17  and  C14_18 
REMARK    7  A    between atoms: N4_25  and  P1_26 
ROOT
HETATM    1  C7  UNL     1      24.785   4.502  50.245  1.00  0.00     0.036 A 
HETATM    2  C8  UNL     1      23.571   5.156  50.250  1.00  0.00     0.032 A 
HETATM    3  C9  UNL     1      22.516   4.536  50.888  1.00  0.00     0.034 A 
HETATM    4  C10 UNL     1      22.637   3.315  51.505  1.00  0.00     0.068 A 
HETATM    5  C11 UNL     1      23.834   2.644  51.515  1.00  0.00     0.015 A 
HETATM    6  C12 UNL     1      24.919   3.259  50.871  1.00  0.00     0.043 A 
HETATM    7  C13 UNL     1      24.337   1.353  52.054  1.00  0.00     0.225 A 
HETATM    8  N4  UNL     1      23.168   0.754  52.726  1.00  0.00    -0.329 N 
HETATM    9  C20 UNL     1      21.900   1.433  52.732  1.00  0.00     0.211 A 
HETATM   10  N5  UNL     1      21.637   2.579  52.193  1.00  0.00    -0.243 NA
ENDROOT
BRANCH   1  11
HETATM   11  N2  UNL     1      25.818   5.209  49.568  1.00  0.00    -0.316 N 
HETATM   12  C6  UNL     1      27.062   4.906  48.944  1.00  0.00     0.301 C 
HETATM   13  O1  UNL     1      27.512   3.721  48.896  1.00  0.00    -0.258 OA
HETATM   14  H9  UNL     1      25.448   6.201  49.604  1.00  0.00     0.170 HD
BRANCH  12  15
HETATM   15  C5  UNL     1      27.766   6.025  48.376  1.00  0.00    -0.004 C 
HETATM   16  C4  UNL     1      28.354   6.982  47.908  1.00  0.00    -0.066 C 
BRANCH  16  17
HETATM   17  C3  UNL     1      29.067   8.150  47.353  1.00  0.00     0.365 C 
BRANCH  17  18
HETATM   18  N1  UNL     1      29.981   8.671  48.355  1.00  0.00     0.090 N 
HETATM   19  C1  UNL     1      30.825   7.620  48.850  1.00  0.00     0.310 C 
HETATM   20  C2  UNL     1      29.180   9.289  49.384  1.00  0.00     0.310 C 
ENDBRANCH  17  18
ENDBRANCH  16  17
ENDBRANCH  12  15
ENDBRANCH   1  11
BRANCH   7  21
HETATM   21  N3  UNL     1      25.248   1.659  53.167  1.00  0.00    -0.364 N 
HETATM   22  H14 UNL     1      24.849   2.186  54.001  1.00  0.00     0.162 HD
BRANCH  21  23
HETATM   23  C14 UNL     1      26.635   1.375  53.360  1.00  0.00     0.031 A 
HETATM   24  C15 UNL     1      27.605   2.318  53.649  1.00  0.00     0.029 A 
HETATM   25  C16 UNL     1      28.904   1.897  53.784  1.00  0.00     0.004 A 
HETATM   26  C17 UNL     1      29.335   0.602  53.655  1.00  0.00     0.019 A 
HETATM   27  C18 UNL     1      28.359  -0.343  53.364  1.00  0.00     0.013 A 
HETATM   28 BR1  UNL     1      28.973  -2.140  53.187  1.00  0.00    -0.051 Br
HETATM   29  C19 UNL     1      27.046   0.053  53.224  1.00  0.00     0.048 A 
ENDBRANCH  21  23
ENDBRANCH   7  21
BRANCH   8  30
HETATM   30  P1  UNL     1      22.933  -0.775  53.633  1.00  0.00    -0.035 P 
HETATM   31  H19 UNL     1      23.683  -1.876  53.103  1.00  0.00     0.077 HD
HETATM   32  H20 UNL     1      21.520  -1.107  53.588  1.00  0.00     0.077 HD
ENDBRANCH   8  30
TORSDOF 7
ENDMDL
MODEL 7
REMARK VINA RESULT:      -7.6      4.387      6.864
REMARK  7 active torsions:
REMARK  status: ('A' for Active; 'I' for Inactive)
REMARK    1  A    between atoms: N1_2  and  C3_4 
REMARK    2  A    between atoms: C3_4  and  C4_5 
REMARK    3  A    between atoms: C5_6  and  C6_7 
REMARK       I    between atoms: C6_7  and  N2_9 
REMARK    4  A    between atoms: N2_9  and  C7_10 
REMARK    5  A    between atoms: C13_16  and  N3_17 
REMARK    6  A    between atoms: N3_17  and  C14_18 
REMARK    7  A    between atoms: N4_25  and  P1_26 
ROOT
HETATM    1  C7  UNL     1      25.810   2.888  51.153  1.00  0.00     0.036 A 
HETATM    2  C8  UNL     1      26.809   1.943  51.254  1.00  0.00     0.032 A 
HETATM    3  C9  UNL     1      26.522   0.783  51.945  1.00  0.00     0.034 A 
HETATM    4  C10 UNL     1      25.297   0.547  52.521  1.00  0.00     0.068 A 
HETATM    5  C11 UNL     1      24.286   1.471  52.435  1.00  0.00     0.015 A 
HETATM    6  C12 UNL     1      24.559   2.658  51.736  1.00  0.00     0.043 A 
HETATM    7  C13 UNL     1      22.882   1.574  52.912  1.00  0.00     0.225 A 
HETATM    8  N4  UNL     1      22.642   0.306  53.627  1.00  0.00    -0.329 N 
HETATM    9  C20 UNL     1      23.682  -0.681  53.736  1.00  0.00     0.211 A 
HETATM   10  N5  UNL     1      24.878  -0.596  53.249  1.00  0.00    -0.243 NA
ENDROOT
BRANCH   1  11
HETATM   11  N2  UNL     1      26.187   4.051  50.426  1.00  0.00    -0.316 N 
HETATM   12  C6  UNL     1      25.635   4.877  49.405  1.00  0.00     0.301 C 
HETATM   13  O1  UNL     1      24.496   4.638  48.900  1.00  0.00    -0.258 OA
HETATM   14  H9  UNL     1      27.140   4.256  50.844  1.00  0.00     0.170 HD
BRANCH  12  15
HETATM   15  C5  UNL     1      26.449   5.988  48.990  1.00  0.00    -0.004 C 
HETATM   16  C4  UNL     1      27.123   6.938  48.639  1.00  0.00    -0.066 C 
BRANCH  16  17
HETATM   17  C3  UNL     1      27.932   8.101  48.221  1.00  0.00     0.365 C 
BRANCH  17  18
HETATM   18  N1  UNL     1      28.520   8.721  49.396  1.00  0.00     0.090 N 
HETATM   19  C1  UNL     1      27.501   9.350  50.188  1.00  0.00     0.310 C 
HETATM   20  C2  UNL     1      29.529   9.643  48.933  1.00  0.00     0.310 C 
ENDBRANCH  17  18
ENDBRANCH  16  17
ENDBRANCH  12  15
ENDBRANCH   1  11
BRANCH   7  21
HETATM   21  N3  UNL     1      22.003   1.473  51.737  1.00  0.00    -0.364 N 
HETATM   22  H14 UNL     1      22.389   0.988  50.872  1.00  0.00     0.162 HD
BRANCH  21  23
HETATM   23  C14 UNL     1      20.664   1.919  51.516  1.00  0.00     0.031 A 
HETATM   24  C15 UNL     1      20.196   3.190  51.797  1.00  0.00     0.029 A 
HETATM   25  C16 UNL     1      18.874   3.467  51.552  1.00  0.00     0.004 A 
HETATM   26  C17 UNL     1      17.959   2.581  51.046  1.00  0.00     0.019 A 
HETATM   27  C18 UNL     1      18.432   1.305  50.765  1.00  0.00     0.013 A 
HETATM   28 BR1  UNL     1      17.148   0.082  50.061  1.00  0.00    -0.051 Br
HETATM   29  C19 UNL     1      19.755   1.000  51.001  1.00  0.00     0.048 A 
ENDBRANCH  21  23
ENDBRANCH   7  21
BRANCH   8  30
HETATM   30  P1  UNL     1      21.212  -0.363  54.477  1.00  0.00    -0.035 P 
HETATM   31  H19 UNL     1      20.504  -1.351  53.716  1.00  0.00     0.077 HD
HETATM   32  H20 UNL     1      20.310   0.738  54.767  1.00  0.00     0.077 HD
ENDBRANCH   8  30
TORSDOF 7
ENDMDL
MODEL 8
REMARK VINA RESULT:      -7.4      5.089      6.938
REMARK  7 active torsions:
REMARK  status: ('A' for Active; 'I' for Inactive)
REMARK    1  A    between atoms: N1_2  and  C3_4 
REMARK    2  A    between atoms: C3_4  and  C4_5 
REMARK    3  A    between atoms: C5_6  and  C6_7 
REMARK       I    between atoms: C6_7  and  N2_9 
REMARK    4  A    between atoms: N2_9  and  C7_10 
REMARK    5  A    between atoms: C13_16  and  N3_17 
REMARK    6  A    between atoms: N3_17  and  C14_18 
REMARK    7  A    between atoms: N4_25  and  P1_26 
ROOT
HETATM    1  C7  UNL     1      24.001   3.554  51.573  1.00  0.00     0.036 A 
HETATM    2  C8  UNL     1      23.432   4.520  52.377  1.00  0.00     0.032 A 
HETATM    3  C9  UNL     1      22.226   5.055  51.973  1.00  0.00     0.034 A 
HETATM    4  C10 UNL     1      21.589   4.663  50.821  1.00  0.00     0.068 A 
HETATM    5  C11 UNL     1      22.134   3.704  50.004  1.00  0.00     0.015 A 
HETATM    6  C12 UNL     1      23.361   3.147  50.398  1.00  0.00     0.043 A 
HETATM    7  C13 UNL     1      21.761   3.044  48.725  1.00  0.00     0.225 A 
HETATM    8  N4  UNL     1      20.467   3.653  48.360  1.00  0.00    -0.329 N 
HETATM    9  C20 UNL     1      19.872   4.662  49.195  1.00  0.00     0.211 A 
HETATM   10  N5  UNL     1      20.354   5.130  50.300  1.00  0.00    -0.243 NA
ENDROOT
BRANCH   1  11
HETATM   11  N2  UNL     1      25.241   3.056  52.062  1.00  0.00    -0.316 N 
HETATM   12  C6  UNL     1      26.532   2.758  51.538  1.00  0.00     0.301 C 
HETATM   13  O1  UNL     1      26.810   2.934  50.313  1.00  0.00    -0.258 OA
HETATM   14  H9  UNL     1      25.015   2.906  53.086  1.00  0.00     0.170 HD
BRANCH  12  15
HETATM   15  C5  UNL     1      27.489   2.251  52.484  1.00  0.00    -0.004 C 
HETATM   16  C4  UNL     1      28.304   1.838  53.289  1.00  0.00    -0.066 C 
BRANCH  16  17
HETATM   17  C3  UNL     1      29.291   1.350  54.273  1.00  0.00     0.365 C 
BRANCH  17  18
HETATM   18  N1  UNL     1      28.936   0.000  54.676  1.00  0.00     0.090 N 
HETATM   19  C1  UNL     1      29.357  -0.942  53.677  1.00  0.00     0.310 C 
HETATM   20  C2  UNL     1      27.512  -0.016  54.908  1.00  0.00     0.310 C 
ENDBRANCH  17  18
ENDBRANCH  16  17
ENDBRANCH  12  15
ENDBRANCH   1  11
BRANCH   7  21
HETATM   21  N3  UNL     1      21.407   1.650  49.029  1.00  0.00    -0.364 N 
HETATM   22  H14 UNL     1      21.816   0.889  48.406  1.00  0.00     0.162 HD
BRANCH  21  23
HETATM   23  C14 UNL     1      20.579   1.085  50.046  1.00  0.00     0.031 A 
HETATM   24  C15 UNL     1      19.197   1.030  50.005  1.00  0.00     0.029 A 
HETATM   25  C16 UNL     1      18.534   0.476  51.071  1.00  0.00     0.004 A 
HETATM   26  C17 UNL     1      19.129  -0.037  52.195  1.00  0.00     0.019 A 
HETATM   27  C18 UNL     1      20.517   0.019  52.234  1.00  0.00     0.013 A 
HETATM   28 BR1  UNL     1      21.331  -0.698  53.802  1.00  0.00    -0.051 Br
HETATM   29  C19 UNL     1      21.207   0.570  51.176  1.00  0.00     0.048 A 
ENDBRANCH  21  23
ENDBRANCH   7  21
BRANCH   8  30
HETATM   30  P1  UNL     1      19.348   3.404  46.983  1.00  0.00    -0.035 P 
HETATM   31  H19 UNL     1      18.004   3.105  47.383  1.00  0.00     0.077 HD
HETATM   32  H20 UNL     1      19.856   2.297  46.190  1.00  0.00     0.077 HD
ENDBRANCH   8  30
TORSDOF 7
ENDMDL
MODEL 9
REMARK VINA RESULT:      -7.3      3.756      7.905
REMARK  7 active torsions:
REMARK  status: ('A' for Active; 'I' for Inactive)
REMARK    1  A    between atoms: N1_2  and  C3_4 
REMARK    2  A    between atoms: C3_4  and  C4_5 
REMARK    3  A    between atoms: C5_6  and  C6_7 
REMARK       I    between atoms: C6_7  and  N2_9 
REMARK    4  A    between atoms: N2_9  and  C7_10 
REMARK    5  A    between atoms: C13_16  and  N3_17 
REMARK    6  A    between atoms: N3_17  and  C14_18 
REMARK    7  A    between atoms: N4_25  and  P1_26 
ROOT
HETATM    1  C7  UNL     1      28.100   5.832  48.506  1.00  0.00     0.036 A 
HETATM    2  C8  UNL     1      27.095   6.635  48.012  1.00  0.00     0.032 A 
HETATM    3  C9  UNL     1      27.467   7.740  47.273  1.00  0.00     0.034 A 
HETATM    4  C10 UNL     1      28.780   8.055  47.021  1.00  0.00     0.068 A 
HETATM    5  C11 UNL     1      29.800   7.272  47.501  1.00  0.00     0.015 A 
HETATM    6  C12 UNL     1      29.441   6.143  48.254  1.00  0.00     0.043 A 
HETATM    7  C13 UNL     1      31.285   7.287  47.443  1.00  0.00     0.225 A 
HETATM    8  N4  UNL     1      31.610   8.480  46.637  1.00  0.00    -0.329 N 
HETATM    9  C20 UNL     1      30.563   9.321  46.121  1.00  0.00     0.211 A 
HETATM   10  N5  UNL     1      29.290   9.152  46.279  1.00  0.00    -0.243 NA
ENDROOT
BRANCH   1  11
HETATM   11  N2  UNL     1      27.631   4.716  49.254  1.00  0.00    -0.316 N 
HETATM   12  C6  UNL     1      26.379   4.112  49.566  1.00  0.00     0.301 C 
HETATM   13  O1  UNL     1      25.286   4.584  49.128  1.00  0.00    -0.258 OA
HETATM   14  H9  UNL     1      28.541   4.317  49.623  1.00  0.00     0.170 HD
BRANCH  12  15
HETATM   15  C5  UNL     1      26.439   2.943  50.401  1.00  0.00    -0.004 C 
HETATM   16  C4  UNL     1      26.492   1.964  51.123  1.00  0.00    -0.066 C 
BRANCH  16  17
HETATM   17  C3  UNL     1      26.550   0.785  52.010  1.00  0.00     0.365 C 
BRANCH  17  18
HETATM   18  N1  UNL     1      25.608   0.962  53.102  1.00  0.00     0.090 N 
HETATM   19  C1  UNL     1      24.267   1.028  52.593  1.00  0.00     0.310 C 
HETATM   20  C2  UNL     1      26.004   2.150  53.818  1.00  0.00     0.310 C 
ENDBRANCH  17  18
ENDBRANCH  16  17
ENDBRANCH  12  15
ENDBRANCH   1  11
BRANCH   7  21
HETATM   21  N3  UNL     1      31.710   6.171  46.585  1.00  0.00    -0.364 N 
HETATM   22  H14 UNL     1      31.324   6.135  45.594  1.00  0.00     0.162 HD
BRANCH  21  23
HETATM   23  C14 UNL     1      32.584   5.069  46.832  1.00  0.00     0.031 A 
HETATM   24  C15 UNL     1      33.923   5.176  47.162  1.00  0.00     0.029 A 
HETATM   25  C16 UNL     1      34.644   4.023  47.348  1.00  0.00     0.004 A 
HETATM   26  C17 UNL     1      34.148   2.751  47.232  1.00  0.00     0.019 A 
HETATM   27  C18 UNL     1      32.802   2.645  46.901  1.00  0.00     0.013 A 
HETATM   28 BR1  UNL     1      32.125   0.869  46.744  1.00  0.00    -0.051 Br
HETATM   29  C19 UNL     1      32.055   3.787  46.709  1.00  0.00     0.048 A 
ENDBRANCH  21  23
ENDBRANCH   7  21
BRANCH   8  30
HETATM   30  P1  UNL     1      33.158   9.197  46.090  1.00  0.00    -0.035 P 
HETATM   31  H19 UNL     1      34.315   8.497  46.567  1.00  0.00     0.077 HD
HETATM   32  H20 UNL     1      33.210  10.567  46.571  1.00  0.00     0.077 HD
ENDBRANCH   8  30
TORSDOF 7
ENDMDL
