MODEL 1
REMARK VINA RESULT:      -8.2      0.000      0.000
REMARK  5 active torsions:
REMARK  status: ('A' for Active; 'I' for Inactive)
REMARK    1  A    between atoms: C4_5  and  N1_6 
REMARK    2  A    between atoms: C8_10  and  P1_11 
REMARK    3  A    between atoms: P1_11  and  C9_12 
REMARK    4  A    between atoms: C9_12  and  C10_13 
REMARK    5  A    between atoms: C10_13  and  N2_14 
ROOT
HETATM    1  N1  UNL     1      25.074   0.763  53.301  1.00  0.00     0.078 N 
HETATM    2  C5  UNL     1      23.732   0.877  53.117  1.00  0.00     0.240 A 
HETATM    3  C6  UNL     1      22.558   1.035  53.104  1.00  0.00     0.055 C 
HETATM    4  C7  UNL     1      21.168   1.135  52.884  1.00  0.00     0.011 C 
HETATM    5  C8  UNL     1      20.589   0.671  51.774  1.00  0.00    -0.052 C 
HETATM    6  C14 UNL     1      21.519   0.248  50.682  1.00  0.00     0.066 C 
HETATM    7  C15 UNL     1      21.211   1.085  49.476  1.00  0.00    -0.021 C 
HETATM    8  C16 UNL     1      22.174   2.031  49.285  1.00  0.00     0.015 C 
HETATM    9  C17 UNL     1      23.313   2.159  50.170  1.00  0.00     0.117 C 
HETATM   10  N4  UNL     1      23.900   1.644  51.230  1.00  0.00    -0.260 NA
HETATM   11  C18 UNL     1      25.138   2.317  51.677  1.00  0.00     0.214 C 
HETATM   12  N5  UNL     1      24.881   1.789  52.808  1.00  0.00    -0.032 NA
HETATM   13  H3  UNL     1      24.726  -0.292  53.501  1.00  0.00     0.319 HD
ENDROOT
BRANCH   1  14
HETATM   14  C4  UNL     1      26.452   0.652  53.489  1.00  0.00     0.163 A 
HETATM   15  C3  UNL     1      27.177   1.755  53.752  1.00  0.00     0.043 A 
HETATM   16  C2  UNL     1      28.392   1.317  53.737  1.00  0.00     0.046 A 
HETATM   17  C1  UNL     1      29.075   0.232  53.563  1.00  0.00     0.138 A 
HETATM   18  F1  UNL     1      30.327  -0.200  53.490  1.00  0.00    -0.204 F 
HETATM   19  C20 UNL     1      28.144  -0.820  53.299  1.00  0.00     0.074 A 
HETATM   20  C19 UNL     1      26.679  -0.723  53.232  1.00  0.00     0.066 A 
HETATM   21 CL1  UNL     1      28.767  -2.484  52.961  1.00  0.00    -0.081 Cl
ENDBRANCH   1  14
BRANCH   5  22
HETATM   22  P1  UNL     1      18.794   0.677  51.345  1.00  0.00    -0.097 P 
HETATM   23  H6  UNL     1      18.752   0.353  49.856  1.00  0.00     0.062 HD
BRANCH  22  24
HETATM   24  C9  UNL     1      18.045   2.340  51.580  1.00  0.00     0.056 C 
BRANCH  24  25
HETATM   25  C10 UNL     1      18.617   3.425  50.709  1.00  0.00     0.134 C 
BRANCH  25  26
HETATM   26  N2  UNL     1      19.763   4.073  51.113  1.00  0.00    -0.350 N 
HETATM   27  C11 UNL     1      20.911   4.536  51.668  1.00  0.00     0.111 A 
HETATM   28  C12 UNL     1      21.708   5.502  51.113  1.00  0.00     0.135 A 
HETATM   29  N3  UNL     1      21.004   5.770  49.969  1.00  0.00    -0.255 NA
HETATM   30  C13 UNL     1      19.919   4.946  50.000  1.00  0.00     0.209 A 
ENDBRANCH  25  26
ENDBRANCH  24  25
ENDBRANCH  22  24
ENDBRANCH   5  22
TORSDOF 5
ENDMDL
MODEL 2
REMARK VINA RESULT:      -8.1      2.027      3.117
REMARK  5 active torsions:
REMARK  status: ('A' for Active; 'I' for Inactive)
REMARK    1  A    between atoms: C4_5  and  N1_6 
REMARK    2  A    between atoms: C8_10  and  P1_11 
REMARK    3  A    between atoms: P1_11  and  C9_12 
REMARK    4  A    between atoms: C9_12  and  C10_13 
REMARK    5  A    between atoms: C10_13  and  N2_14 
ROOT
HETATM    1  N1  UNL     1      26.025   1.555  53.174  1.00  0.00     0.078 N 
HETATM    2  C5  UNL     1      24.836   2.151  52.890  1.00  0.00     0.240 A 
HETATM    3  C6  UNL     1      23.818   2.744  52.780  1.00  0.00     0.055 C 
HETATM    4  C7  UNL     1      22.580   3.341  52.459  1.00  0.00     0.011 C 
HETATM    5  C8  UNL     1      21.882   2.989  51.377  1.00  0.00    -0.052 C 
HETATM    6  C14 UNL     1      22.589   2.097  50.406  1.00  0.00     0.066 C 
HETATM    7  C15 UNL     1      22.649   2.817  49.091  1.00  0.00    -0.021 C 
HETATM    8  C16 UNL     1      23.907   3.285  48.853  1.00  0.00     0.015 C 
HETATM    9  C17 UNL     1      24.993   3.083  49.790  1.00  0.00     0.117 C 
HETATM   10  N4  UNL     1      25.317   2.531  50.940  1.00  0.00    -0.260 NA
HETATM   11  C18 UNL     1      26.714   2.729  51.384  1.00  0.00     0.214 C 
HETATM   12  N5  UNL     1      26.254   2.499  52.550  1.00  0.00    -0.032 NA
HETATM   13  H3  UNL     1      25.290   0.753  53.475  1.00  0.00     0.319 HD
ENDROOT
BRANCH   1  14
HETATM   14  C4  UNL     1      27.248   0.949  53.464  1.00  0.00     0.163 A 
HETATM   15  C3  UNL     1      28.286   1.706  53.864  1.00  0.00     0.043 A 
HETATM   16  C2  UNL     1      29.261   0.862  53.915  1.00  0.00     0.046 A 
HETATM   17  C1  UNL     1      29.530  -0.389  53.719  1.00  0.00     0.138 A 
HETATM   18  F1  UNL     1      30.549  -1.239  53.717  1.00  0.00    -0.204 F 
HETATM   19  C20 UNL     1      28.318  -1.025  53.306  1.00  0.00     0.074 A 
HETATM   20  C19 UNL     1      26.997  -0.404  53.128  1.00  0.00     0.066 A 
HETATM   21 CL1  UNL     1      28.342  -2.787  52.900  1.00  0.00    -0.081 Cl
ENDBRANCH   1  14
BRANCH   5  22
HETATM   22  P1  UNL     1      20.237   3.628  50.833  1.00  0.00    -0.097 P 
HETATM   23  H6  UNL     1      20.216   5.080  51.296  1.00  0.00     0.062 HD
BRANCH  22  24
HETATM   24  C9  UNL     1      18.857   2.749  51.671  1.00  0.00     0.056 C 
BRANCH  24  25
HETATM   25  C10 UNL     1      18.863   1.253  51.513  1.00  0.00     0.134 C 
BRANCH  25  26
HETATM   26  N2  UNL     1      19.659   0.496  52.345  1.00  0.00    -0.350 N 
HETATM   27  C11 UNL     1      20.589  -0.064  53.158  1.00  0.00     0.111 A 
HETATM   28  C12 UNL     1      20.378  -1.180  53.925  1.00  0.00     0.135 A 
HETATM   29  N3  UNL     1      19.077  -1.457  53.600  1.00  0.00    -0.255 NA
HETATM   30  C13 UNL     1      18.703  -0.493  52.712  1.00  0.00     0.209 A 
ENDBRANCH  25  26
ENDBRANCH  24  25
ENDBRANCH  22  24
ENDBRANCH   5  22
TORSDOF 5
ENDMDL
MODEL 3
REMARK VINA RESULT:      -8.1      1.789      2.506
REMARK  5 active torsions:
REMARK  status: ('A' for Active; 'I' for Inactive)
REMARK    1  A    between atoms: C4_5  and  N1_6 
REMARK    2  A    between atoms: C8_10  and  P1_11 
REMARK    3  A    between atoms: P1_11  and  C9_12 
REMARK    4  A    between atoms: C9_12  and  C10_13 
REMARK    5  A    between atoms: C10_13  and  N2_14 
ROOT
HETATM    1  N1  UNL     1      25.098   0.668  53.387  1.00  0.00     0.078 N 
HETATM    2  C5  UNL     1      23.749   0.708  53.225  1.00  0.00     0.240 A 
HETATM    3  C6  UNL     1      22.568   0.793  53.234  1.00  0.00     0.055 C 
HETATM    4  C7  UNL     1      21.172   0.819  53.036  1.00  0.00     0.011 C 
HETATM    5  C8  UNL     1      20.606   0.386  51.906  1.00  0.00    -0.052 C 
HETATM    6  C14 UNL     1      21.545   0.089  50.779  1.00  0.00     0.066 C 
HETATM    7  C15 UNL     1      21.168   0.977  49.630  1.00  0.00    -0.021 C 
HETATM    8  C16 UNL     1      22.067   1.992  49.488  1.00  0.00     0.015 C 
HETATM    9  C17 UNL     1      23.209   2.137  50.366  1.00  0.00     0.117 C 
HETATM   10  N4  UNL     1      23.842   1.597  51.387  1.00  0.00    -0.260 NA
HETATM   11  C18 UNL     1      25.043   2.318  51.860  1.00  0.00     0.214 C 
HETATM   12  N5  UNL     1      24.835   1.707  52.959  1.00  0.00    -0.032 NA
HETATM   13  H3  UNL     1      24.819  -0.417  53.526  1.00  0.00     0.319 HD
ENDROOT
BRANCH   1  14
HETATM   14  C4  UNL     1      26.483   0.633  53.553  1.00  0.00     0.163 A 
HETATM   15  C3  UNL     1      27.152   1.775  53.795  1.00  0.00     0.043 A 
HETATM   16  C2  UNL     1      28.388   1.403  53.763  1.00  0.00     0.046 A 
HETATM   17  C1  UNL     1      29.126   0.354  53.586  1.00  0.00     0.138 A 
HETATM   18  F1  UNL     1      30.398  -0.010  53.497  1.00  0.00    -0.204 F 
HETATM   19  C20 UNL     1      28.249  -0.749  53.348  1.00  0.00     0.074 A 
HETATM   20  C19 UNL     1      26.779  -0.730  53.304  1.00  0.00     0.066 A 
HETATM   21 CL1  UNL     1      28.954  -2.380  53.014  1.00  0.00    -0.081 Cl
ENDBRANCH   1  14
BRANCH   5  22
HETATM   22  P1  UNL     1      18.808   0.306  51.498  1.00  0.00    -0.097 P 
HETATM   23  H6  UNL     1      18.740  -0.520  50.218  1.00  0.00     0.062 HD
BRANCH  22  24
HETATM   24  C9  UNL     1      18.120   1.971  51.130  1.00  0.00     0.056 C 
BRANCH  24  25
HETATM   25  C10 UNL     1      16.661   1.992  50.764  1.00  0.00     0.134 C 
BRANCH  25  26
HETATM   26  N2  UNL     1      15.757   2.534  51.650  1.00  0.00    -0.350 N 
HETATM   27  C11 UNL     1      14.770   2.852  52.525  1.00  0.00     0.111 A 
HETATM   28  C12 UNL     1      14.747   3.989  53.289  1.00  0.00     0.135 A 
HETATM   29  N3  UNL     1      15.917   4.577  52.887  1.00  0.00    -0.255 NA
HETATM   30  C13 UNL     1      16.460   3.730  51.968  1.00  0.00     0.209 A 
ENDBRANCH  25  26
ENDBRANCH  24  25
ENDBRANCH  22  24
ENDBRANCH   5  22
TORSDOF 5
ENDMDL
MODEL 4
REMARK VINA RESULT:      -8.1      2.163      2.743
REMARK  5 active torsions:
REMARK  status: ('A' for Active; 'I' for Inactive)
REMARK    1  A    between atoms: C4_5  and  N1_6 
REMARK    2  A    between atoms: C8_10  and  P1_11 
REMARK    3  A    between atoms: P1_11  and  C9_12 
REMARK    4  A    between atoms: C9_12  and  C10_13 
REMARK    5  A    between atoms: C10_13  and  N2_14 
ROOT
HETATM    1  N1  UNL     1      26.179   1.750  53.258  1.00  0.00     0.078 N 
HETATM    2  C5  UNL     1      25.054   2.465  52.990  1.00  0.00     0.240 A 
HETATM    3  C6  UNL     1      24.111   3.172  52.883  1.00  0.00     0.055 C 
HETATM    4  C7  UNL     1      22.935   3.890  52.580  1.00  0.00     0.011 C 
HETATM    5  C8  UNL     1      22.116   3.527  51.589  1.00  0.00    -0.052 C 
HETATM    6  C14 UNL     1      22.630   2.459  50.677  1.00  0.00     0.066 C 
HETATM    7  C15 UNL     1      22.676   3.031  49.291  1.00  0.00    -0.021 C 
HETATM    8  C16 UNL     1      23.959   3.306  48.923  1.00  0.00     0.015 C 
HETATM    9  C17 UNL     1      25.082   3.057  49.803  1.00  0.00     0.117 C 
HETATM   10  N4  UNL     1      25.425   2.585  50.983  1.00  0.00    -0.260 NA
HETATM   11  C18 UNL     1      26.865   2.642  51.311  1.00  0.00     0.214 C 
HETATM   12  N5  UNL     1      26.473   2.590  52.523  1.00  0.00    -0.032 NA
HETATM   13  H3  UNL     1      25.377   1.084  53.691  1.00  0.00     0.319 HD
ENDROOT
BRANCH   1  14
HETATM   14  C4  UNL     1      27.338   1.022  53.532  1.00  0.00     0.163 A 
HETATM   15  C3  UNL     1      28.436   1.663  53.973  1.00  0.00     0.043 A 
HETATM   16  C2  UNL     1      29.329   0.730  53.996  1.00  0.00     0.046 A 
HETATM   17  C1  UNL     1      29.483  -0.531  53.748  1.00  0.00     0.138 A 
HETATM   18  F1  UNL     1      30.419  -1.470  53.718  1.00  0.00    -0.204 F 
HETATM   19  C20 UNL     1      28.224  -1.034  53.299  1.00  0.00     0.074 A 
HETATM   20  C19 UNL     1      26.968  -0.287  53.136  1.00  0.00     0.066 A 
HETATM   21 CL1  UNL     1      28.090  -2.772  52.817  1.00  0.00    -0.081 Cl
ENDBRANCH   1  14
BRANCH   5  22
HETATM   22  P1  UNL     1      20.525   4.317  51.088  1.00  0.00    -0.097 P 
HETATM   23  H6  UNL     1      19.859   3.295  50.173  1.00  0.00     0.062 HD
BRANCH  22  24
HETATM   24  C9  UNL     1      20.806   5.848  50.110  1.00  0.00     0.056 C 
BRANCH  24  25
HETATM   25  C10 UNL     1      21.524   6.949  50.841  1.00  0.00     0.134 C 
BRANCH  25  26
HETATM   26  N2  UNL     1      22.901   6.970  50.833  1.00  0.00    -0.350 N 
HETATM   27  C11 UNL     1      24.239   6.946  51.057  1.00  0.00     0.111 A 
HETATM   28  C12 UNL     1      25.189   6.870  50.072  1.00  0.00     0.135 A 
HETATM   29  N3  UNL     1      24.388   6.834  48.962  1.00  0.00    -0.255 NA
HETATM   30  C13 UNL     1      23.108   6.888  49.427  1.00  0.00     0.209 A 
ENDBRANCH  25  26
ENDBRANCH  24  25
ENDBRANCH  22  24
ENDBRANCH   5  22
TORSDOF 5
ENDMDL
MODEL 5
REMARK VINA RESULT:      -8.0      5.711      7.895
REMARK  5 active torsions:
REMARK  status: ('A' for Active; 'I' for Inactive)
REMARK    1  A    between atoms: C4_5  and  N1_6 
REMARK    2  A    between atoms: C8_10  and  P1_11 
REMARK    3  A    between atoms: P1_11  and  C9_12 
REMARK    4  A    between atoms: C9_12  and  C10_13 
REMARK    5  A    between atoms: C10_13  and  N2_14 
ROOT
HETATM    1  N1  UNL     1      26.104   2.985  50.849  1.00  0.00     0.078 N 
HETATM    2  C5  UNL     1      26.662   3.883  49.994  1.00  0.00     0.240 A 
HETATM    3  C6  UNL     1      27.240   4.546  49.202  1.00  0.00     0.055 C 
HETATM    4  C7  UNL     1      27.802   5.502  48.330  1.00  0.00     0.011 C 
HETATM    5  C8  UNL     1      27.443   6.789  48.360  1.00  0.00    -0.052 C 
HETATM    6  C14 UNL     1      26.254   7.114  49.208  1.00  0.00     0.066 C 
HETATM    7  C15 UNL     1      25.214   7.722  48.314  1.00  0.00    -0.021 C 
HETATM    8  C16 UNL     1      24.207   6.836  48.070  1.00  0.00     0.015 C 
HETATM    9  C17 UNL     1      24.207   5.500  48.629  1.00  0.00     0.117 C 
HETATM   10  N4  UNL     1      24.869   4.672  49.410  1.00  0.00    -0.260 NA
HETATM   11  C18 UNL     1      24.289   3.321  49.564  1.00  0.00     0.214 C 
HETATM   12  N5  UNL     1      25.474   2.975  49.882  1.00  0.00    -0.032 NA
HETATM   13  H3  UNL     1      26.819   3.534  51.529  1.00  0.00     0.319 HD
ENDROOT
BRANCH   1  14
HETATM   14  C4  UNL     1      25.528   2.061  51.722  1.00  0.00     0.163 A 
HETATM   15  C3  UNL     1      24.489   2.434  52.493  1.00  0.00     0.043 A 
HETATM   16  C2  UNL     1      24.301   1.403  53.247  1.00  0.00     0.046 A 
HETATM   17  C1  UNL     1      24.763   0.215  53.473  1.00  0.00     0.138 A 
HETATM   18  F1  UNL     1      24.601  -0.818  54.290  1.00  0.00    -0.204 F 
HETATM   19  C20 UNL     1      25.847  -0.000  52.568  1.00  0.00     0.074 A 
HETATM   20  C19 UNL     1      26.367   0.932  51.556  1.00  0.00     0.066 A 
HETATM   21 CL1  UNL     1      26.761  -1.560  52.641  1.00  0.00    -0.081 Cl
ENDBRANCH   1  14
BRANCH   5  22
HETATM   22  P1  UNL     1      28.102   8.173  47.332  1.00  0.00    -0.097 P 
HETATM   23  H6  UNL     1      28.645   7.497  46.078  1.00  0.00     0.062 HD
BRANCH  22  24
HETATM   24  C9  UNL     1      29.504   9.027  48.162  1.00  0.00     0.056 C 
BRANCH  24  25
HETATM   25  C10 UNL     1      30.533   8.116  48.773  1.00  0.00     0.134 C 
BRANCH  25  26
HETATM   26  N2  UNL     1      31.034   7.074  48.024  1.00  0.00    -0.350 N 
HETATM   27  C11 UNL     1      31.544   6.208  47.114  1.00  0.00     0.111 A 
HETATM   28  C12 UNL     1      32.045   4.969  47.417  1.00  0.00     0.135 A 
HETATM   29  N3  UNL     1      31.858   4.955  48.773  1.00  0.00    -0.255 NA
HETATM   30  C13 UNL     1      31.290   6.156  49.081  1.00  0.00     0.209 A 
ENDBRANCH  25  26
ENDBRANCH  24  25
ENDBRANCH  22  24
ENDBRANCH   5  22
TORSDOF 5
ENDMDL
MODEL 6
REMARK VINA RESULT:      -8.0      3.018      4.212
REMARK  5 active torsions:
REMARK  status: ('A' for Active; 'I' for Inactive)
REMARK    1  A    between atoms: C4_5  and  N1_6 
REMARK    2  A    between atoms: C8_10  and  P1_11 
REMARK    3  A    between atoms: P1_11  and  C9_12 
REMARK    4  A    between atoms: C9_12  and  C10_13 
REMARK    5  A    between atoms: C10_13  and  N2_14 
ROOT
HETATM    1  N1  UNL     1      25.162   0.857  53.258  1.00  0.00     0.078 N 
HETATM    2  C5  UNL     1      23.825   1.037  53.091  1.00  0.00     0.240 A 
HETATM    3  C6  UNL     1      22.660   1.248  53.093  1.00  0.00     0.055 C 
HETATM    4  C7  UNL     1      21.274   1.417  52.891  1.00  0.00     0.011 C 
HETATM    5  C8  UNL     1      20.665   1.017  51.771  1.00  0.00    -0.052 C 
HETATM    6  C14 UNL     1      21.567   0.590  50.656  1.00  0.00     0.066 C 
HETATM    7  C15 UNL     1      21.288   1.480  49.482  1.00  0.00    -0.021 C 
HETATM    8  C16 UNL     1      22.290   2.389  49.314  1.00  0.00     0.015 C 
HETATM    9  C17 UNL     1      23.441   2.435  50.192  1.00  0.00     0.117 C 
HETATM   10  N4  UNL     1      24.012   1.860  51.229  1.00  0.00    -0.260 NA
HETATM   11  C18 UNL     1      25.283   2.461  51.686  1.00  0.00     0.214 C 
HETATM   12  N5  UNL     1      25.011   1.907  52.801  1.00  0.00    -0.032 NA
HETATM   13  H3  UNL     1      24.768  -0.188  53.426  1.00  0.00     0.319 HD
ENDROOT
BRANCH   1  14
HETATM   14  C4  UNL     1      26.535   0.679  53.429  1.00  0.00     0.163 A 
HETATM   15  C3  UNL     1      27.320   1.747  53.659  1.00  0.00     0.043 A 
HETATM   16  C2  UNL     1      28.510   1.247  53.636  1.00  0.00     0.046 A 
HETATM   17  C1  UNL     1      29.134   0.124  53.475  1.00  0.00     0.138 A 
HETATM   18  F1  UNL     1      30.361  -0.374  53.395  1.00  0.00    -0.204 F 
HETATM   19  C20 UNL     1      28.146  -0.884  53.248  1.00  0.00     0.074 A 
HETATM   20  C19 UNL     1      26.686  -0.711  53.199  1.00  0.00     0.066 A 
HETATM   21 CL1  UNL     1      28.676  -2.585  52.937  1.00  0.00    -0.081 Cl
ENDBRANCH   1  14
BRANCH   5  22
HETATM   22  P1  UNL     1      18.869   1.118  51.360  1.00  0.00    -0.097 P 
HETATM   23  H6  UNL     1      18.281   2.036  52.425  1.00  0.00     0.062 HD
BRANCH  22  24
HETATM   24  C9  UNL     1      18.045  -0.519  51.511  1.00  0.00     0.056 C 
BRANCH  24  25
HETATM   25  C10 UNL     1      17.598  -0.882  52.901  1.00  0.00     0.134 C 
BRANCH  25  26
HETATM   26  N2  UNL     1      17.409  -2.210  53.217  1.00  0.00    -0.350 N 
HETATM   27  C11 UNL     1      17.408  -3.487  53.673  1.00  0.00     0.111 A 
HETATM   28  C12 UNL     1      16.379  -4.374  53.495  1.00  0.00     0.135 A 
HETATM   29  N3  UNL     1      15.501  -3.592  52.793  1.00  0.00    -0.255 NA
HETATM   30  C13 UNL     1      16.112  -2.381  52.658  1.00  0.00     0.209 A 
ENDBRANCH  25  26
ENDBRANCH  24  25
ENDBRANCH  22  24
ENDBRANCH   5  22
TORSDOF 5
ENDMDL
MODEL 7
REMARK VINA RESULT:      -7.9      3.656      5.064
REMARK  5 active torsions:
REMARK  status: ('A' for Active; 'I' for Inactive)
REMARK    1  A    between atoms: C4_5  and  N1_6 
REMARK    2  A    between atoms: C8_10  and  P1_11 
REMARK    3  A    between atoms: P1_11  and  C9_12 
REMARK    4  A    between atoms: C9_12  and  C10_13 
REMARK    5  A    between atoms: C10_13  and  N2_14 
ROOT
HETATM    1  N1  UNL     1      26.479   2.220  51.585  1.00  0.00     0.078 N 
HETATM    2  C5  UNL     1      25.718   2.905  50.690  1.00  0.00     0.240 A 
HETATM    3  C6  UNL     1      25.073   3.376  49.816  1.00  0.00     0.055 C 
HETATM    4  C7  UNL     1      24.286   4.114  48.907  1.00  0.00     0.011 C 
HETATM    5  C8  UNL     1      23.897   5.367  49.159  1.00  0.00    -0.052 C 
HETATM    6  C14 UNL     1      24.146   5.860  50.549  1.00  0.00     0.066 C 
HETATM    7  C15 UNL     1      22.819   6.228  51.143  1.00  0.00    -0.021 C 
HETATM    8  C16 UNL     1      22.419   5.294  52.052  1.00  0.00     0.015 C 
HETATM    9  C17 UNL     1      23.217   4.123  52.352  1.00  0.00     0.117 C 
HETATM   10  N4  UNL     1      24.350   3.509  52.083  1.00  0.00    -0.260 NA
HETATM   11  C18 UNL     1      24.570   2.221  52.773  1.00  0.00     0.214 C 
HETATM   12  N5  UNL     1      25.375   1.976  51.816  1.00  0.00    -0.032 NA
HETATM   13  H3  UNL     1      27.237   2.923  51.131  1.00  0.00     0.319 HD
ENDROOT
BRANCH   1  14
HETATM   14  C4  UNL     1      27.255   1.514  52.504  1.00  0.00     0.163 A 
HETATM   15  C3  UNL     1      28.069   2.185  53.341  1.00  0.00     0.043 A 
HETATM   16  C2  UNL     1      28.712   1.240  53.942  1.00  0.00     0.046 A 
HETATM   17  C1  UNL     1      28.809  -0.050  53.989  1.00  0.00     0.138 A 
HETATM   18  F1  UNL     1      29.515  -1.012  54.568  1.00  0.00    -0.204 F 
HETATM   19  C20 UNL     1      27.878  -0.581  53.044  1.00  0.00     0.074 A 
HETATM   20  C19 UNL     1      26.965   0.169  52.167  1.00  0.00     0.066 A 
HETATM   21 CL1  UNL     1      27.780  -2.372  52.814  1.00  0.00    -0.081 Cl
ENDBRANCH   1  14
BRANCH   5  22
HETATM   22  P1  UNL     1      22.911   6.487  48.072  1.00  0.00    -0.097 P 
HETATM   23  H6  UNL     1      22.739   5.709  46.772  1.00  0.00     0.062 HD
BRANCH  22  24
HETATM   24  C9  UNL     1      23.825   8.034  47.684  1.00  0.00     0.056 C 
BRANCH  24  25
HETATM   25  C10 UNL     1      25.278   7.848  47.341  1.00  0.00     0.134 C 
BRANCH  25  26
HETATM   26  N2  UNL     1      26.232   8.131  48.293  1.00  0.00    -0.350 N 
HETATM   27  C11 UNL     1      27.317   8.285  49.093  1.00  0.00     0.111 A 
HETATM   28  C12 UNL     1      27.405   9.194  50.115  1.00  0.00     0.135 A 
HETATM   29  N3  UNL     1      26.174   9.785  50.023  1.00  0.00    -0.255 NA
HETATM   30  C13 UNL     1      25.542   9.165  48.986  1.00  0.00     0.209 A 
ENDBRANCH  25  26
ENDBRANCH  24  25
ENDBRANCH  22  24
ENDBRANCH   5  22
TORSDOF 5
ENDMDL
MODEL 8
REMARK VINA RESULT:      -7.9      4.330      6.417
REMARK  5 active torsions:
REMARK  status: ('A' for Active; 'I' for Inactive)
REMARK    1  A    between atoms: C4_5  and  N1_6 
REMARK    2  A    between atoms: C8_10  and  P1_11 
REMARK    3  A    between atoms: P1_11  and  C9_12 
REMARK    4  A    between atoms: C9_12  and  C10_13 
REMARK    5  A    between atoms: C10_13  and  N2_14 
ROOT
HETATM    1  N1  UNL     1      25.138   4.999  50.281  1.00  0.00     0.078 N 
HETATM    2  C5  UNL     1      24.188   4.335  50.991  1.00  0.00     0.240 A 
HETATM    3  C6  UNL     1      23.349   3.887  51.697  1.00  0.00     0.055 C 
HETATM    4  C7  UNL     1      22.371   3.168  52.416  1.00  0.00     0.011 C 
HETATM    5  C8  UNL     1      22.094   1.888  52.155  1.00  0.00    -0.052 C 
HETATM    6  C14 UNL     1      22.711   1.328  50.913  1.00  0.00     0.066 C 
HETATM    7  C15 UNL     1      21.596   0.871  50.020  1.00  0.00    -0.021 C 
HETATM    8  C16 UNL     1      21.424   1.735  48.979  1.00  0.00     0.015 C 
HETATM    9  C17 UNL     1      22.242   2.919  48.820  1.00  0.00     0.117 C 
HETATM   10  N4  UNL     1      23.248   3.595  49.333  1.00  0.00    -0.260 NA
HETATM   11  C18 UNL     1      23.608   4.850  48.640  1.00  0.00     0.214 C 
HETATM   12  N5  UNL     1      24.127   5.183  49.756  1.00  0.00    -0.032 NA
HETATM   13  H3  UNL     1      25.769   4.356  50.962  1.00  0.00     0.319 HD
ENDROOT
BRANCH   1  14
HETATM   14  C4  UNL     1      26.109   5.684  49.550  1.00  0.00     0.163 A 
HETATM   15  C3  UNL     1      27.005   4.992  48.822  1.00  0.00     0.043 A 
HETATM   16  C2  UNL     1      27.807   5.909  48.397  1.00  0.00     0.046 A 
HETATM   17  C1  UNL     1      28.003   7.188  48.447  1.00  0.00     0.138 A 
HETATM   18  F1  UNL     1      28.864   8.117  48.055  1.00  0.00    -0.204 F 
HETATM   19  C20 UNL     1      26.963   7.746  49.253  1.00  0.00     0.074 A 
HETATM   20  C19 UNL     1      25.863   7.031  49.916  1.00  0.00     0.066 A 
HETATM   21 CL1  UNL     1      26.955   9.526  49.573  1.00  0.00    -0.081 Cl
ENDBRANCH   1  14
BRANCH   5  22
HETATM   22  P1  UNL     1      20.888   0.791  53.020  1.00  0.00    -0.097 P 
HETATM   23  H6  UNL     1      20.620   1.486  54.350  1.00  0.00     0.062 HD
BRANCH  22  24
HETATM   24  C9  UNL     1      21.612  -0.860  53.383  1.00  0.00     0.056 C 
BRANCH  24  25
HETATM   25  C10 UNL     1      22.731  -0.858  54.388  1.00  0.00     0.134 C 
BRANCH  25  26
HETATM   26  N2  UNL     1      23.993  -0.480  53.983  1.00  0.00    -0.350 N 
HETATM   27  C11 UNL     1      25.121   0.025  53.426  1.00  0.00     0.111 A 
HETATM   28  C12 UNL     1      26.369  -0.062  53.984  1.00  0.00     0.135 A 
HETATM   29  N3  UNL     1      26.075  -0.746  55.133  1.00  0.00    -0.255 NA
HETATM   30  C13 UNL     1      24.729  -0.962  55.101  1.00  0.00     0.209 A 
ENDBRANCH  25  26
ENDBRANCH  24  25
ENDBRANCH  22  24
ENDBRANCH   5  22
TORSDOF 5
ENDMDL
MODEL 9
REMARK VINA RESULT:      -7.7      6.687      8.994
REMARK  5 active torsions:
REMARK  status: ('A' for Active; 'I' for Inactive)
REMARK    1  A    between atoms: C4_5  and  N1_6 
REMARK    2  A    between atoms: C8_10  and  P1_11 
REMARK    3  A    between atoms: P1_11  and  C9_12 
REMARK    4  A    between atoms: C9_12  and  C10_13 
REMARK    5  A    between atoms: C10_13  and  N2_14 
ROOT
HETATM    1  N1  UNL     1      24.293   4.483  50.029  1.00  0.00     0.078 N 
HETATM    2  C5  UNL     1      24.999   5.644  50.007  1.00  0.00     0.240 A 
HETATM    3  C6  UNL     1      25.565   6.677  50.136  1.00  0.00     0.055 C 
HETATM    4  C7  UNL     1      26.303   7.878  50.079  1.00  0.00     0.011 C 
HETATM    5  C8  UNL     1      26.904   8.290  48.960  1.00  0.00    -0.052 C 
HETATM    6  C14 UNL     1      26.943   7.301  47.838  1.00  0.00     0.066 C 
HETATM    7  C15 UNL     1      28.384   7.046  47.510  1.00  0.00    -0.021 C 
HETATM    8  C16 UNL     1      28.778   5.826  47.974  1.00  0.00     0.015 C 
HETATM    9  C17 UNL     1      27.874   4.945  48.684  1.00  0.00     0.117 C 
HETATM   10  N4  UNL     1      26.637   4.810  49.112  1.00  0.00    -0.260 NA
HETATM   11  C18 UNL     1      26.340   3.569  49.858  1.00  0.00     0.214 C 
HETATM   12  N5  UNL     1      25.372   4.234  50.353  1.00  0.00    -0.032 NA
HETATM   13  H3  UNL     1      23.584   5.171  49.482  1.00  0.00     0.319 HD
ENDROOT
BRANCH   1  14
HETATM   14  C4  UNL     1      23.572   3.289  50.055  1.00  0.00     0.163 A 
HETATM   15  C3  UNL     1      22.989   2.839  48.928  1.00  0.00     0.043 A 
HETATM   16  C2  UNL     1      22.319   1.814  49.335  1.00  0.00     0.046 A 
HETATM   17  C1  UNL     1      22.055   1.134  50.405  1.00  0.00     0.138 A 
HETATM   18  F1  UNL     1      21.318   0.115  50.826  1.00  0.00    -0.204 F 
HETATM   19  C20 UNL     1      22.756   1.754  51.486  1.00  0.00     0.074 A 
HETATM   20  C19 UNL     1      23.623   2.940  51.428  1.00  0.00     0.066 A 
HETATM   21 CL1  UNL     1      22.575   1.081  53.155  1.00  0.00    -0.081 Cl
ENDBRANCH   1  14
BRANCH   5  22
HETATM   22  P1  UNL     1      27.864   9.845  48.696  1.00  0.00    -0.097 P 
HETATM   23  H6  UNL     1      28.154   9.869  47.200  1.00  0.00     0.062 HD
BRANCH  22  24
HETATM   24  C9  UNL     1      29.475   9.805  49.581  1.00  0.00     0.056 C 
BRANCH  24  25
HETATM   25  C10 UNL     1      30.686  10.006  48.711  1.00  0.00     0.134 C 
BRANCH  25  26
HETATM   26  N2  UNL     1      31.336   8.903  48.204  1.00  0.00    -0.350 N 
HETATM   27  C11 UNL     1      32.014   7.951  47.515  1.00  0.00     0.111 A 
HETATM   28  C12 UNL     1      32.510   6.799  48.066  1.00  0.00     0.135 A 
HETATM   29  N3  UNL     1      32.117   6.962  49.367  1.00  0.00    -0.255 NA
HETATM   30  C13 UNL     1      31.462   8.157  49.410  1.00  0.00     0.209 A 
ENDBRANCH  25  26
ENDBRANCH  24  25
ENDBRANCH  22  24
ENDBRANCH   5  22
TORSDOF 5
ENDMDL
