MODEL 1
REMARK VINA RESULT:      -6.9      0.000      0.000
REMARK  7 active torsions:
REMARK  status: ('A' for Active; 'I' for Inactive)
REMARK    1  A    between atoms: O1_2  and  C2_3 
REMARK    2  A    between atoms: C6_9  and  N3_10 
REMARK    3  A    between atoms: N3_10  and  C7_11 
REMARK    4  A    between atoms: C7_11  and  C8_12 
REMARK    5  A    between atoms: C9_13  and  C10_14 
REMARK    6  A    between atoms: C11_15  and  C12_16 
REMARK    7  A    between atoms: C15_20  and  O2_21 
ROOT
HETATM    1  C2  UNL     1      27.437   0.110  53.695  1.00  0.00     0.103 A 
HETATM    2  C3  UNL     1      27.750   0.976  52.663  1.00  0.00     0.072 A 
HETATM    3  C4  UNL     1      26.788   1.801  52.119  1.00  0.00     0.075 A 
HETATM    4  N1  UNL     1      27.106   2.648  51.106  1.00  0.00    -0.241 NA
HETATM    5  C5  UNL     1      26.120   3.444  50.602  1.00  0.00     0.235 A 
HETATM    6  N2  UNL     1      24.862   3.408  51.075  1.00  0.00    -0.224 NA
HETATM    7  C6  UNL     1      24.468   2.602  52.069  1.00  0.00     0.137 A 
HETATM    8  C13 UNL     1      25.481   1.810  52.562  1.00  0.00     0.041 A 
HETATM    9  C14 UNL     1      25.210   0.932  53.590  1.00  0.00     0.057 A 
HETATM   10  C15 UNL     1      26.140   0.090  54.164  1.00  0.00     0.102 A 
ENDROOT
BRANCH   7  11
HETATM   11  N3  UNL     1      23.140   2.589  52.543  1.00  0.00    -0.371 N 
HETATM   12  H6  UNL     1      22.841   2.475  53.512  1.00  0.00     0.161 HD
BRANCH  11  13
HETATM   13  C7  UNL     1      22.067   2.753  51.557  1.00  0.00     0.148 C 
BRANCH  13  14
HETATM   14  C8  UNL     1      21.891   1.545  50.714  1.00  0.00    -0.007 C 
HETATM   15  C9  UNL     1      21.391   0.353  50.965  1.00  0.00    -0.003 C 
BRANCH  15  16
HETATM   16  C10 UNL     1      20.876   0.005  52.279  1.00  0.00    -0.002 C 
HETATM   17  C11 UNL     1      21.600  -0.661  53.144  1.00  0.00     0.004 C 
BRANCH  17  18
HETATM   18  C12 UNL     1      21.132  -1.043  54.490  1.00  0.00     0.249 C 
HETATM   19  F1  UNL     1      21.108   0.124  55.261  1.00  0.00    -0.251 F 
ENDBRANCH  17  18
ENDBRANCH  15  16
ENDBRANCH  13  14
ENDBRANCH  11  13
ENDBRANCH   7  11
BRANCH  10  20
HETATM   20  O2  UNL     1      25.853  -0.788  55.199  1.00  0.00    -0.353 OA
HETATM   21  C16 UNL     1      24.499  -1.165  55.492  1.00  0.00     0.210 C 
ENDBRANCH  10  20
BRANCH   1  22
HETATM   22  O1  UNL     1      28.384  -0.720  54.250  1.00  0.00    -0.353 OA
HETATM   23  C1  UNL     1      29.695  -0.859  53.801  1.00  0.00     0.210 C 
ENDBRANCH   1  22
TORSDOF 7
ENDMDL
MODEL 2
REMARK VINA RESULT:      -6.8      2.441      4.074
REMARK  7 active torsions:
REMARK  status: ('A' for Active; 'I' for Inactive)
REMARK    1  A    between atoms: O1_2  and  C2_3 
REMARK    2  A    between atoms: C6_9  and  N3_10 
REMARK    3  A    between atoms: N3_10  and  C7_11 
REMARK    4  A    between atoms: C7_11  and  C8_12 
REMARK    5  A    between atoms: C9_13  and  C10_14 
REMARK    6  A    between atoms: C11_15  and  C12_16 
REMARK    7  A    between atoms: C15_20  and  O2_21 
ROOT
HETATM    1  C2  UNL     1      26.105   0.163  53.694  1.00  0.00     0.103 A 
HETATM    2  C3  UNL     1      24.862  -0.160  53.182  1.00  0.00     0.072 A 
HETATM    3  C4  UNL     1      23.970   0.828  52.820  1.00  0.00     0.075 A 
HETATM    4  N1  UNL     1      22.751   0.500  52.318  1.00  0.00    -0.241 NA
HETATM    5  C5  UNL     1      21.905   1.513  51.974  1.00  0.00     0.235 A 
HETATM    6  N2  UNL     1      22.244   2.806  52.119  1.00  0.00    -0.224 NA
HETATM    7  C6  UNL     1      23.423   3.213  52.606  1.00  0.00     0.137 A 
HETATM    8  C13 UNL     1      24.259   2.172  52.944  1.00  0.00     0.041 A 
HETATM    9  C14 UNL     1      25.508   2.452  53.459  1.00  0.00     0.057 A 
HETATM   10  C15 UNL     1      26.430   1.497  53.834  1.00  0.00     0.102 A 
ENDROOT
BRANCH   7  11
HETATM   11  N3  UNL     1      23.748   4.577  52.745  1.00  0.00    -0.371 N 
HETATM   12  H6  UNL     1      24.039   5.049  53.601  1.00  0.00     0.161 HD
BRANCH  11  13
HETATM   13  C7  UNL     1      23.661   5.419  51.548  1.00  0.00     0.148 C 
BRANCH  13  14
HETATM   14  C8  UNL     1      24.672   5.048  50.528  1.00  0.00    -0.007 C 
HETATM   15  C9  UNL     1      24.579   4.434  49.367  1.00  0.00    -0.003 C 
BRANCH  15  16
HETATM   16  C10 UNL     1      23.301   3.968  48.853  1.00  0.00    -0.002 C 
HETATM   17  C11 UNL     1      23.079   2.697  48.621  1.00  0.00     0.004 C 
BRANCH  17  18
HETATM   18  C12 UNL     1      21.806   2.165  48.100  1.00  0.00     0.249 C 
HETATM   19  F1  UNL     1      21.719   0.832  48.518  1.00  0.00    -0.251 F 
ENDBRANCH  17  18
ENDBRANCH  15  16
ENDBRANCH  13  14
ENDBRANCH  11  13
ENDBRANCH   7  11
BRANCH  10  20
HETATM   20  O2  UNL     1      27.683   1.793  54.350  1.00  0.00    -0.353 OA
HETATM   21  C16 UNL     1      28.673   2.455  53.549  1.00  0.00     0.210 C 
ENDBRANCH  10  20
BRANCH   1  22
HETATM   22  O1  UNL     1      27.007  -0.809  54.061  1.00  0.00    -0.353 OA
HETATM   23  C1  UNL     1      27.941  -1.400  53.214  1.00  0.00     0.210 C 
ENDBRANCH   1  22
TORSDOF 7
ENDMDL
MODEL 3
REMARK VINA RESULT:      -6.7      3.157      5.241
REMARK  7 active torsions:
REMARK  status: ('A' for Active; 'I' for Inactive)
REMARK    1  A    between atoms: O1_2  and  C2_3 
REMARK    2  A    between atoms: C6_9  and  N3_10 
REMARK    3  A    between atoms: N3_10  and  C7_11 
REMARK    4  A    between atoms: C7_11  and  C8_12 
REMARK    5  A    between atoms: C9_13  and  C10_14 
REMARK    6  A    between atoms: C11_15  and  C12_16 
REMARK    7  A    between atoms: C15_20  and  O2_21 
ROOT
HETATM    1  C2  UNL     1      27.317  -0.474  53.511  1.00  0.00     0.103 A 
HETATM    2  C3  UNL     1      25.999  -0.893  53.515  1.00  0.00     0.072 A 
HETATM    3  C4  UNL     1      24.973   0.007  53.317  1.00  0.00     0.075 A 
HETATM    4  N1  UNL     1      23.681  -0.415  53.322  1.00  0.00    -0.241 NA
HETATM    5  C5  UNL     1      22.702   0.512  53.122  1.00  0.00     0.235 A 
HETATM    6  N2  UNL     1      22.981   1.813  52.925  1.00  0.00    -0.224 NA
HETATM    7  C6  UNL     1      24.225   2.309  52.906  1.00  0.00     0.137 A 
HETATM    8  C13 UNL     1      25.195   1.353  53.109  1.00  0.00     0.041 A 
HETATM    9  C14 UNL     1      26.521   1.730  53.114  1.00  0.00     0.057 A 
HETATM   10  C15 UNL     1      27.579   0.865  53.307  1.00  0.00     0.102 A 
ENDROOT
BRANCH   7  11
HETATM   11  N3  UNL     1      24.484   3.679  52.695  1.00  0.00    -0.371 N 
HETATM   12  H6  UNL     1      24.906   4.327  53.360  1.00  0.00     0.161 HD
BRANCH  11  13
HETATM   13  C7  UNL     1      24.112   4.246  51.395  1.00  0.00     0.148 C 
BRANCH  13  14
HETATM   14  C8  UNL     1      24.462   3.345  50.270  1.00  0.00    -0.007 C 
HETATM   15  C9  UNL     1      25.456   3.348  49.406  1.00  0.00    -0.003 C 
BRANCH  15  16
HETATM   16  C10 UNL     1      26.487   4.372  49.435  1.00  0.00    -0.002 C 
HETATM   17  C11 UNL     1      26.420   5.433  48.668  1.00  0.00     0.004 C 
BRANCH  17  18
HETATM   18  C12 UNL     1      27.435   6.503  48.652  1.00  0.00     0.249 C 
HETATM   19  F1  UNL     1      28.528   6.020  47.925  1.00  0.00    -0.251 F 
ENDBRANCH  17  18
ENDBRANCH  15  16
ENDBRANCH  13  14
ENDBRANCH  11  13
ENDBRANCH   7  11
BRANCH  10  20
HETATM   20  O2  UNL     1      28.909   1.259  53.308  1.00  0.00    -0.353 OA
HETATM   21  C16 UNL     1      29.464   1.978  54.420  1.00  0.00     0.210 C 
ENDBRANCH  10  20
BRANCH   1  22
HETATM   22  O1  UNL     1      28.354  -1.358  53.707  1.00  0.00    -0.353 OA
HETATM   23  C1  UNL     1      28.551  -2.537  52.994  1.00  0.00     0.210 C 
ENDBRANCH   1  22
TORSDOF 7
ENDMDL
MODEL 4
REMARK VINA RESULT:      -6.6      2.700      4.953
REMARK  7 active torsions:
REMARK  status: ('A' for Active; 'I' for Inactive)
REMARK    1  A    between atoms: O1_2  and  C2_3 
REMARK    2  A    between atoms: C6_9  and  N3_10 
REMARK    3  A    between atoms: N3_10  and  C7_11 
REMARK    4  A    between atoms: C7_11  and  C8_12 
REMARK    5  A    between atoms: C9_13  and  C10_14 
REMARK    6  A    between atoms: C11_15  and  C12_16 
REMARK    7  A    between atoms: C15_20  and  O2_21 
ROOT
HETATM    1  C2  UNL     1      22.623   0.311  53.195  1.00  0.00     0.103 A 
HETATM    2  C3  UNL     1      23.770  -0.438  53.389  1.00  0.00     0.072 A 
HETATM    3  C4  UNL     1      25.005   0.056  53.023  1.00  0.00     0.075 A 
HETATM    4  N1  UNL     1      26.125  -0.687  53.217  1.00  0.00    -0.241 NA
HETATM    5  C5  UNL     1      27.322  -0.155  52.839  1.00  0.00     0.235 A 
HETATM    6  N2  UNL     1      27.416   1.067  52.286  1.00  0.00    -0.224 NA
HETATM    7  C6  UNL     1      26.362   1.862  52.060  1.00  0.00     0.137 A 
HETATM    8  C13 UNL     1      25.166   1.302  52.452  1.00  0.00     0.041 A 
HETATM    9  C14 UNL     1      24.000   2.016  52.275  1.00  0.00     0.057 A 
HETATM   10  C15 UNL     1      22.745   1.562  52.626  1.00  0.00     0.102 A 
ENDROOT
BRANCH   7  11
HETATM   11  N3  UNL     1      26.496   3.139  51.479  1.00  0.00    -0.371 N 
HETATM   12  H6  UNL     1      26.638   4.020  51.973  1.00  0.00     0.161 HD
BRANCH  11  13
HETATM   13  C7  UNL     1      26.424   3.229  50.017  1.00  0.00     0.148 C 
BRANCH  13  14
HETATM   14  C8  UNL     1      25.431   4.234  49.566  1.00  0.00    -0.007 C 
HETATM   15  C9  UNL     1      24.200   4.126  49.111  1.00  0.00    -0.003 C 
BRANCH  15  16
HETATM   16  C10 UNL     1      23.554   2.831  48.966  1.00  0.00    -0.002 C 
HETATM   17  C11 UNL     1      22.288   2.730  48.642  1.00  0.00     0.004 C 
BRANCH  17  18
HETATM   18  C12 UNL     1      21.579   1.447  48.480  1.00  0.00     0.249 C 
HETATM   19  F1  UNL     1      21.899   0.660  49.593  1.00  0.00    -0.251 F 
ENDBRANCH  17  18
ENDBRANCH  15  16
ENDBRANCH  13  14
ENDBRANCH  11  13
ENDBRANCH   7  11
BRANCH  10  20
HETATM   20  O2  UNL     1      21.580   2.291  52.443  1.00  0.00    -0.353 OA
HETATM   21  C16 UNL     1      21.628   3.691  52.129  1.00  0.00     0.210 C 
ENDBRANCH  10  20
BRANCH   1  22
HETATM   22  O1  UNL     1      21.383  -0.166  53.554  1.00  0.00    -0.353 OA
HETATM   23  C1  UNL     1      21.151  -1.302  54.325  1.00  0.00     0.210 C 
ENDBRANCH   1  22
TORSDOF 7
ENDMDL
MODEL 5
REMARK VINA RESULT:      -6.6      2.479      4.092
REMARK  7 active torsions:
REMARK  status: ('A' for Active; 'I' for Inactive)
REMARK    1  A    between atoms: O1_2  and  C2_3 
REMARK    2  A    between atoms: C6_9  and  N3_10 
REMARK    3  A    between atoms: N3_10  and  C7_11 
REMARK    4  A    between atoms: C7_11  and  C8_12 
REMARK    5  A    between atoms: C9_13  and  C10_14 
REMARK    6  A    between atoms: C11_15  and  C12_16 
REMARK    7  A    between atoms: C15_20  and  O2_21 
ROOT
HETATM    1  C2  UNL     1      27.151   0.642  53.285  1.00  0.00     0.103 A 
HETATM    2  C3  UNL     1      26.680  -0.076  54.369  1.00  0.00     0.072 A 
HETATM    3  C4  UNL     1      25.351  -0.438  54.451  1.00  0.00     0.075 A 
HETATM    4  N1  UNL     1      24.898  -1.144  55.520  1.00  0.00    -0.241 NA
HETATM    5  C5  UNL     1      23.577  -1.479  55.554  1.00  0.00     0.235 A 
HETATM    6  N2  UNL     1      22.727  -1.130  54.572  1.00  0.00    -0.224 NA
HETATM    7  C6  UNL     1      23.093  -0.436  53.487  1.00  0.00     0.137 A 
HETATM    8  C13 UNL     1      24.431  -0.112  53.476  1.00  0.00     0.041 A 
HETATM    9  C14 UNL     1      24.940   0.605  52.413  1.00  0.00     0.057 A 
HETATM   10  C15 UNL     1      26.260   0.987  52.290  1.00  0.00     0.102 A 
ENDROOT
BRANCH   7  11
HETATM   11  N3  UNL     1      22.176  -0.087  52.475  1.00  0.00    -0.371 N 
HETATM   12  H6  UNL     1      22.303  -0.213  51.470  1.00  0.00     0.161 HD
BRANCH  11  13
HETATM   13  C7  UNL     1      20.907   0.520  52.890  1.00  0.00     0.148 C 
BRANCH  13  14
HETATM   14  C8  UNL     1      20.305   1.348  51.816  1.00  0.00    -0.007 C 
HETATM   15  C9  UNL     1      20.425   2.621  51.503  1.00  0.00    -0.003 C 
BRANCH  15  16
HETATM   16  C10 UNL     1      21.276   3.516  52.270  1.00  0.00    -0.002 C 
HETATM   17  C11 UNL     1      22.559   3.620  52.024  1.00  0.00     0.004 C 
BRANCH  17  18
HETATM   18  C12 UNL     1      23.471   4.509  52.768  1.00  0.00     0.249 C 
HETATM   19  F1  UNL     1      24.277   3.691  53.567  1.00  0.00    -0.251 F 
ENDBRANCH  17  18
ENDBRANCH  15  16
ENDBRANCH  13  14
ENDBRANCH  11  13
ENDBRANCH   7  11
BRANCH  10  20
HETATM   20  O2  UNL     1      26.759   1.708  51.215  1.00  0.00    -0.353 OA
HETATM   21  C16 UNL     1      26.064   2.859  50.712  1.00  0.00     0.210 C 
ENDBRANCH  10  20
BRANCH   1  22
HETATM   22  O1  UNL     1      28.473   1.012  53.187  1.00  0.00    -0.353 OA
HETATM   23  C1  UNL     1      29.550   0.291  53.697  1.00  0.00     0.210 C 
ENDBRANCH   1  22
TORSDOF 7
ENDMDL
MODEL 6
REMARK VINA RESULT:      -6.5      2.665      4.182
REMARK  7 active torsions:
REMARK  status: ('A' for Active; 'I' for Inactive)
REMARK    1  A    between atoms: O1_2  and  C2_3 
REMARK    2  A    between atoms: C6_9  and  N3_10 
REMARK    3  A    between atoms: N3_10  and  C7_11 
REMARK    4  A    between atoms: C7_11  and  C8_12 
REMARK    5  A    between atoms: C9_13  and  C10_14 
REMARK    6  A    between atoms: C11_15  and  C12_16 
REMARK    7  A    between atoms: C15_20  and  O2_21 
ROOT
HETATM    1  C2  UNL     1      27.376   0.682  53.394  1.00  0.00     0.103 A 
HETATM    2  C3  UNL     1      26.843  -0.062  54.430  1.00  0.00     0.072 A 
HETATM    3  C4  UNL     1      25.503  -0.387  54.448  1.00  0.00     0.075 A 
HETATM    4  N1  UNL     1      24.989  -1.119  55.471  1.00  0.00    -0.241 NA
HETATM    5  C5  UNL     1      23.658  -1.414  55.443  1.00  0.00     0.235 A 
HETATM    6  N2  UNL     1      22.856  -1.003  54.444  1.00  0.00    -0.224 NA
HETATM    7  C6  UNL     1      23.284  -0.279  53.402  1.00  0.00     0.137 A 
HETATM    8  C13 UNL     1      24.631   0.004  53.453  1.00  0.00     0.041 A 
HETATM    9  C14 UNL     1      25.201   0.745  52.439  1.00  0.00     0.057 A 
HETATM   10  C15 UNL     1      26.535   1.092  52.380  1.00  0.00     0.102 A 
ENDROOT
BRANCH   7  11
HETATM   11  N3  UNL     1      22.417   0.135  52.370  1.00  0.00    -0.371 N 
HETATM   12  H6  UNL     1      22.554  -0.003  51.369  1.00  0.00     0.161 HD
BRANCH  11  13
HETATM   13  C7  UNL     1      21.191   0.839  52.758  1.00  0.00     0.148 C 
BRANCH  13  14
HETATM   14  C8  UNL     1      20.013   0.381  51.981  1.00  0.00    -0.007 C 
HETATM   15  C9  UNL     1      19.612   0.622  50.750  1.00  0.00    -0.003 C 
BRANCH  15  16
HETATM   16  C10 UNL     1      20.367   1.489  49.860  1.00  0.00    -0.002 C 
HETATM   17  C11 UNL     1      21.315   1.019  49.086  1.00  0.00     0.004 C 
BRANCH  17  18
HETATM   18  C12 UNL     1      22.114   1.848  48.165  1.00  0.00     0.249 C 
HETATM   19  F1  UNL     1      23.187   2.361  48.903  1.00  0.00    -0.251 F 
ENDBRANCH  17  18
ENDBRANCH  15  16
ENDBRANCH  13  14
ENDBRANCH  11  13
ENDBRANCH   7  11
BRANCH  10  20
HETATM   20  O2  UNL     1      27.095   1.837  51.353  1.00  0.00    -0.353 OA
HETATM   21  C16 UNL     1      26.361   2.900  50.728  1.00  0.00     0.210 C 
ENDBRANCH  10  20
BRANCH   1  22
HETATM   22  O1  UNL     1      28.711   1.015  53.360  1.00  0.00    -0.353 OA
HETATM   23  C1  UNL     1      29.764   0.152  53.656  1.00  0.00     0.210 C 
ENDBRANCH   1  22
TORSDOF 7
ENDMDL
MODEL 7
REMARK VINA RESULT:      -6.5      3.634      6.440
REMARK  7 active torsions:
REMARK  status: ('A' for Active; 'I' for Inactive)
REMARK    1  A    between atoms: O1_2  and  C2_3 
REMARK    2  A    between atoms: C6_9  and  N3_10 
REMARK    3  A    between atoms: N3_10  and  C7_11 
REMARK    4  A    between atoms: C7_11  and  C8_12 
REMARK    5  A    between atoms: C9_13  and  C10_14 
REMARK    6  A    between atoms: C11_15  and  C12_16 
REMARK    7  A    between atoms: C15_20  and  O2_21 
ROOT
HETATM    1  C2  UNL     1      20.066  -0.678  53.379  1.00  0.00     0.103 A 
HETATM    2  C3  UNL     1      20.776  -1.200  54.446  1.00  0.00     0.072 A 
HETATM    3  C4  UNL     1      22.145  -1.054  54.520  1.00  0.00     0.075 A 
HETATM    4  N1  UNL     1      22.833  -1.570  55.572  1.00  0.00    -0.241 NA
HETATM    5  C5  UNL     1      24.185  -1.400  55.600  1.00  0.00     0.235 A 
HETATM    6  N2  UNL     1      24.843  -0.746  54.625  1.00  0.00    -0.224 NA
HETATM    7  C6  UNL     1      24.240  -0.210  53.557  1.00  0.00     0.137 A 
HETATM    8  C13 UNL     1      22.875  -0.394  53.553  1.00  0.00     0.041 A 
HETATM    9  C14 UNL     1      22.131   0.110  52.506  1.00  0.00     0.057 A 
HETATM   10  C15 UNL     1      20.762  -0.011  52.392  1.00  0.00     0.102 A 
ENDROOT
BRANCH   7  11
HETATM   11  N3  UNL     1      24.958   0.471  52.553  1.00  0.00    -0.371 N 
HETATM   12  H6  UNL     1      25.079   0.174  51.584  1.00  0.00     0.161 HD
BRANCH  11  13
HETATM   13  C7  UNL     1      25.607   1.733  52.922  1.00  0.00     0.148 C 
BRANCH  13  14
HETATM   14  C8  UNL     1      24.623   2.803  53.218  1.00  0.00    -0.007 C 
HETATM   15  C9  UNL     1      23.915   3.599  52.443  1.00  0.00    -0.003 C 
BRANCH  15  16
HETATM   16  C10 UNL     1      24.014   3.535  50.994  1.00  0.00    -0.002 C 
HETATM   17  C11 UNL     1      23.072   2.987  50.266  1.00  0.00     0.004 C 
BRANCH  17  18
HETATM   18  C12 UNL     1      23.117   2.892  48.795  1.00  0.00     0.249 C 
HETATM   19  F1  UNL     1      23.407   4.173  48.312  1.00  0.00    -0.251 F 
ENDBRANCH  17  18
ENDBRANCH  15  16
ENDBRANCH  13  14
ENDBRANCH  11  13
ENDBRANCH   7  11
BRANCH  10  20
HETATM   20  O2  UNL     1      20.026   0.501  51.334  1.00  0.00    -0.353 OA
HETATM   21  C16 UNL     1      19.671   1.891  51.287  1.00  0.00     0.210 C 
ENDBRANCH  10  20
BRANCH   1  22
HETATM   22  O1  UNL     1      18.699  -0.814  53.289  1.00  0.00    -0.353 OA
HETATM   23  C1  UNL     1      17.992  -1.995  53.499  1.00  0.00     0.210 C 
ENDBRANCH   1  22
TORSDOF 7
ENDMDL
MODEL 8
REMARK VINA RESULT:      -6.4      3.252      6.079
REMARK  7 active torsions:
REMARK  status: ('A' for Active; 'I' for Inactive)
REMARK    1  A    between atoms: O1_2  and  C2_3 
REMARK    2  A    between atoms: C6_9  and  N3_10 
REMARK    3  A    between atoms: N3_10  and  C7_11 
REMARK    4  A    between atoms: C7_11  and  C8_12 
REMARK    5  A    between atoms: C9_13  and  C10_14 
REMARK    6  A    between atoms: C11_15  and  C12_16 
REMARK    7  A    between atoms: C15_20  and  O2_21 
ROOT
HETATM    1  C2  UNL     1      22.749   0.612  53.128  1.00  0.00     0.103 A 
HETATM    2  C3  UNL     1      23.969   0.019  53.395  1.00  0.00     0.072 A 
HETATM    3  C4  UNL     1      25.144   0.600  52.965  1.00  0.00     0.075 A 
HETATM    4  N1  UNL     1      26.338   0.009  53.233  1.00  0.00    -0.241 NA
HETATM    5  C5  UNL     1      27.471   0.622  52.787  1.00  0.00     0.235 A 
HETATM    6  N2  UNL     1      27.434   1.777  52.099  1.00  0.00    -0.224 NA
HETATM    7  C6  UNL     1      26.301   2.422  51.794  1.00  0.00     0.137 A 
HETATM    8  C13 UNL     1      25.171   1.783  52.257  1.00  0.00     0.041 A 
HETATM    9  C14 UNL     1      23.935   2.342  52.010  1.00  0.00     0.057 A 
HETATM   10  C15 UNL     1      22.736   1.796  52.421  1.00  0.00     0.102 A 
ENDROOT
BRANCH   7  11
HETATM   11  N3  UNL     1      26.297   3.632  51.072  1.00  0.00    -0.371 N 
HETATM   12  H6  UNL     1      26.320   4.574  51.464  1.00  0.00     0.161 HD
BRANCH  11  13
HETATM   13  C7  UNL     1      26.255   3.548  49.609  1.00  0.00     0.148 C 
BRANCH  13  14
HETATM   14  C8  UNL     1      27.237   4.454  48.966  1.00  0.00    -0.007 C 
HETATM   15  C9  UNL     1      27.176   5.720  48.607  1.00  0.00    -0.003 C 
BRANCH  15  16
HETATM   16  C10 UNL     1      25.975   6.512  48.815  1.00  0.00    -0.002 C 
HETATM   17  C11 UNL     1      25.792   7.205  49.912  1.00  0.00     0.004 C 
BRANCH  17  18
HETATM   18  C12 UNL     1      24.597   8.026  50.179  1.00  0.00     0.249 C 
HETATM   19  F1  UNL     1      24.012   7.528  51.349  1.00  0.00    -0.251 F 
ENDBRANCH  17  18
ENDBRANCH  15  16
ENDBRANCH  13  14
ENDBRANCH  11  13
ENDBRANCH   7  11
BRANCH  10  20
HETATM   20  O2  UNL     1      21.499   2.370  52.166  1.00  0.00    -0.353 OA
HETATM   21  C16 UNL     1      21.349   3.795  52.084  1.00  0.00     0.210 C 
ENDBRANCH  10  20
BRANCH   1  22
HETATM   22  O1  UNL     1      21.566   0.047  53.548  1.00  0.00    -0.353 OA
HETATM   23  C1  UNL     1      21.425  -0.799  54.646  1.00  0.00     0.210 C 
ENDBRANCH   1  22
TORSDOF 7
ENDMDL
MODEL 9
REMARK VINA RESULT:      -6.4      4.019      6.757
REMARK  7 active torsions:
REMARK  status: ('A' for Active; 'I' for Inactive)
REMARK    1  A    between atoms: O1_2  and  C2_3 
REMARK    2  A    between atoms: C6_9  and  N3_10 
REMARK    3  A    between atoms: N3_10  and  C7_11 
REMARK    4  A    between atoms: C7_11  and  C8_12 
REMARK    5  A    between atoms: C9_13  and  C10_14 
REMARK    6  A    between atoms: C11_15  and  C12_16 
REMARK    7  A    between atoms: C15_20  and  O2_21 
ROOT
HETATM    1  C2  UNL     1      22.428  -0.052  53.228  1.00  0.00     0.103 A 
HETATM    2  C3  UNL     1      23.532  -0.638  53.820  1.00  0.00     0.072 A 
HETATM    3  C4  UNL     1      24.788  -0.087  53.672  1.00  0.00     0.075 A 
HETATM    4  N1  UNL     1      25.865  -0.671  54.258  1.00  0.00    -0.241 NA
HETATM    5  C5  UNL     1      27.085  -0.088  54.082  1.00  0.00     0.235 A 
HETATM    6  N2  UNL     1      27.243   1.032  53.354  1.00  0.00    -0.224 NA
HETATM    7  C6  UNL     1      26.234   1.667  52.745  1.00  0.00     0.137 A 
HETATM    8  C13 UNL     1      25.013   1.060  52.938  1.00  0.00     0.041 A 
HETATM    9  C14 UNL     1      23.888   1.613  52.364  1.00  0.00     0.057 A 
HETATM   10  C15 UNL     1      22.615   1.096  52.486  1.00  0.00     0.102 A 
ENDROOT
BRANCH   7  11
HETATM   11  N3  UNL     1      26.433   2.840  51.989  1.00  0.00    -0.371 N 
HETATM   12  H6  UNL     1      26.535   3.788  52.352  1.00  0.00     0.161 HD
BRANCH  11  13
HETATM   13  C7  UNL     1      26.503   2.703  50.531  1.00  0.00     0.148 C 
BRANCH  13  14
HETATM   14  C8  UNL     1      25.757   3.776  49.830  1.00  0.00    -0.007 C 
HETATM   15  C9  UNL     1      26.148   4.798  49.098  1.00  0.00    -0.003 C 
BRANCH  15  16
HETATM   16  C10 UNL     1      27.556   5.056  48.841  1.00  0.00    -0.002 C 
HETATM   17  C11 UNL     1      27.944   6.066  48.102  1.00  0.00     0.004 C 
BRANCH  17  18
HETATM   18  C12 UNL     1      29.355   6.377  47.807  1.00  0.00     0.249 C 
HETATM   19  F1  UNL     1      29.369   7.140  46.634  1.00  0.00    -0.251 F 
ENDBRANCH  17  18
ENDBRANCH  15  16
ENDBRANCH  13  14
ENDBRANCH  11  13
ENDBRANCH   7  11
BRANCH  10  20
HETATM   20  O2  UNL     1      21.492   1.664  51.902  1.00  0.00    -0.353 OA
HETATM   21  C16 UNL     1      20.919   2.871  52.426  1.00  0.00     0.210 C 
ENDBRANCH  10  20
BRANCH   1  22
HETATM   22  O1  UNL     1      21.168  -0.588  53.365  1.00  0.00    -0.353 OA
HETATM   23  C1  UNL     1      20.815  -1.595  54.260  1.00  0.00     0.210 C 
ENDBRANCH   1  22
TORSDOF 7
ENDMDL
