MODEL 1
REMARK VINA RESULT:      -8.4      0.000      0.000
REMARK  5 active torsions:
REMARK  status: ('A' for Active; 'I' for Inactive)
REMARK    1  A    between atoms: C2_2  and  C3_3 
REMARK    2  A    between atoms: C4_4  and  C5_5 
REMARK    3  A    between atoms: C5_5  and  C6_6 
REMARK    4  A    between atoms: C9_9  and  N1_10 
REMARK    5  A    between atoms: N1_10  and  C10_11 
ROOT
HETATM    1  C6  UNL     1      21.183   0.352  51.754  1.00  0.00     0.046 A 
HETATM    2  C7  UNL     1      22.476   0.205  52.213  1.00  0.00     0.046 A 
HETATM    3  C8  UNL     1      22.846  -0.393  53.406  1.00  0.00     0.042 A 
HETATM    4  C9  UNL     1      24.145  -0.524  53.836  1.00  0.00     0.142 A 
HETATM    5  N2  UNL     1      24.332  -1.128  55.014  1.00  0.00    -0.224 NA
HETATM    6  C16 UNL     1      23.281  -1.568  55.707  1.00  0.00     0.236 A 
HETATM    7  N3  UNL     1      21.983  -1.451  55.303  1.00  0.00    -0.240 NA
HETATM    8  C17 UNL     1      21.773  -0.846  54.121  1.00  0.00     0.089 A 
HETATM    9  C18 UNL     1      20.462  -0.734  53.724  1.00  0.00     0.149 A 
HETATM   10  N4  UNL     1      20.183  -0.137  52.548  1.00  0.00    -0.262 NA
ENDROOT
BRANCH   4  11
HETATM   11  N1  UNL     1      25.186  -0.028  53.049  1.00  0.00    -0.340 N 
HETATM   12  H9  UNL     1      25.005   0.510  52.178  1.00  0.00     0.167 HD
BRANCH  11  13
HETATM   13  C10 UNL     1      26.588  -0.131  53.231  1.00  0.00     0.035 A 
HETATM   14  C11 UNL     1      27.287  -1.272  52.913  1.00  0.00     0.032 A 
HETATM   15  C12 UNL     1      28.652  -1.418  53.082  1.00  0.00     0.046 A 
HETATM   16  C13 UNL     1      29.393  -0.393  53.594  1.00  0.00     0.138 A 
HETATM   17  F1  UNL     1      30.732  -0.449  53.793  1.00  0.00    -0.204 F 
HETATM   18  C14 UNL     1      28.745   0.761  53.925  1.00  0.00     0.074 A 
HETATM   19 CL1  UNL     1      29.638   2.108  54.582  1.00  0.00    -0.081 Cl
HETATM   20  C15 UNL     1      27.396   0.851  53.737  1.00  0.00     0.056 A 
ENDBRANCH  11  13
ENDBRANCH   4  11
BRANCH   1  21
HETATM   21  C5  UNL     1      20.868   1.005  50.461  1.00  0.00     0.153 C 
BRANCH  21  22
HETATM   22  C4  UNL     1      22.034   1.806  50.083  1.00  0.00    -0.101 C 
HETATM   23  C3  UNL     1      22.999   2.466  49.790  1.00  0.00    -0.107 C 
BRANCH  23  24
HETATM   24  C2  UNL     1      24.188   3.289  49.454  1.00  0.00     0.089 C 
HETATM   25  C1  UNL     1      25.338   3.012  50.405  1.00  0.00     0.018 C 
ENDBRANCH  23  24
ENDBRANCH  21  22
ENDBRANCH   1  21
TORSDOF 5
ENDMDL
MODEL 2
REMARK VINA RESULT:      -8.4      1.537      2.220
REMARK  5 active torsions:
REMARK  status: ('A' for Active; 'I' for Inactive)
REMARK    1  A    between atoms: C2_2  and  C3_3 
REMARK    2  A    between atoms: C4_4  and  C5_5 
REMARK    3  A    between atoms: C5_5  and  C6_6 
REMARK    4  A    between atoms: C9_9  and  N1_10 
REMARK    5  A    between atoms: N1_10  and  C10_11 
ROOT
HETATM    1  C6  UNL     1      22.074   2.062  50.860  1.00  0.00     0.046 A 
HETATM    2  C7  UNL     1      22.888   1.194  51.558  1.00  0.00     0.046 A 
HETATM    3  C8  UNL     1      22.559   0.553  52.741  1.00  0.00     0.042 A 
HETATM    4  C9  UNL     1      23.395  -0.307  53.414  1.00  0.00     0.142 A 
HETATM    5  N2  UNL     1      22.924  -0.844  54.544  1.00  0.00    -0.224 NA
HETATM    6  C16 UNL     1      21.697  -0.533  54.964  1.00  0.00     0.236 A 
HETATM    7  N3  UNL     1      20.849   0.316  54.316  1.00  0.00    -0.240 NA
HETATM    8  C17 UNL     1      21.303   0.867  53.177  1.00  0.00     0.089 A 
HETATM    9  C18 UNL     1      20.440   1.722  52.532  1.00  0.00     0.149 A 
HETATM   10  N4  UNL     1      20.835   2.307  51.385  1.00  0.00    -0.262 NA
ENDROOT
BRANCH   4  11
HETATM   11  N1  UNL     1      24.668  -0.571  52.905  1.00  0.00    -0.340 N 
HETATM   12  H9  UNL     1      24.835  -1.326  52.210  1.00  0.00     0.167 HD
BRANCH  11  13
HETATM   13  C10 UNL     1      25.905   0.062  53.187  1.00  0.00     0.035 A 
HETATM   14  C11 UNL     1      26.013   1.424  53.345  1.00  0.00     0.032 A 
HETATM   15  C12 UNL     1      27.200   2.082  53.613  1.00  0.00     0.046 A 
HETATM   16  C13 UNL     1      28.363   1.377  53.735  1.00  0.00     0.138 A 
HETATM   17  F1  UNL     1      29.567   1.939  53.995  1.00  0.00    -0.204 F 
HETATM   18  C14 UNL     1      28.307   0.022  53.586  1.00  0.00     0.074 A 
HETATM   19 CL1  UNL     1      29.760  -0.933  53.732  1.00  0.00    -0.081 Cl
HETATM   20  C15 UNL     1      27.109  -0.576  53.323  1.00  0.00     0.056 A 
ENDBRANCH  11  13
ENDBRANCH   4  11
BRANCH   1  21
HETATM   21  C5  UNL     1      22.500   2.710  49.597  1.00  0.00     0.153 C 
BRANCH  21  22
HETATM   22  C4  UNL     1      23.930   2.996  49.715  1.00  0.00    -0.101 C 
HETATM   23  C3  UNL     1      25.112   3.214  49.807  1.00  0.00    -0.107 C 
BRANCH  23  24
HETATM   24  C2  UNL     1      26.573   3.456  49.924  1.00  0.00     0.089 C 
HETATM   25  C1  UNL     1      27.027   4.558  48.985  1.00  0.00     0.018 C 
ENDBRANCH  23  24
ENDBRANCH  21  22
ENDBRANCH   1  21
TORSDOF 5
ENDMDL
MODEL 3
REMARK VINA RESULT:      -8.2      3.319      5.790
REMARK  5 active torsions:
REMARK  status: ('A' for Active; 'I' for Inactive)
REMARK    1  A    between atoms: C2_2  and  C3_3 
REMARK    2  A    between atoms: C4_4  and  C5_5 
REMARK    3  A    between atoms: C5_5  and  C6_6 
REMARK    4  A    between atoms: C9_9  and  N1_10 
REMARK    5  A    between atoms: N1_10  and  C10_11 
ROOT
HETATM    1  C6  UNL     1      24.308  -0.396  53.742  1.00  0.00     0.046 A 
HETATM    2  C7  UNL     1      24.941   0.424  52.831  1.00  0.00     0.046 A 
HETATM    3  C8  UNL     1      26.164   1.047  53.017  1.00  0.00     0.042 A 
HETATM    4  C9  UNL     1      26.769   1.860  52.088  1.00  0.00     0.142 A 
HETATM    5  N2  UNL     1      27.951   2.384  52.425  1.00  0.00    -0.224 NA
HETATM    6  C16 UNL     1      28.483   2.108  53.616  1.00  0.00     0.236 A 
HETATM    7  N3  UNL     1      27.905   1.305  54.555  1.00  0.00    -0.240 NA
HETATM    8  C17 UNL     1      26.715   0.767  54.236  1.00  0.00     0.089 A 
HETATM    9  C18 UNL     1      26.141  -0.040  55.190  1.00  0.00     0.149 A 
HETATM   10  N4  UNL     1      24.947  -0.610  54.932  1.00  0.00    -0.262 NA
ENDROOT
BRANCH   4  11
HETATM   11  N1  UNL     1      26.135   2.102  50.867  1.00  0.00    -0.340 N 
HETATM   12  H9  UNL     1      25.725   1.332  50.301  1.00  0.00     0.167 HD
BRANCH  11  13
HETATM   13  C10 UNL     1      25.926   3.325  50.182  1.00  0.00     0.035 A 
HETATM   14  C11 UNL     1      24.684   3.910  50.088  1.00  0.00     0.032 A 
HETATM   15  C12 UNL     1      24.434   5.097  49.423  1.00  0.00     0.046 A 
HETATM   16  C13 UNL     1      25.452   5.765  48.807  1.00  0.00     0.138 A 
HETATM   17  F1  UNL     1      25.298   6.931  48.135  1.00  0.00    -0.204 F 
HETATM   18  C14 UNL     1      26.703   5.225  48.871  1.00  0.00     0.074 A 
HETATM   19 CL1  UNL     1      28.045   6.032  48.104  1.00  0.00    -0.081 Cl
HETATM   20  C15 UNL     1      26.893   4.051  49.542  1.00  0.00     0.056 A 
ENDBRANCH  11  13
ENDBRANCH   4  11
BRANCH   1  21
HETATM   21  C5  UNL     1      22.996  -1.028  53.467  1.00  0.00     0.153 C 
BRANCH  21  22
HETATM   22  C4  UNL     1      22.296  -0.176  52.504  1.00  0.00    -0.101 C 
HETATM   23  C3  UNL     1      21.728   0.514  51.696  1.00  0.00    -0.107 C 
BRANCH  23  24
HETATM   24  C2  UNL     1      21.045   1.358  50.682  1.00  0.00     0.089 C 
HETATM   25  C1  UNL     1      21.881   1.494  49.423  1.00  0.00     0.018 C 
ENDBRANCH  23  24
ENDBRANCH  21  22
ENDBRANCH   1  21
TORSDOF 5
ENDMDL
MODEL 4
REMARK VINA RESULT:      -8.2      2.063      4.448
REMARK  5 active torsions:
REMARK  status: ('A' for Active; 'I' for Inactive)
REMARK    1  A    between atoms: C2_2  and  C3_3 
REMARK    2  A    between atoms: C4_4  and  C5_5 
REMARK    3  A    between atoms: C5_5  and  C6_6 
REMARK    4  A    between atoms: C9_9  and  N1_10 
REMARK    5  A    between atoms: N1_10  and  C10_11 
ROOT
HETATM    1  C6  UNL     1      21.885   1.010  51.600  1.00  0.00     0.046 A 
HETATM    2  C7  UNL     1      23.188   1.242  51.993  1.00  0.00     0.046 A 
HETATM    3  C8  UNL     1      24.120   1.992  51.296  1.00  0.00     0.042 A 
HETATM    4  C9  UNL     1      25.412   2.204  51.715  1.00  0.00     0.142 A 
HETATM    5  N2  UNL     1      26.187   2.953  50.924  1.00  0.00    -0.224 NA
HETATM    6  C16 UNL     1      25.691   3.451  49.790  1.00  0.00     0.236 A 
HETATM    7  N3  UNL     1      24.414   3.255  49.352  1.00  0.00    -0.240 NA
HETATM    8  C17 UNL     1      23.619   2.504  50.133  1.00  0.00     0.089 A 
HETATM    9  C18 UNL     1      22.334   2.313  49.681  1.00  0.00     0.149 A 
HETATM   10  N4  UNL     1      21.485   1.570  50.418  1.00  0.00    -0.262 NA
ENDROOT
BRANCH   4  11
HETATM   11  N1  UNL     1      25.850   1.639  52.914  1.00  0.00    -0.340 N 
HETATM   12  H9  UNL     1      25.288   1.701  53.787  1.00  0.00     0.167 HD
BRANCH  11  13
HETATM   13  C10 UNL     1      27.041   0.922  53.196  1.00  0.00     0.035 A 
HETATM   14  C11 UNL     1      28.151   1.527  53.736  1.00  0.00     0.032 A 
HETATM   15  C12 UNL     1      29.334   0.868  54.018  1.00  0.00     0.046 A 
HETATM   16  C13 UNL     1      29.453  -0.467  53.761  1.00  0.00     0.138 A 
HETATM   17  F1  UNL     1      30.572  -1.191  54.005  1.00  0.00    -0.204 F 
HETATM   18  C14 UNL     1      28.378  -1.113  53.224  1.00  0.00     0.074 A 
HETATM   19 CL1  UNL     1      28.469  -2.820  52.874  1.00  0.00    -0.081 Cl
HETATM   20  C15 UNL     1      27.235  -0.414  52.966  1.00  0.00     0.056 A 
ENDBRANCH  11  13
ENDBRANCH   4  11
BRANCH   1  21
HETATM   21  C5  UNL     1      20.945   0.195  52.405  1.00  0.00     0.153 C 
BRANCH  21  22
HETATM   22  C4  UNL     1      21.711  -0.394  53.505  1.00  0.00    -0.101 C 
HETATM   23  C3  UNL     1      22.351  -0.862  54.412  1.00  0.00    -0.107 C 
BRANCH  23  24
HETATM   24  C2  UNL     1      23.160  -1.420  55.525  1.00  0.00     0.089 C 
HETATM   25  C1  UNL     1      24.628  -1.067  55.373  1.00  0.00     0.018 C 
ENDBRANCH  23  24
ENDBRANCH  21  22
ENDBRANCH   1  21
TORSDOF 5
ENDMDL
MODEL 5
REMARK VINA RESULT:      -8.2      3.267      5.524
REMARK  5 active torsions:
REMARK  status: ('A' for Active; 'I' for Inactive)
REMARK    1  A    between atoms: C2_2  and  C3_3 
REMARK    2  A    between atoms: C4_4  and  C5_5 
REMARK    3  A    between atoms: C5_5  and  C6_6 
REMARK    4  A    between atoms: C9_9  and  N1_10 
REMARK    5  A    between atoms: N1_10  and  C10_11 
ROOT
HETATM    1  C6  UNL     1      24.291  -0.518  53.828  1.00  0.00     0.046 A 
HETATM    2  C7  UNL     1      25.106   0.218  52.991  1.00  0.00     0.046 A 
HETATM    3  C8  UNL     1      26.388   0.649  53.286  1.00  0.00     0.042 A 
HETATM    4  C9  UNL     1      27.175   1.382  52.428  1.00  0.00     0.142 A 
HETATM    5  N2  UNL     1      28.392   1.719  52.867  1.00  0.00    -0.224 NA
HETATM    6  C16 UNL     1      28.785   1.343  54.084  1.00  0.00     0.236 A 
HETATM    7  N3  UNL     1      28.025   0.616  54.953  1.00  0.00    -0.240 NA
HETATM    8  C17 UNL     1      26.797   0.267  54.532  1.00  0.00     0.089 A 
HETATM    9  C18 UNL     1      26.040  -0.466  55.416  1.00  0.00     0.149 A 
HETATM   10  N4  UNL     1      24.799  -0.848  55.054  1.00  0.00    -0.262 NA
ENDROOT
BRANCH   4  11
HETATM   11  N1  UNL     1      26.679   1.739  51.173  1.00  0.00    -0.340 N 
HETATM   12  H9  UNL     1      26.732   1.094  50.360  1.00  0.00     0.167 HD
BRANCH  11  13
HETATM   13  C10 UNL     1      26.054   2.941  50.754  1.00  0.00     0.035 A 
HETATM   14  C11 UNL     1      26.580   3.734  49.761  1.00  0.00     0.032 A 
HETATM   15  C12 UNL     1      26.008   4.917  49.328  1.00  0.00     0.046 A 
HETATM   16  C13 UNL     1      24.849   5.365  49.893  1.00  0.00     0.138 A 
HETATM   17  F1  UNL     1      24.222   6.510  49.532  1.00  0.00    -0.204 F 
HETATM   18  C14 UNL     1      24.289   4.613  50.884  1.00  0.00     0.074 A 
HETATM   19 CL1  UNL     1      22.807   5.134  51.644  1.00  0.00    -0.081 Cl
HETATM   20  C15 UNL     1      24.895   3.454  51.272  1.00  0.00     0.056 A 
ENDBRANCH  11  13
ENDBRANCH   4  11
BRANCH   1  21
HETATM   21  C5  UNL     1      22.926  -0.943  53.438  1.00  0.00     0.153 C 
BRANCH  21  22
HETATM   22  C4  UNL     1      22.415   0.050  52.492  1.00  0.00    -0.101 C 
HETATM   23  C3  UNL     1      22.001   0.857  51.698  1.00  0.00    -0.107 C 
BRANCH  23  24
HETATM   24  C2  UNL     1      21.509   1.844  50.702  1.00  0.00     0.089 C 
HETATM   25  C1  UNL     1      22.268   1.731  49.392  1.00  0.00     0.018 C 
ENDBRANCH  23  24
ENDBRANCH  21  22
ENDBRANCH   1  21
TORSDOF 5
ENDMDL
MODEL 6
REMARK VINA RESULT:      -8.0      3.826      6.212
REMARK  5 active torsions:
REMARK  status: ('A' for Active; 'I' for Inactive)
REMARK    1  A    between atoms: C2_2  and  C3_3 
REMARK    2  A    between atoms: C4_4  and  C5_5 
REMARK    3  A    between atoms: C5_5  and  C6_6 
REMARK    4  A    between atoms: C9_9  and  N1_10 
REMARK    5  A    between atoms: N1_10  and  C10_11 
ROOT
HETATM    1  C6  UNL     1      26.423   2.235  51.042  1.00  0.00     0.046 A 
HETATM    2  C7  UNL     1      25.885   1.189  51.764  1.00  0.00     0.046 A 
HETATM    3  C8  UNL     1      26.353   0.724  52.982  1.00  0.00     0.042 A 
HETATM    4  C9  UNL     1      25.795  -0.323  53.677  1.00  0.00     0.142 A 
HETATM    5  N2  UNL     1      26.368  -0.647  54.840  1.00  0.00    -0.224 NA
HETATM    6  C16 UNL     1      27.430   0.036  55.269  1.00  0.00     0.236 A 
HETATM    7  N3  UNL     1      28.003   1.077  54.599  1.00  0.00    -0.240 NA
HETATM    8  C17 UNL     1      27.441   1.420  53.427  1.00  0.00     0.089 A 
HETATM    9  C18 UNL     1      28.027   2.471  52.760  1.00  0.00     0.149 A 
HETATM   10  N4  UNL     1      27.512   2.864  51.579  1.00  0.00    -0.262 NA
ENDROOT
BRANCH   4  11
HETATM   11  N1  UNL     1      24.686  -0.988  53.149  1.00  0.00    -0.340 N 
HETATM   12  H9  UNL     1      24.789  -1.798  52.505  1.00  0.00     0.167 HD
BRANCH  11  13
HETATM   13  C10 UNL     1      23.304  -0.741  53.345  1.00  0.00     0.035 A 
HETATM   14  C11 UNL     1      22.680  -0.976  54.548  1.00  0.00     0.032 A 
HETATM   15  C12 UNL     1      21.334  -0.757  54.779  1.00  0.00     0.046 A 
HETATM   16  C13 UNL     1      20.535  -0.280  53.781  1.00  0.00     0.138 A 
HETATM   17  F1  UNL     1      19.210  -0.037  53.919  1.00  0.00    -0.204 F 
HETATM   18  C14 UNL     1      21.108  -0.032  52.567  1.00  0.00     0.074 A 
HETATM   19 CL1  UNL     1      20.139   0.579  51.252  1.00  0.00    -0.081 Cl
HETATM   20  C15 UNL     1      22.442  -0.265  52.394  1.00  0.00     0.056 A 
ENDBRANCH  11  13
ENDBRANCH   4  11
BRANCH   1  21
HETATM   21  C5  UNL     1      25.862   2.675  49.742  1.00  0.00     0.153 C 
BRANCH  21  22
HETATM   22  C4  UNL     1      26.655   3.820  49.292  1.00  0.00    -0.101 C 
HETATM   23  C3  UNL     1      27.305   4.757  48.902  1.00  0.00    -0.107 C 
BRANCH  23  24
HETATM   24  C2  UNL     1      28.113   5.897  48.399  1.00  0.00     0.089 C 
HETATM   25  C1  UNL     1      29.538   5.474  48.095  1.00  0.00     0.018 C 
ENDBRANCH  23  24
ENDBRANCH  21  22
ENDBRANCH   1  21
TORSDOF 5
ENDMDL
MODEL 7
REMARK VINA RESULT:      -8.0      3.660      6.062
REMARK  5 active torsions:
REMARK  status: ('A' for Active; 'I' for Inactive)
REMARK    1  A    between atoms: C2_2  and  C3_3 
REMARK    2  A    between atoms: C4_4  and  C5_5 
REMARK    3  A    between atoms: C5_5  and  C6_6 
REMARK    4  A    between atoms: C9_9  and  N1_10 
REMARK    5  A    between atoms: N1_10  and  C10_11 
ROOT
HETATM    1  C6  UNL     1      24.441  -0.439  53.859  1.00  0.00     0.046 A 
HETATM    2  C7  UNL     1      25.016   0.427  52.951  1.00  0.00     0.046 A 
HETATM    3  C8  UNL     1      26.247   1.045  53.092  1.00  0.00     0.042 A 
HETATM    4  C9  UNL     1      26.792   1.904  52.168  1.00  0.00     0.142 A 
HETATM    5  N2  UNL     1      27.993   2.417  52.456  1.00  0.00    -0.224 NA
HETATM    6  C16 UNL     1      28.598   2.084  53.597  1.00  0.00     0.236 A 
HETATM    7  N3  UNL     1      28.080   1.235  54.529  1.00  0.00    -0.240 NA
HETATM    8  C17 UNL     1      26.873   0.708  54.259  1.00  0.00     0.089 A 
HETATM    9  C18 UNL     1      26.360  -0.147  55.206  1.00  0.00     0.149 A 
HETATM   10  N4  UNL     1      25.153  -0.709  54.995  1.00  0.00    -0.262 NA
ENDROOT
BRANCH   4  11
HETATM   11  N1  UNL     1      26.084   2.203  51.002  1.00  0.00    -0.340 N 
HETATM   12  H9  UNL     1      26.357   1.810  50.079  1.00  0.00     0.167 HD
BRANCH  11  13
HETATM   13  C10 UNL     1      24.945   3.028  50.820  1.00  0.00     0.035 A 
HETATM   14  C11 UNL     1      24.273   3.595  51.878  1.00  0.00     0.032 A 
HETATM   15  C12 UNL     1      23.154   4.398  51.746  1.00  0.00     0.046 A 
HETATM   16  C13 UNL     1      22.649   4.672  50.508  1.00  0.00     0.138 A 
HETATM   17  F1  UNL     1      21.560   5.446  50.287  1.00  0.00    -0.204 F 
HETATM   18  C14 UNL     1      23.280   4.131  49.426  1.00  0.00     0.074 A 
HETATM   19 CL1  UNL     1      22.682   4.446  47.818  1.00  0.00    -0.081 Cl
HETATM   20  C15 UNL     1      24.381   3.346  49.614  1.00  0.00     0.056 A 
ENDBRANCH  11  13
ENDBRANCH   4  11
BRANCH   1  21
HETATM   21  C5  UNL     1      23.115  -1.063  53.635  1.00  0.00     0.153 C 
BRANCH  21  22
HETATM   22  C4  UNL     1      22.409  -0.240  52.651  1.00  0.00    -0.101 C 
HETATM   23  C3  UNL     1      21.810   0.431  51.849  1.00  0.00    -0.107 C 
BRANCH  23  24
HETATM   24  C2  UNL     1      21.051   1.242  50.864  1.00  0.00     0.089 C 
HETATM   25  C1  UNL     1      21.484   0.934  49.442  1.00  0.00     0.018 C 
ENDBRANCH  23  24
ENDBRANCH  21  22
ENDBRANCH   1  21
TORSDOF 5
ENDMDL
MODEL 8
REMARK VINA RESULT:      -8.0      3.232      5.545
REMARK  5 active torsions:
REMARK  status: ('A' for Active; 'I' for Inactive)
REMARK    1  A    between atoms: C2_2  and  C3_3 
REMARK    2  A    between atoms: C4_4  and  C5_5 
REMARK    3  A    between atoms: C5_5  and  C6_6 
REMARK    4  A    between atoms: C9_9  and  N1_10 
REMARK    5  A    between atoms: N1_10  and  C10_11 
ROOT
HETATM    1  C6  UNL     1      25.741  -0.241  53.739  1.00  0.00     0.046 A 
HETATM    2  C7  UNL     1      24.552  -0.025  53.072  1.00  0.00     0.046 A 
HETATM    3  C8  UNL     1      23.297  -0.413  53.512  1.00  0.00     0.042 A 
HETATM    4  C9  UNL     1      22.130  -0.181  52.822  1.00  0.00     0.142 A 
HETATM    5  N2  UNL     1      21.001  -0.620  53.386  1.00  0.00    -0.224 NA
HETATM    6  C16 UNL     1      21.047  -1.249  54.561  1.00  0.00     0.236 A 
HETATM    7  N3  UNL     1      22.191  -1.491  55.265  1.00  0.00    -0.240 NA
HETATM    8  C17 UNL     1      23.338  -1.057  54.716  1.00  0.00     0.089 A 
HETATM    9  C18 UNL     1      24.484  -1.306  55.434  1.00  0.00     0.149 A 
HETATM   10  N4  UNL     1      25.669  -0.897  54.938  1.00  0.00    -0.262 NA
ENDROOT
BRANCH   4  11
HETATM   11  N1  UNL     1      22.175   0.479  51.593  1.00  0.00    -0.340 N 
HETATM   12  H9  UNL     1      22.040  -0.026  50.695  1.00  0.00     0.167 HD
BRANCH  11  13
HETATM   13  C10 UNL     1      22.393   1.851  51.309  1.00  0.00     0.035 A 
HETATM   14  C11 UNL     1      22.437   2.807  52.297  1.00  0.00     0.032 A 
HETATM   15  C12 UNL     1      22.639   4.155  52.064  1.00  0.00     0.046 A 
HETATM   16  C13 UNL     1      22.809   4.613  50.789  1.00  0.00     0.138 A 
HETATM   17  F1  UNL     1      23.011   5.913  50.470  1.00  0.00    -0.204 F 
HETATM   18  C14 UNL     1      22.772   3.703  49.774  1.00  0.00     0.074 A 
HETATM   19 CL1  UNL     1      22.984   4.227  48.123  1.00  0.00    -0.081 Cl
HETATM   20  C15 UNL     1      22.571   2.384  50.061  1.00  0.00     0.056 A 
ENDBRANCH  11  13
ENDBRANCH   4  11
BRANCH   1  21
HETATM   21  C5  UNL     1      27.047   0.206  53.202  1.00  0.00     0.153 C 
BRANCH  21  22
HETATM   22  C4  UNL     1      26.787   1.340  52.314  1.00  0.00    -0.101 C 
HETATM   23  C3  UNL     1      26.575   2.286  51.598  1.00  0.00    -0.107 C 
BRANCH  23  24
HETATM   24  C2  UNL     1      26.307   3.467  50.737  1.00  0.00     0.089 C 
HETATM   25  C1  UNL     1      26.605   3.167  49.280  1.00  0.00     0.018 C 
ENDBRANCH  23  24
ENDBRANCH  21  22
ENDBRANCH   1  21
TORSDOF 5
ENDMDL
MODEL 9
REMARK VINA RESULT:      -7.9      3.461      5.832
REMARK  5 active torsions:
REMARK  status: ('A' for Active; 'I' for Inactive)
REMARK    1  A    between atoms: C2_2  and  C3_3 
REMARK    2  A    between atoms: C4_4  and  C5_5 
REMARK    3  A    between atoms: C5_5  and  C6_6 
REMARK    4  A    between atoms: C9_9  and  N1_10 
REMARK    5  A    between atoms: N1_10  and  C10_11 
ROOT
HETATM    1  C6  UNL     1      25.822   0.924  53.413  1.00  0.00     0.046 A 
HETATM    2  C7  UNL     1      24.542   1.265  53.027  1.00  0.00     0.046 A 
HETATM    3  C8  UNL     1      23.388   0.574  53.358  1.00  0.00     0.042 A 
HETATM    4  C9  UNL     1      22.125   0.940  52.958  1.00  0.00     0.142 A 
HETATM    5  N2  UNL     1      21.115   0.164  53.364  1.00  0.00    -0.224 NA
HETATM    6  C16 UNL     1      21.365  -0.906  54.121  1.00  0.00     0.236 A 
HETATM    7  N3  UNL     1      22.607  -1.290  54.532  1.00  0.00    -0.240 NA
HETATM    8  C17 UNL     1      23.637  -0.523  54.134  1.00  0.00     0.089 A 
HETATM    9  C18 UNL     1      24.885  -0.920  54.554  1.00  0.00     0.149 A 
HETATM   10  N4  UNL     1      25.960  -0.194  54.189  1.00  0.00    -0.262 NA
ENDROOT
BRANCH   4  11
HETATM   11  N1  UNL     1      21.956   2.073  52.159  1.00  0.00    -0.340 N 
HETATM   12  H9  UNL     1      21.722   3.000  52.566  1.00  0.00     0.167 HD
BRANCH  11  13
HETATM   13  C10 UNL     1      22.051   2.210  50.751  1.00  0.00     0.035 A 
HETATM   14  C11 UNL     1      21.711   1.193  49.890  1.00  0.00     0.032 A 
HETATM   15  C12 UNL     1      21.797   1.283  48.512  1.00  0.00     0.046 A 
HETATM   16  C13 UNL     1      22.242   2.431  47.925  1.00  0.00     0.138 A 
HETATM   17  F1  UNL     1      22.358   2.605  46.587  1.00  0.00    -0.204 F 
HETATM   18  C14 UNL     1      22.593   3.470  48.738  1.00  0.00     0.074 A 
HETATM   19 CL1  UNL     1      23.168   4.965  48.047  1.00  0.00    -0.081 Cl
HETATM   20  C15 UNL     1      22.488   3.328  50.091  1.00  0.00     0.056 A 
ENDBRANCH  11  13
ENDBRANCH   4  11
BRANCH   1  21
HETATM   21  C5  UNL     1      27.010   1.718  53.017  1.00  0.00     0.153 C 
BRANCH  21  22
HETATM   22  C4  UNL     1      26.711   2.332  51.723  1.00  0.00    -0.101 C 
HETATM   23  C3  UNL     1      26.480   2.829  50.649  1.00  0.00    -0.107 C 
BRANCH  23  24
HETATM   24  C2  UNL     1      26.223   3.440  49.320  1.00  0.00     0.089 C 
HETATM   25  C1  UNL     1      27.247   4.512  48.996  1.00  0.00     0.018 C 
ENDBRANCH  23  24
ENDBRANCH  21  22
ENDBRANCH   1  21
TORSDOF 5
ENDMDL
