MODEL 1
REMARK VINA RESULT:      -7.6      0.000      0.000
REMARK  6 active torsions:
REMARK  status: ('A' for Active; 'I' for Inactive)
REMARK    1  A    between atoms: N1_2  and  C3_4 
REMARK    2  A    between atoms: C3_4  and  C4_5 
REMARK    3  A    between atoms: C4_5  and  C5_6 
REMARK    4  A    between atoms: C5_6  and  C6_7 
REMARK       I    between atoms: C6_7  and  N2_9 
REMARK    5  A    between atoms: N2_9  and  C7_10 
REMARK    6  A    between atoms: C21_29  and  N7_30 
ROOT
HETATM    1  C7  UNL     1      25.190   3.593  49.833  1.00  0.00     0.053 A 
HETATM    2  C8  UNL     1      26.406   3.060  49.400  1.00  0.00     0.148 A 
HETATM    3  N3  UNL     1      27.370   3.855  48.957  1.00  0.00    -0.238 NA
HETATM    4  C9  UNL     1      27.323   5.197  48.864  1.00  0.00     0.162 A 
HETATM    5  N4  UNL     1      28.227   6.095  48.451  1.00  0.00    -0.225 NA
HETATM    6  C10 UNL     1      28.000   7.446  48.447  1.00  0.00     0.109 A 
HETATM    7  C11 UNL     1      26.863   7.934  48.863  1.00  0.00     0.103 A 
HETATM    8  C12 UNL     1      26.584   9.369  49.025  1.00  0.00     0.104 C 
HETATM    9  N5  UNL     1      26.383  10.510  49.154  1.00  0.00    -0.191 NA
HETATM   10  C13 UNL     1      25.835   7.142  49.303  1.00  0.00     0.069 A 
HETATM   11  C14 UNL     1      26.111   5.757  49.291  1.00  0.00     0.042 A 
HETATM   12  C15 UNL     1      25.108   4.965  49.752  1.00  0.00     0.048 A 
HETATM   13  N6  UNL     1      24.522   7.596  49.515  1.00  0.00    -0.364 N 
HETATM   14  C16 UNL     1      24.408   7.920  48.113  1.00  0.00     0.085 C 
HETATM   15  C17 UNL     1      24.951   8.209  46.966  1.00  0.00    -0.004 C 
HETATM   16  C18 UNL     1      25.964   8.494  45.875  1.00  0.00     0.056 C 
HETATM   17  C19 UNL     1      27.359   8.420  45.986  1.00  0.00     0.023 C 
HETATM   18  C20 UNL     1      28.748   8.212  46.520  1.00  0.00     0.018 C 
HETATM   19 BR1  UNL     1      30.141   8.690  45.270  1.00  0.00    -0.053 Br
HETATM   20  C21 UNL     1      29.194   7.758  47.721  1.00  0.00     0.070 C 
HETATM   21  H14 UNL     1      24.571   7.387  50.461  1.00  0.00     0.165 HD
ENDROOT
BRANCH  20  22
HETATM   22  N7  UNL     1      30.560   7.712  47.932  1.00  0.00    -0.396 N 
HETATM   23  H19 UNL     1      31.159   8.382  48.444  1.00  0.00     0.156 HD
HETATM   24  H20 UNL     1      31.059   6.882  47.507  1.00  0.00     0.156 HD
ENDBRANCH  20  22
BRANCH   1  25
HETATM   25  N2  UNL     1      24.092   2.852  50.343  1.00  0.00    -0.322 N 
HETATM   26  C6  UNL     1      24.560   2.387  51.625  1.00  0.00     0.245 C 
HETATM   27  O1  UNL     1      25.731   2.840  51.704  1.00  0.00    -0.268 OA
HETATM   28  H11 UNL     1      23.127   2.640  49.963  1.00  0.00     0.169 HD
BRANCH  26  29
HETATM   29  C5  UNL     1      23.693   1.571  52.510  1.00  0.00     0.072 C 
BRANCH  29  30
HETATM   30  C4  UNL     1      24.127   0.485  53.106  1.00  0.00     0.008 C 
BRANCH  30  31
HETATM   31  C3  UNL     1      24.607  -0.540  54.018  1.00  0.00     0.299 C 
BRANCH  31  32
HETATM   32  N1  UNL     1      26.050  -0.634  53.944  1.00  0.00     0.083 N 
HETATM   33  C1  UNL     1      26.684   0.540  54.523  1.00  0.00     0.309 C 
HETATM   34  C2  UNL     1      26.510  -0.854  52.586  1.00  0.00     0.309 C 
ENDBRANCH  31  32
ENDBRANCH  30  31
ENDBRANCH  29  30
ENDBRANCH  26  29
ENDBRANCH   1  25
TORSDOF 6
ENDMDL
MODEL 2
REMARK VINA RESULT:      -7.5      7.357     10.925
REMARK  6 active torsions:
REMARK  status: ('A' for Active; 'I' for Inactive)
REMARK    1  A    between atoms: N1_2  and  C3_4 
REMARK    2  A    between atoms: C3_4  and  C4_5 
REMARK    3  A    between atoms: C4_5  and  C5_6 
REMARK    4  A    between atoms: C5_6  and  C6_7 
REMARK       I    between atoms: C6_7  and  N2_9 
REMARK    5  A    between atoms: N2_9  and  C7_10 
REMARK    6  A    between atoms: C21_29  and  N7_30 
ROOT
HETATM    1  C7  UNL     1      21.467   0.071  52.346  1.00  0.00     0.053 A 
HETATM    2  C8  UNL     1      20.992  -0.572  53.490  1.00  0.00     0.148 A 
HETATM    3  N3  UNL     1      19.702  -0.850  53.619  1.00  0.00    -0.238 NA
HETATM    4  C9  UNL     1      18.729  -0.574  52.732  1.00  0.00     0.162 A 
HETATM    5  N4  UNL     1      17.412  -0.816  52.747  1.00  0.00    -0.225 NA
HETATM    6  C10 UNL     1      16.570  -0.471  51.722  1.00  0.00     0.109 A 
HETATM    7  C11 UNL     1      17.027   0.121  50.653  1.00  0.00     0.103 A 
HETATM    8  C12 UNL     1      16.225   0.401  49.451  1.00  0.00     0.104 C 
HETATM    9  N5  UNL     1      15.577   0.609  48.506  1.00  0.00    -0.191 NA
HETATM   10  C13 UNL     1      18.348   0.448  50.496  1.00  0.00     0.069 A 
HETATM   11  C14 UNL     1      19.180   0.074  51.573  1.00  0.00     0.042 A 
HETATM   12  C15 UNL     1      20.497   0.369  51.415  1.00  0.00     0.048 A 
HETATM   13  N6  UNL     1      18.837   1.301  49.492  1.00  0.00    -0.364 N 
HETATM   14  C16 UNL     1      18.061   2.389  50.039  1.00  0.00     0.085 C 
HETATM   15  C17 UNL     1      17.060   2.827  50.745  1.00  0.00    -0.004 C 
HETATM   16  C18 UNL     1      15.826   2.889  51.624  1.00  0.00     0.056 C 
HETATM   17  C19 UNL     1      15.161   1.807  52.213  1.00  0.00     0.023 C 
HETATM   18  C20 UNL     1      14.776   0.420  52.645  1.00  0.00     0.018 C 
HETATM   19 BR1  UNL     1      13.128   0.346  53.648  1.00  0.00    -0.053 Br
HETATM   20  C21 UNL     1      15.377  -0.785  52.449  1.00  0.00     0.070 C 
HETATM   21  H14 UNL     1      19.369   0.589  49.105  1.00  0.00     0.165 HD
ENDROOT
BRANCH  20  22
HETATM   22  N7  UNL     1      14.750  -1.911  52.948  1.00  0.00    -0.396 N 
HETATM   23  H19 UNL     1      14.484  -2.126  53.924  1.00  0.00     0.156 HD
HETATM   24  H20 UNL     1      14.513  -2.655  52.234  1.00  0.00     0.156 HD
ENDBRANCH  20  22
BRANCH   1  25
HETATM   25  N2  UNL     1      22.820   0.406  52.082  1.00  0.00    -0.322 N 
HETATM   26  C6  UNL     1      22.948   1.746  52.600  1.00  0.00     0.245 C 
HETATM   27  O1  UNL     1      21.800   2.013  53.040  1.00  0.00    -0.268 OA
HETATM   28  H11 UNL     1      23.620  -0.123  51.632  1.00  0.00     0.169 HD
BRANCH  26  29
HETATM   29  C5  UNL     1      24.239   2.475  52.537  1.00  0.00     0.072 C 
BRANCH  29  30
HETATM   30  C4  UNL     1      25.319   2.036  53.139  1.00  0.00     0.008 C 
BRANCH  30  31
HETATM   31  C3  UNL     1      26.609   1.842  53.779  1.00  0.00     0.299 C 
BRANCH  31  32
HETATM   32  N1  UNL     1      26.662   0.536  54.403  1.00  0.00     0.083 N 
HETATM   33  C1  UNL     1      28.018   0.199  54.806  1.00  0.00     0.309 C 
HETATM   34  C2  UNL     1      26.104  -0.495  53.550  1.00  0.00     0.309 C 
ENDBRANCH  31  32
ENDBRANCH  30  31
ENDBRANCH  29  30
ENDBRANCH  26  29
ENDBRANCH   1  25
TORSDOF 6
ENDMDL
MODEL 3
REMARK VINA RESULT:      -7.4      3.692      5.634
REMARK  6 active torsions:
REMARK  status: ('A' for Active; 'I' for Inactive)
REMARK    1  A    between atoms: N1_2  and  C3_4 
REMARK    2  A    between atoms: C3_4  and  C4_5 
REMARK    3  A    between atoms: C4_5  and  C5_6 
REMARK    4  A    between atoms: C5_6  and  C6_7 
REMARK       I    between atoms: C6_7  and  N2_9 
REMARK    5  A    between atoms: N2_9  and  C7_10 
REMARK    6  A    between atoms: C21_29  and  N7_30 
ROOT
HETATM    1  C7  UNL     1      26.855   6.604  48.220  1.00  0.00     0.053 A 
HETATM    2  C8  UNL     1      27.217   5.305  48.580  1.00  0.00     0.148 A 
HETATM    3  N3  UNL     1      28.491   4.939  48.583  1.00  0.00    -0.238 NA
HETATM    4  C9  UNL     1      29.548   5.708  48.263  1.00  0.00     0.162 A 
HETATM    5  N4  UNL     1      30.863   5.455  48.244  1.00  0.00    -0.225 NA
HETATM    6  C10 UNL     1      31.806   6.389  47.903  1.00  0.00     0.109 A 
HETATM    7  C11 UNL     1      31.456   7.603  47.578  1.00  0.00     0.103 A 
HETATM    8  C12 UNL     1      32.401   8.704  47.336  1.00  0.00     0.104 C 
HETATM    9  N5  UNL     1      33.165   9.565  47.153  1.00  0.00    -0.191 NA
HETATM   10  C13 UNL     1      30.148   8.011  47.538  1.00  0.00     0.069 A 
HETATM   11  C14 UNL     1      29.210   7.018  47.897  1.00  0.00     0.042 A 
HETATM   12  C15 UNL     1      27.912   7.420  47.887  1.00  0.00     0.048 A 
HETATM   13  N6  UNL     1      29.712   9.213  46.956  1.00  0.00    -0.364 N 
HETATM   14  C16 UNL     1      30.190   8.764  45.670  1.00  0.00     0.085 C 
HETATM   15  C17 UNL     1      30.964   8.009  44.946  1.00  0.00    -0.004 C 
HETATM   16  C18 UNL     1      31.994   6.983  44.517  1.00  0.00     0.056 C 
HETATM   17  C19 UNL     1      32.713   6.116  45.350  1.00  0.00     0.023 C 
HETATM   18  C20 UNL     1      33.236   5.388  46.556  1.00  0.00     0.018 C 
HETATM   19 BR1  UNL     1      34.669   4.156  46.160  1.00  0.00    -0.053 Br
HETATM   20  C21 UNL     1      32.886   5.450  47.869  1.00  0.00     0.070 C 
HETATM   21  H14 UNL     1      29.381   9.540  47.807  1.00  0.00     0.165 HD
ENDROOT
BRANCH  20  22
HETATM   22  N7  UNL     1      33.590   4.668  48.766  1.00  0.00    -0.396 N 
HETATM   23  H19 UNL     1      34.613   4.602  48.904  1.00  0.00     0.156 HD
HETATM   24  H20 UNL     1      33.002   4.051  49.391  1.00  0.00     0.156 HD
ENDBRANCH  20  22
BRANCH   1  25
HETATM   25  N2  UNL     1      25.533   7.121  48.194  1.00  0.00    -0.322 N 
HETATM   26  C6  UNL     1      25.362   7.688  49.508  1.00  0.00     0.245 C 
HETATM   27  O1  UNL     1      26.456   7.459  50.084  1.00  0.00    -0.268 OA
HETATM   28  H11 UNL     1      24.782   7.144  47.447  1.00  0.00     0.169 HD
BRANCH  26  29
HETATM   29  C5  UNL     1      24.096   8.360  49.898  1.00  0.00     0.072 C 
BRANCH  29  30
HETATM   30  C4  UNL     1      23.108   7.711  50.466  1.00  0.00     0.008 C 
BRANCH  30  31
HETATM   31  C3  UNL     1      21.873   7.032  50.824  1.00  0.00     0.299 C 
BRANCH  31  32
HETATM   32  N1  UNL     1      22.116   5.613  50.985  1.00  0.00     0.083 N 
HETATM   33  C1  UNL     1      23.309   5.370  51.780  1.00  0.00     0.309 C 
HETATM   34  C2  UNL     1      22.197   4.930  49.708  1.00  0.00     0.309 C 
ENDBRANCH  31  32
ENDBRANCH  30  31
ENDBRANCH  29  30
ENDBRANCH  26  29
ENDBRANCH   1  25
TORSDOF 6
ENDMDL
MODEL 4
REMARK VINA RESULT:      -7.4      2.205      4.029
REMARK  6 active torsions:
REMARK  status: ('A' for Active; 'I' for Inactive)
REMARK    1  A    between atoms: N1_2  and  C3_4 
REMARK    2  A    between atoms: C3_4  and  C4_5 
REMARK    3  A    between atoms: C4_5  and  C5_6 
REMARK    4  A    between atoms: C5_6  and  C6_7 
REMARK       I    between atoms: C6_7  and  N2_9 
REMARK    5  A    between atoms: N2_9  and  C7_10 
REMARK    6  A    between atoms: C21_29  and  N7_30 
ROOT
HETATM    1  C7  UNL     1      26.723   4.501  49.068  1.00  0.00     0.053 A 
HETATM    2  C8  UNL     1      25.825   5.563  49.196  1.00  0.00     0.148 A 
HETATM    3  N3  UNL     1      26.178   6.790  48.841  1.00  0.00    -0.238 NA
HETATM    4  C9  UNL     1      27.368   7.168  48.339  1.00  0.00     0.162 A 
HETATM    5  N4  UNL     1      27.829   8.359  47.936  1.00  0.00    -0.225 NA
HETATM    6  C10 UNL     1      29.087   8.548  47.425  1.00  0.00     0.109 A 
HETATM    7  C11 UNL     1      29.914   7.547  47.301  1.00  0.00     0.103 A 
HETATM    8  C12 UNL     1      31.225   7.629  46.638  1.00  0.00     0.104 C 
HETATM    9  N5  UNL     1      32.257   7.712  46.104  1.00  0.00    -0.191 NA
HETATM   10  C13 UNL     1      29.593   6.270  47.682  1.00  0.00     0.069 A 
HETATM   11  C14 UNL     1      28.289   6.120  48.201  1.00  0.00     0.042 A 
HETATM   12  C15 UNL     1      27.952   4.853  48.557  1.00  0.00     0.048 A 
HETATM   13  N6  UNL     1      30.524   5.224  47.804  1.00  0.00    -0.364 N 
HETATM   14  C16 UNL     1      31.209   5.956  48.843  1.00  0.00     0.085 C 
HETATM   15  C17 UNL     1      31.500   7.073  49.444  1.00  0.00    -0.004 C 
HETATM   16  C18 UNL     1      31.560   8.540  49.821  1.00  0.00     0.056 C 
HETATM   17  C19 UNL     1      30.834   9.586  49.237  1.00  0.00     0.023 C 
HETATM   18  C20 UNL     1      29.890  10.371  48.370  1.00  0.00     0.018 C 
HETATM   19 BR1  UNL     1      29.983  12.280  48.649  1.00  0.00    -0.053 Br
HETATM   20  C21 UNL     1      28.994   9.977  47.426  1.00  0.00     0.070 C 
HETATM   21  H14 UNL     1      30.083   4.711  47.110  1.00  0.00     0.165 HD
ENDROOT
BRANCH  20  22
HETATM   22  N7  UNL     1      28.280  10.956  46.760  1.00  0.00    -0.396 N 
HETATM   23  H19 UNL     1      27.298  11.250  46.899  1.00  0.00     0.156 HD
HETATM   24  H20 UNL     1      28.811  11.470  46.003  1.00  0.00     0.156 HD
ENDBRANCH  20  22
BRANCH   1  25
HETATM   25  N2  UNL     1      26.460   3.146  49.396  1.00  0.00    -0.322 N 
HETATM   26  C6  UNL     1      25.774   3.227  50.662  1.00  0.00     0.245 C 
HETATM   27  O1  UNL     1      25.730   4.460  50.906  1.00  0.00    -0.268 OA
HETATM   28  H11 UNL     1      26.665   2.231  48.902  1.00  0.00     0.169 HD
BRANCH  26  29
HETATM   29  C5  UNL     1      25.299   2.006  51.359  1.00  0.00     0.072 C 
BRANCH  29  30
HETATM   30  C4  UNL     1      26.098   1.261  52.086  1.00  0.00     0.008 C 
BRANCH  30  31
HETATM   31  C3  UNL     1      27.176   0.466  52.652  1.00  0.00     0.299 C 
BRANCH  31  32
HETATM   32  N1  UNL     1      27.685   1.103  53.849  1.00  0.00     0.083 N 
HETATM   33  C1  UNL     1      28.415   2.319  53.528  1.00  0.00     0.309 C 
HETATM   34  C2  UNL     1      28.503   0.200  54.636  1.00  0.00     0.309 C 
ENDBRANCH  31  32
ENDBRANCH  30  31
ENDBRANCH  29  30
ENDBRANCH  26  29
ENDBRANCH   1  25
TORSDOF 6
ENDMDL
MODEL 5
REMARK VINA RESULT:      -7.3      1.513      1.891
REMARK  6 active torsions:
REMARK  status: ('A' for Active; 'I' for Inactive)
REMARK    1  A    between atoms: N1_2  and  C3_4 
REMARK    2  A    between atoms: C3_4  and  C4_5 
REMARK    3  A    between atoms: C4_5  and  C5_6 
REMARK    4  A    between atoms: C5_6  and  C6_7 
REMARK       I    between atoms: C6_7  and  N2_9 
REMARK    5  A    between atoms: N2_9  and  C7_10 
REMARK    6  A    between atoms: C21_29  and  N7_30 
ROOT
HETATM    1  C7  UNL     1      25.146   3.526  50.249  1.00  0.00     0.053 A 
HETATM    2  C8  UNL     1      26.266   2.962  49.634  1.00  0.00     0.148 A 
HETATM    3  N3  UNL     1      27.179   3.733  49.060  1.00  0.00    -0.238 NA
HETATM    4  C9  UNL     1      27.163   5.077  48.990  1.00  0.00     0.162 A 
HETATM    5  N4  UNL     1      28.025   5.953  48.456  1.00  0.00    -0.225 NA
HETATM    6  C10 UNL     1      27.845   7.310  48.501  1.00  0.00     0.109 A 
HETATM    7  C11 UNL     1      26.799   7.827  49.087  1.00  0.00     0.103 A 
HETATM    8  C12 UNL     1      26.595   9.267  49.305  1.00  0.00     0.104 C 
HETATM    9  N5  UNL     1      26.454  10.411  49.474  1.00  0.00    -0.191 NA
HETATM   10  C13 UNL     1      25.822   7.060  49.667  1.00  0.00     0.069 A 
HETATM   11  C14 UNL     1      26.048   5.668  49.599  1.00  0.00     0.042 A 
HETATM   12  C15 UNL     1      25.098   4.900  50.196  1.00  0.00     0.048 A 
HETATM   13  N6  UNL     1      24.572   7.551  50.077  1.00  0.00    -0.364 N 
HETATM   14  C16 UNL     1      24.261   7.901  48.711  1.00  0.00     0.085 C 
HETATM   15  C17 UNL     1      24.636   8.190  47.499  1.00  0.00    -0.004 C 
HETATM   16  C18 UNL     1      25.485   8.461  46.273  1.00  0.00     0.056 C 
HETATM   17  C19 UNL     1      26.877   8.341  46.174  1.00  0.00     0.023 C 
HETATM   18  C20 UNL     1      28.323   8.083  46.492  1.00  0.00     0.018 C 
HETATM   19 BR1  UNL     1      29.529   8.537  45.053  1.00  0.00    -0.053 Br
HETATM   20  C21 UNL     1      28.928   7.596  47.609  1.00  0.00     0.070 C 
HETATM   21  H14 UNL     1      24.754   7.326  51.003  1.00  0.00     0.165 HD
ENDROOT
BRANCH  20  22
HETATM   22  N7  UNL     1      30.307   7.504  47.612  1.00  0.00    -0.396 N 
HETATM   23  H19 UNL     1      30.906   6.762  48.013  1.00  0.00     0.156 HD
HETATM   24  H20 UNL     1      30.817   8.304  47.144  1.00  0.00     0.156 HD
ENDBRANCH  20  22
BRANCH   1  25
HETATM   25  N2  UNL     1      24.113   2.811  50.909  1.00  0.00    -0.322 N 
HETATM   26  C6  UNL     1      23.174   2.516  49.855  1.00  0.00     0.245 C 
HETATM   27  O1  UNL     1      23.691   3.034  48.832  1.00  0.00    -0.268 OA
HETATM   28  H11 UNL     1      23.973   2.511  51.915  1.00  0.00     0.169 HD
BRANCH  26  29
HETATM   29  C5  UNL     1      21.932   1.750  50.124  1.00  0.00     0.072 C 
BRANCH  29  30
HETATM   30  C4  UNL     1      21.782   1.018  51.204  1.00  0.00     0.008 C 
BRANCH  30  31
HETATM   31  C3  UNL     1      21.576  -0.022  52.197  1.00  0.00     0.299 C 
BRANCH  31  32
HETATM   32  N1  UNL     1      22.222   0.345  53.441  1.00  0.00     0.083 N 
HETATM   33  C1  UNL     1      23.656   0.112  53.378  1.00  0.00     0.309 C 
HETATM   34  C2  UNL     1      21.636  -0.338  54.578  1.00  0.00     0.309 C 
ENDBRANCH  31  32
ENDBRANCH  30  31
ENDBRANCH  29  30
ENDBRANCH  26  29
ENDBRANCH   1  25
TORSDOF 6
ENDMDL
MODEL 6
REMARK VINA RESULT:      -7.3      4.325      8.821
REMARK  6 active torsions:
REMARK  status: ('A' for Active; 'I' for Inactive)
REMARK    1  A    between atoms: N1_2  and  C3_4 
REMARK    2  A    between atoms: C3_4  and  C4_5 
REMARK    3  A    between atoms: C4_5  and  C5_6 
REMARK    4  A    between atoms: C5_6  and  C6_7 
REMARK       I    between atoms: C6_7  and  N2_9 
REMARK    5  A    between atoms: N2_9  and  C7_10 
REMARK    6  A    between atoms: C21_29  and  N7_30 
ROOT
HETATM    1  C7  UNL     1      23.870   6.631  51.073  1.00  0.00     0.053 A 
HETATM    2  C8  UNL     1      22.716   7.258  50.599  1.00  0.00     0.148 A 
HETATM    3  N3  UNL     1      21.547   6.635  50.637  1.00  0.00    -0.238 NA
HETATM    4  C9  UNL     1      21.315   5.394  51.103  1.00  0.00     0.162 A 
HETATM    5  N4  UNL     1      20.189   4.675  51.204  1.00  0.00    -0.225 NA
HETATM    6  C10 UNL     1      20.146   3.412  51.735  1.00  0.00     0.109 A 
HETATM    7  C11 UNL     1      21.229   2.839  52.184  1.00  0.00     0.103 A 
HETATM    8  C12 UNL     1      21.255   1.551  52.894  1.00  0.00     0.104 C 
HETATM    9  N5  UNL     1      21.255   0.532  53.459  1.00  0.00    -0.191 NA
HETATM   10  C13 UNL     1      22.459   3.442  52.137  1.00  0.00     0.069 A 
HETATM   11  C14 UNL     1      22.458   4.741  51.585  1.00  0.00     0.042 A 
HETATM   12  C15 UNL     1      23.668   5.359  51.559  1.00  0.00     0.048 A 
HETATM   13  N6  UNL     1      23.675   2.777  52.368  1.00  0.00    -0.364 N 
HETATM   14  C16 UNL     1      23.430   1.932  51.224  1.00  0.00     0.085 C 
HETATM   15  C17 UNL     1      22.616   1.386  50.368  1.00  0.00    -0.004 C 
HETATM   16  C18 UNL     1      21.362   0.986  49.616  1.00  0.00     0.056 C 
HETATM   17  C19 UNL     1      20.062   1.456  49.843  1.00  0.00     0.023 C 
HETATM   18  C20 UNL     1      18.880   2.201  50.396  1.00  0.00     0.018 C 
HETATM   19 BR1  UNL     1      17.193   1.668  49.622  1.00  0.00    -0.053 Br
HETATM   20  C21 UNL     1      18.790   3.173  51.343  1.00  0.00     0.070 C 
HETATM   21  H14 UNL     1      23.865   3.331  53.142  1.00  0.00     0.165 HD
ENDROOT
BRANCH  20  22
HETATM   22  N7  UNL     1      17.533   3.647  51.669  1.00  0.00    -0.396 N 
HETATM   23  H19 UNL     1      16.617   3.178  51.566  1.00  0.00     0.156 HD
HETATM   24  H20 UNL     1      17.505   4.624  52.073  1.00  0.00     0.156 HD
ENDBRANCH  20  22
BRANCH   1  25
HETATM   25  N2  UNL     1      25.171   7.197  51.103  1.00  0.00    -0.322 N 
HETATM   26  C6  UNL     1      25.620   7.094  49.737  1.00  0.00     0.245 C 
HETATM   27  O1  UNL     1      24.660   6.541  49.141  1.00  0.00    -0.268 OA
HETATM   28  H11 UNL     1      25.755   7.622  51.878  1.00  0.00     0.169 HD
BRANCH  26  29
HETATM   29  C5  UNL     1      26.954   7.597  49.326  1.00  0.00     0.072 C 
BRANCH  29  30
HETATM   30  C4  UNL     1      27.754   6.904  48.550  1.00  0.00     0.008 C 
BRANCH  30  31
HETATM   31  C3  UNL     1      28.850   6.343  47.778  1.00  0.00     0.299 C 
BRANCH  31  32
HETATM   32  N1  UNL     1      30.086   6.445  48.526  1.00  0.00     0.083 N 
HETATM   33  C1  UNL     1      30.609   7.802  48.498  1.00  0.00     0.309 C 
HETATM   34  C2  UNL     1      31.081   5.497  48.061  1.00  0.00     0.309 C 
ENDBRANCH  31  32
ENDBRANCH  30  31
ENDBRANCH  29  30
ENDBRANCH  26  29
ENDBRANCH   1  25
TORSDOF 6
ENDMDL
MODEL 7
REMARK VINA RESULT:      -7.2      2.236      4.091
REMARK  6 active torsions:
REMARK  status: ('A' for Active; 'I' for Inactive)
REMARK    1  A    between atoms: N1_2  and  C3_4 
REMARK    2  A    between atoms: C3_4  and  C4_5 
REMARK    3  A    between atoms: C4_5  and  C5_6 
REMARK    4  A    between atoms: C5_6  and  C6_7 
REMARK       I    between atoms: C6_7  and  N2_9 
REMARK    5  A    between atoms: N2_9  and  C7_10 
REMARK    6  A    between atoms: C21_29  and  N7_30 
ROOT
HETATM    1  C7  UNL     1      25.712   5.558  49.848  1.00  0.00     0.053 A 
HETATM    2  C8  UNL     1      25.180   6.783  50.253  1.00  0.00     0.148 A 
HETATM    3  N3  UNL     1      25.749   7.920  49.880  1.00  0.00    -0.238 NA
HETATM    4  C9  UNL     1      26.844   8.054  49.110  1.00  0.00     0.162 A 
HETATM    5  N4  UNL     1      27.493   9.137  48.662  1.00  0.00    -0.225 NA
HETATM    6  C10 UNL     1      28.600   9.073  47.857  1.00  0.00     0.109 A 
HETATM    7  C11 UNL     1      29.083   7.923  47.476  1.00  0.00     0.103 A 
HETATM    8  C12 UNL     1      30.177   7.761  46.505  1.00  0.00     0.104 C 
HETATM    9  N5  UNL     1      31.040   7.652  45.730  1.00  0.00    -0.191 NA
HETATM   10  C13 UNL     1      28.538   6.726  47.864  1.00  0.00     0.069 A 
HETATM   11  C14 UNL     1      27.399   6.838  48.690  1.00  0.00     0.042 A 
HETATM   12  C15 UNL     1      26.835   5.657  49.058  1.00  0.00     0.048 A 
HETATM   13  N6  UNL     1      29.164   5.480  47.693  1.00  0.00    -0.364 N 
HETATM   14  C16 UNL     1      30.241   5.902  48.557  1.00  0.00     0.085 C 
HETATM   15  C17 UNL     1      30.946   6.841  49.117  1.00  0.00    -0.004 C 
HETATM   16  C18 UNL     1      31.475   8.198  49.538  1.00  0.00     0.056 C 
HETATM   17  C19 UNL     1      30.933   9.448  49.211  1.00  0.00     0.023 C 
HETATM   18  C20 UNL     1      30.051  10.530  48.654  1.00  0.00     0.018 C 
HETATM   19 BR1  UNL     1      30.703  12.316  48.993  1.00  0.00    -0.053 Br
HETATM   20  C21 UNL     1      28.887  10.473  47.952  1.00  0.00     0.070 C 
HETATM   21  H14 UNL     1      28.454   5.170  47.109  1.00  0.00     0.165 HD
ENDROOT
BRANCH  20  22
HETATM   22  N7  UNL     1      28.320  11.664  47.539  1.00  0.00    -0.396 N 
HETATM   23  H19 UNL     1      27.821  12.374  48.103  1.00  0.00     0.156 HD
HETATM   24  H20 UNL     1      28.404  11.874  46.506  1.00  0.00     0.156 HD
ENDBRANCH  20  22
BRANCH   1  25
HETATM   25  N2  UNL     1      25.188   4.278  50.165  1.00  0.00    -0.322 N 
HETATM   26  C6  UNL     1      24.117   4.102  49.216  1.00  0.00     0.245 C 
HETATM   27  O1  UNL     1      24.126   5.166  48.546  1.00  0.00    -0.268 OA
HETATM   28  H11 UNL     1      25.449   3.550  50.890  1.00  0.00     0.169 HD
BRANCH  26  29
HETATM   29  C5  UNL     1      23.303   2.861  49.195  1.00  0.00     0.072 C 
BRANCH  29  30
HETATM   30  C4  UNL     1      22.991   2.212  50.292  1.00  0.00     0.008 C 
BRANCH  30  31
HETATM   31  C3  UNL     1      22.714   1.243  51.340  1.00  0.00     0.299 C 
BRANCH  31  32
HETATM   32  N1  UNL     1      23.842   1.153  52.244  1.00  0.00     0.083 N 
HETATM   33  C1  UNL     1      23.693   0.035  53.162  1.00  0.00     0.309 C 
HETATM   34  C2  UNL     1      24.056   2.392  52.967  1.00  0.00     0.309 C 
ENDBRANCH  31  32
ENDBRANCH  30  31
ENDBRANCH  29  30
ENDBRANCH  26  29
ENDBRANCH   1  25
TORSDOF 6
ENDMDL
MODEL 8
REMARK VINA RESULT:      -7.2      3.297      8.202
REMARK  6 active torsions:
REMARK  status: ('A' for Active; 'I' for Inactive)
REMARK    1  A    between atoms: N1_2  and  C3_4 
REMARK    2  A    between atoms: C3_4  and  C4_5 
REMARK    3  A    between atoms: C4_5  and  C5_6 
REMARK    4  A    between atoms: C5_6  and  C6_7 
REMARK       I    between atoms: C6_7  and  N2_9 
REMARK    5  A    between atoms: N2_9  and  C7_10 
REMARK    6  A    between atoms: C21_29  and  N7_30 
ROOT
HETATM    1  C7  UNL     1      26.579   6.331  48.244  1.00  0.00     0.053 A 
HETATM    2  C8  UNL     1      27.785   5.697  48.549  1.00  0.00     0.148 A 
HETATM    3  N3  UNL     1      27.795   4.578  49.260  1.00  0.00    -0.238 NA
HETATM    4  C9  UNL     1      26.723   3.934  49.757  1.00  0.00     0.162 A 
HETATM    5  N4  UNL     1      26.612   2.804  50.469  1.00  0.00    -0.225 NA
HETATM    6  C10 UNL     1      25.411   2.285  50.876  1.00  0.00     0.109 A 
HETATM    7  C11 UNL     1      24.289   2.882  50.576  1.00  0.00     0.103 A 
HETATM    8  C12 UNL     1      22.954   2.327  50.848  1.00  0.00     0.104 C 
HETATM    9  N5  UNL     1      21.905   1.869  51.066  1.00  0.00    -0.191 NA
HETATM   10  C13 UNL     1      24.241   4.053  49.866  1.00  0.00     0.069 A 
HETATM   11  C14 UNL     1      25.499   4.552  49.465  1.00  0.00     0.042 A 
HETATM   12  C15 UNL     1      25.461   5.698  48.737  1.00  0.00     0.048 A 
HETATM   13  N6  UNL     1      23.094   4.855  49.741  1.00  0.00    -0.364 N 
HETATM   14  C16 UNL     1      23.092   5.074  51.168  1.00  0.00     0.085 C 
HETATM   15  C17 UNL     1      23.429   4.716  52.373  1.00  0.00    -0.004 C 
HETATM   16  C18 UNL     1      24.021   3.959  53.545  1.00  0.00     0.056 C 
HETATM   17  C19 UNL     1      24.838   2.823  53.483  1.00  0.00     0.023 C 
HETATM   18  C20 UNL     1      25.662   1.671  52.978  1.00  0.00     0.018 C 
HETATM   19 BR1  UNL     1      26.349   0.534  54.379  1.00  0.00    -0.053 Br
HETATM   20  C21 UNL     1      26.000   1.289  51.718  1.00  0.00     0.070 C 
HETATM   21  H14 UNL     1      23.072   4.725  48.780  1.00  0.00     0.165 HD
ENDROOT
BRANCH  20  22
HETATM   22  N7  UNL     1      26.755   0.141  51.569  1.00  0.00    -0.396 N 
HETATM   23  H19 UNL     1      26.746  -0.720  52.143  1.00  0.00     0.156 HD
HETATM   24  H20 UNL     1      27.437   0.146  50.761  1.00  0.00     0.156 HD
ENDBRANCH  20  22
BRANCH   1  25
HETATM   25  N2  UNL     1      26.435   7.518  47.479  1.00  0.00    -0.322 N 
HETATM   26  C6  UNL     1      26.598   8.572  48.450  1.00  0.00     0.245 C 
HETATM   27  O1  UNL     1      26.783   7.962  49.534  1.00  0.00    -0.268 OA
HETATM   28  H11 UNL     1      26.259   7.696  46.450  1.00  0.00     0.169 HD
BRANCH  26  29
HETATM   29  C5  UNL     1      26.534  10.000  48.052  1.00  0.00     0.072 C 
BRANCH  29  30
HETATM   30  C4  UNL     1      27.613  10.709  47.815  1.00  0.00     0.008 C 
BRANCH  30  31
HETATM   31  C3  UNL     1      28.954  11.253  47.681  1.00  0.00     0.299 C 
BRANCH  31  32
HETATM   32  N1  UNL     1      29.641  11.199  48.954  1.00  0.00     0.083 N 
HETATM   33  C1  UNL     1      30.731  12.161  49.006  1.00  0.00     0.309 C 
HETATM   34  C2  UNL     1      30.117   9.863  49.257  1.00  0.00     0.309 C 
ENDBRANCH  31  32
ENDBRANCH  30  31
ENDBRANCH  29  30
ENDBRANCH  26  29
ENDBRANCH   1  25
TORSDOF 6
ENDMDL
MODEL 9
REMARK VINA RESULT:      -7.1      3.791      8.472
REMARK  6 active torsions:
REMARK  status: ('A' for Active; 'I' for Inactive)
REMARK    1  A    between atoms: N1_2  and  C3_4 
REMARK    2  A    between atoms: C3_4  and  C4_5 
REMARK    3  A    between atoms: C4_5  and  C5_6 
REMARK    4  A    between atoms: C5_6  and  C6_7 
REMARK       I    between atoms: C6_7  and  N2_9 
REMARK    5  A    between atoms: N2_9  and  C7_10 
REMARK    6  A    between atoms: C21_29  and  N7_30 
ROOT
HETATM    1  C7  UNL     1      26.297   3.889  49.660  1.00  0.00     0.053 A 
HETATM    2  C8  UNL     1      26.795   3.179  50.753  1.00  0.00     0.148 A 
HETATM    3  N3  UNL     1      26.020   2.330  51.414  1.00  0.00    -0.238 NA
HETATM    4  C9  UNL     1      24.732   2.047  51.147  1.00  0.00     0.162 A 
HETATM    5  N4  UNL     1      23.864   1.207  51.728  1.00  0.00    -0.225 NA
HETATM    6  C10 UNL     1      22.575   1.038  51.296  1.00  0.00     0.109 A 
HETATM    7  C11 UNL     1      22.123   1.700  50.266  1.00  0.00     0.103 A 
HETATM    8  C12 UNL     1      20.806   1.479  49.649  1.00  0.00     0.104 C 
HETATM    9  N5  UNL     1      19.762   1.287  49.169  1.00  0.00    -0.191 NA
HETATM   10  C13 UNL     1      22.886   2.605  49.575  1.00  0.00     0.069 A 
HETATM   11  C14 UNL     1      24.207   2.748  50.053  1.00  0.00     0.042 A 
HETATM   12  C15 UNL     1      24.980   3.623  49.359  1.00  0.00     0.048 A 
HETATM   13  N6  UNL     1      22.375   3.516  48.636  1.00  0.00    -0.364 N 
HETATM   14  C16 UNL     1      21.582   4.137  49.670  1.00  0.00     0.085 C 
HETATM   15  C17 UNL     1      20.989   4.094  50.827  1.00  0.00    -0.004 C 
HETATM   16  C18 UNL     1      20.476   3.622  52.173  1.00  0.00     0.056 C 
HETATM   17  C19 UNL     1      20.752   2.397  52.794  1.00  0.00     0.023 C 
HETATM   18  C20 UNL     1      21.296   1.028  53.092  1.00  0.00     0.018 C 
HETATM   19 BR1  UNL     1      20.595   0.249  54.714  1.00  0.00    -0.053 Br
HETATM   20  C21 UNL     1      22.183   0.245  52.422  1.00  0.00     0.070 C 
HETATM   21  H14 UNL     1      22.897   3.118  47.922  1.00  0.00     0.165 HD
ENDROOT
BRANCH  20  22
HETATM   22  N7  UNL     1      22.463  -1.007  52.938  1.00  0.00    -0.396 N 
HETATM   23  H19 UNL     1      22.122  -1.930  52.620  1.00  0.00     0.156 HD
HETATM   24  H20 UNL     1      23.111  -1.019  53.774  1.00  0.00     0.156 HD
ENDBRANCH  20  22
BRANCH   1  25
HETATM   25  N2  UNL     1      27.028   4.810  48.864  1.00  0.00    -0.322 N 
HETATM   26  C6  UNL     1      26.514   6.095  49.269  1.00  0.00     0.245 C 
HETATM   27  O1  UNL     1      25.645   5.817  50.135  1.00  0.00    -0.268 OA
HETATM   28  H11 UNL     1      27.786   4.689  48.134  1.00  0.00     0.169 HD
BRANCH  26  29
HETATM   29  C5  UNL     1      27.035   7.352  48.677  1.00  0.00     0.072 C 
BRANCH  29  30
HETATM   30  C4  UNL     1      28.163   7.394  48.007  1.00  0.00     0.008 C 
BRANCH  30  31
HETATM   31  C3  UNL     1      29.227   7.426  47.018  1.00  0.00     0.299 C 
BRANCH  31  32
HETATM   32  N1  UNL     1      30.484   7.047  47.629  1.00  0.00     0.083 N 
HETATM   33  C1  UNL     1      30.509   5.629  47.947  1.00  0.00     0.309 C 
HETATM   34  C2  UNL     1      30.777   7.846  48.804  1.00  0.00     0.309 C 
ENDBRANCH  31  32
ENDBRANCH  30  31
ENDBRANCH  29  30
ENDBRANCH  26  29
ENDBRANCH   1  25
TORSDOF 6
ENDMDL
