MODEL 1
REMARK VINA RESULT:      -9.0      0.000      0.000
REMARK  2 active torsions:
REMARK  status: ('A' for Active; 'I' for Inactive)
REMARK    1  A    between atoms: C11_14  and  N4_15 
REMARK       I    between atoms: N4_15  and  C12_16 
REMARK    2  A    between atoms: C12_16  and  C13_18 
ROOT
HETATM    1  C1  UNL     1      22.022   4.505  52.253  1.00  0.00     0.076 C 
HETATM    2  C2  UNL     1      23.319   4.055  51.718  1.00  0.00     0.043 C 
HETATM    3  C3  UNL     1      23.968   3.731  50.616  1.00  0.00     0.033 C 
HETATM    4  C4  UNL     1      25.194   3.293  49.995  1.00  0.00     0.019 C 
HETATM    5  C5  UNL     1      26.349   3.023  50.557  1.00  0.00     0.090 C 
HETATM    6  N1  UNL     1      27.010   2.984  51.805  1.00  0.00    -0.350 N 
HETATM    7  C6  UNL     1      27.454   2.020  52.709  1.00  0.00     0.140 A 
HETATM    8  N2  UNL     1      28.654   2.374  53.253  1.00  0.00    -0.224 NA
HETATM    9  C7  UNL     1      29.274   1.591  54.153  1.00  0.00     0.234 A 
HETATM   10  N3  UNL     1      28.770   0.425  54.576  1.00  0.00    -0.253 NA
HETATM   11  C8  UNL     1      27.593   0.021  54.079  1.00  0.00     0.133 A 
HETATM   12  C9  UNL     1      26.962   0.817  53.163  1.00  0.00     0.029 A 
HETATM   13  C10 UNL     1      25.703   0.614  52.470  1.00  0.00     0.044 C 
HETATM   14  C11 UNL     1      24.714   1.470  52.543  1.00  0.00     0.037 C 
HETATM   15  C17 UNL     1      24.615   2.720  53.337  1.00  0.00     0.232 C 
HETATM   16  O4  UNL     1      24.443   3.798  52.433  1.00  0.00    -0.350 OA
HETATM   17  H7  UNL     1      27.138   3.993  51.984  1.00  0.00     0.166 HD
ENDROOT
BRANCH  14  18
HETATM   18  N4  UNL     1      23.575   1.080  51.782  1.00  0.00    -0.327 N 
HETATM   19  C12 UNL     1      22.609   0.493  52.610  1.00  0.00     0.247 C 
HETATM   20  O1  UNL     1      22.271   0.137  53.773  1.00  0.00    -0.271 OA
HETATM   21  H11 UNL     1      23.274   1.113  50.799  1.00  0.00     0.168 HD
BRANCH  19  22
HETATM   22  C13 UNL     1      21.290  -0.035  52.181  1.00  0.00     0.208 C 
HETATM   23  N5  UNL     1      21.075   0.306  50.787  1.00  0.00    -0.321 N 
HETATM   24  C14 UNL     1      20.360   1.544  50.860  1.00  0.00     0.361 C 
HETATM   25  H13 UNL     1      21.247  -0.012  49.808  1.00  0.00     0.165 HD
HETATM   26  O2  UNL     1      20.212   2.511  50.060  1.00  0.00    -0.238 OA
HETATM   27  O3  UNL     1      19.709   1.639  52.103  1.00  0.00    -0.296 OA
HETATM   28  C15 UNL     1      20.133   0.558  52.925  1.00  0.00     0.161 C 
HETATM   29  C16 UNL     1      19.012  -0.444  52.926  1.00  0.00     0.043 C 
ENDBRANCH  19  22
ENDBRANCH  14  18
TORSDOF 2
ENDMDL
MODEL 2
REMARK VINA RESULT:      -8.2      1.922      6.390
REMARK  2 active torsions:
REMARK  status: ('A' for Active; 'I' for Inactive)
REMARK    1  A    between atoms: C11_14  and  N4_15 
REMARK       I    between atoms: N4_15  and  C12_16 
REMARK    2  A    between atoms: C12_16  and  C13_18 
ROOT
HETATM    1  C1  UNL     1      24.864   3.096  49.694  1.00  0.00     0.076 C 
HETATM    2  C2  UNL     1      23.635   3.305  50.479  1.00  0.00     0.043 C 
HETATM    3  C3  UNL     1      23.035   4.111  51.334  1.00  0.00     0.033 C 
HETATM    4  C4  UNL     1      21.874   4.406  52.138  1.00  0.00     0.019 C 
HETATM    5  C5  UNL     1      20.760   3.722  52.257  1.00  0.00     0.090 C 
HETATM    6  N1  UNL     1      20.107   2.552  51.807  1.00  0.00    -0.350 N 
HETATM    7  C6  UNL     1      19.785   1.292  52.307  1.00  0.00     0.140 A 
HETATM    8  N2  UNL     1      18.548   0.898  51.885  1.00  0.00    -0.224 NA
HETATM    9  C7  UNL     1      18.029  -0.288  52.246  1.00  0.00     0.234 A 
HETATM   10  N3  UNL     1      18.674  -1.158  53.034  1.00  0.00    -0.253 NA
HETATM   11  C8  UNL     1      19.893  -0.830  53.482  1.00  0.00     0.133 A 
HETATM   12  C9  UNL     1      20.422   0.377  53.116  1.00  0.00     0.029 A 
HETATM   13  C10 UNL     1      21.698   0.975  53.463  1.00  0.00     0.044 C 
HETATM   14  C11 UNL     1      22.572   1.343  52.560  1.00  0.00     0.037 C 
HETATM   15  C17 UNL     1      22.512   1.194  51.085  1.00  0.00     0.232 C 
HETATM   16  O4  UNL     1      22.551   2.491  50.514  1.00  0.00    -0.350 OA
HETATM   17  H7  UNL     1      19.853   2.835  50.846  1.00  0.00     0.166 HD
ENDROOT
BRANCH  14  18
HETATM   18  N4  UNL     1      23.753   1.911  53.119  1.00  0.00    -0.327 N 
HETATM   19  C12 UNL     1      24.636   0.904  53.528  1.00  0.00     0.247 C 
HETATM   20  O1  UNL     1      24.876  -0.332  53.632  1.00  0.00    -0.271 OA
HETATM   21  H11 UNL     1      24.127   2.852  53.299  1.00  0.00     0.168 HD
BRANCH  19  22
HETATM   22  C13 UNL     1      25.968   1.105  54.153  1.00  0.00     0.208 C 
HETATM   23  N5  UNL     1      26.480   2.405  53.763  1.00  0.00    -0.321 N 
HETATM   24  C14 UNL     1      27.264   2.112  52.601  1.00  0.00     0.361 C 
HETATM   25  H13 UNL     1      26.481   3.418  54.014  1.00  0.00     0.165 HD
HETATM   26  O2  UNL     1      27.645   2.800  51.612  1.00  0.00    -0.238 OA
HETATM   27  O3  UNL     1      27.662   0.762  52.629  1.00  0.00    -0.296 OA
HETATM   28  C15 UNL     1      26.998   0.114  53.707  1.00  0.00     0.161 C 
HETATM   29  C16 UNL     1      28.012  -0.036  54.806  1.00  0.00     0.043 C 
ENDBRANCH  19  22
ENDBRANCH  14  18
TORSDOF 2
ENDMDL
MODEL 3
REMARK VINA RESULT:      -8.1      1.185      1.329
REMARK  2 active torsions:
REMARK  status: ('A' for Active; 'I' for Inactive)
REMARK    1  A    between atoms: C11_14  and  N4_15 
REMARK       I    between atoms: N4_15  and  C12_16 
REMARK    2  A    between atoms: C12_16  and  C13_18 
ROOT
HETATM    1  C1  UNL     1      22.102   4.863  51.131  1.00  0.00     0.076 C 
HETATM    2  C2  UNL     1      23.452   4.310  50.924  1.00  0.00     0.043 C 
HETATM    3  C3  UNL     1      24.338   3.964  50.009  1.00  0.00     0.033 C 
HETATM    4  C4  UNL     1      25.643   3.434  49.702  1.00  0.00     0.019 C 
HETATM    5  C5  UNL     1      26.584   3.035  50.525  1.00  0.00     0.090 C 
HETATM    6  N1  UNL     1      26.888   2.889  51.897  1.00  0.00    -0.350 N 
HETATM    7  C6  UNL     1      26.997   1.855  52.827  1.00  0.00     0.140 A 
HETATM    8  N2  UNL     1      28.038   2.073  53.682  1.00  0.00    -0.224 NA
HETATM    9  C7  UNL     1      28.332   1.204  54.664  1.00  0.00     0.234 A 
HETATM   10  N3  UNL     1      27.640   0.076  54.873  1.00  0.00    -0.253 NA
HETATM   11  C8  UNL     1      26.605  -0.195  54.066  1.00  0.00     0.133 A 
HETATM   12  C9  UNL     1      26.305   0.689  53.066  1.00  0.00     0.029 A 
HETATM   13  C10 UNL     1      25.260   0.633  52.061  1.00  0.00     0.044 C 
HETATM   14  C11 UNL     1      24.362   1.576  51.927  1.00  0.00     0.037 C 
HETATM   15  C17 UNL     1      24.162   2.801  52.740  1.00  0.00     0.232 C 
HETATM   16  O4  UNL     1      24.323   3.922  51.888  1.00  0.00    -0.350 OA
HETATM   17  H7  UNL     1      27.048   3.874  52.162  1.00  0.00     0.166 HD
ENDROOT
BRANCH  14  18
HETATM   18  N4  UNL     1      23.434   1.324  50.876  1.00  0.00    -0.327 N 
HETATM   19  C12 UNL     1      22.198   0.920  51.398  1.00  0.00     0.247 C 
HETATM   20  O1  UNL     1      21.499   0.666  52.419  1.00  0.00    -0.271 OA
HETATM   21  H11 UNL     1      23.427   1.359  49.847  1.00  0.00     0.168 HD
BRANCH  19  22
HETATM   22  C13 UNL     1      20.986   0.571  50.615  1.00  0.00     0.208 C 
HETATM   23  N5  UNL     1      21.248   0.813  49.208  1.00  0.00    -0.321 N 
HETATM   24  C14 UNL     1      20.775   2.151  49.013  1.00  0.00     0.361 C 
HETATM   25  H13 UNL     1      21.634   0.383  48.339  1.00  0.00     0.165 HD
HETATM   26  O2  UNL     1      21.040   3.052  48.168  1.00  0.00    -0.238 OA
HETATM   27  O3  UNL     1      19.821   2.461  50.000  1.00  0.00    -0.296 OA
HETATM   28  C15 UNL     1      19.790   1.406  50.953  1.00  0.00     0.161 C 
HETATM   29  C16 UNL     1      18.556   0.600  50.658  1.00  0.00     0.043 C 
ENDBRANCH  19  22
ENDBRANCH  14  18
TORSDOF 2
ENDMDL
MODEL 4
REMARK VINA RESULT:      -8.0      2.596      5.925
REMARK  2 active torsions:
REMARK  status: ('A' for Active; 'I' for Inactive)
REMARK    1  A    between atoms: C11_14  and  N4_15 
REMARK       I    between atoms: N4_15  and  C12_16 
REMARK    2  A    between atoms: C12_16  and  C13_18 
ROOT
HETATM    1  C1  UNL     1      21.797   0.509  53.952  1.00  0.00     0.076 C 
HETATM    2  C2  UNL     1      21.859   1.021  52.572  1.00  0.00     0.043 C 
HETATM    3  C3  UNL     1      21.833   0.672  51.300  1.00  0.00     0.033 C 
HETATM    4  C4  UNL     1      21.882   1.072  49.915  1.00  0.00     0.019 C 
HETATM    5  C5  UNL     1      22.001   2.278  49.411  1.00  0.00     0.090 C 
HETATM    6  N1  UNL     1      22.129   3.639  49.771  1.00  0.00    -0.350 N 
HETATM    7  C6  UNL     1      23.126   4.611  49.795  1.00  0.00     0.140 A 
HETATM    8  N2  UNL     1      22.634   5.829  49.422  1.00  0.00    -0.224 NA
HETATM    9  C7  UNL     1      23.420   6.918  49.371  1.00  0.00     0.234 A 
HETATM   10  N3  UNL     1      24.724   6.892  49.677  1.00  0.00    -0.253 NA
HETATM   11  C8  UNL     1      25.268   5.726  50.051  1.00  0.00     0.133 A 
HETATM   12  C9  UNL     1      24.469   4.617  50.103  1.00  0.00     0.029 A 
HETATM   13  C10 UNL     1      24.801   3.250  50.460  1.00  0.00     0.044 C 
HETATM   14  C11 UNL     1      24.200   2.611  51.432  1.00  0.00     0.037 C 
HETATM   15  C17 UNL     1      23.166   3.103  52.376  1.00  0.00     0.232 C 
HETATM   16  O4  UNL     1      22.001   2.316  52.196  1.00  0.00    -0.350 OA
HETATM   17  H7  UNL     1      21.165   3.844  50.081  1.00  0.00     0.166 HD
ENDROOT
BRANCH  14  18
HETATM   18  N4  UNL     1      24.675   1.280  51.609  1.00  0.00    -0.327 N 
HETATM   19  C12 UNL     1      25.951   1.286  52.187  1.00  0.00     0.247 C 
HETATM   20  O1  UNL     1      26.915   1.962  52.643  1.00  0.00    -0.271 OA
HETATM   21  H11 UNL     1      24.335   0.326  51.429  1.00  0.00     0.168 HD
BRANCH  19  22
HETATM   22  C13 UNL     1      26.767   0.093  52.524  1.00  0.00     0.208 C 
HETATM   23  N5  UNL     1      25.883  -0.988  52.916  1.00  0.00    -0.321 N 
HETATM   24  C14 UNL     1      25.812  -0.852  54.340  1.00  0.00     0.361 C 
HETATM   25  H13 UNL     1      25.315  -1.783  52.550  1.00  0.00     0.165 HD
HETATM   26  O2  UNL     1      24.964  -1.209  55.206  1.00  0.00    -0.238 OA
HETATM   27  O3  UNL     1      26.952  -0.171  54.805  1.00  0.00    -0.296 OA
HETATM   28  C15 UNL     1      27.689   0.304  53.685  1.00  0.00     0.161 C 
HETATM   29  C16 UNL     1      28.865  -0.620  53.525  1.00  0.00     0.043 C 
ENDBRANCH  19  22
ENDBRANCH  14  18
TORSDOF 2
ENDMDL
MODEL 5
REMARK VINA RESULT:      -7.9      2.110      4.140
REMARK  2 active torsions:
REMARK  status: ('A' for Active; 'I' for Inactive)
REMARK    1  A    between atoms: C11_14  and  N4_15 
REMARK       I    between atoms: N4_15  and  C12_16 
REMARK    2  A    between atoms: C12_16  and  C13_18 
ROOT
HETATM    1  C1  UNL     1      22.162   1.951  49.662  1.00  0.00     0.076 C 
HETATM    2  C2  UNL     1      22.613   1.382  50.944  1.00  0.00     0.043 C 
HETATM    3  C3  UNL     1      22.242   1.099  52.178  1.00  0.00     0.033 C 
HETATM    4  C4  UNL     1      22.585   0.559  53.471  1.00  0.00     0.019 C 
HETATM    5  C5  UNL     1      23.724   0.046  53.872  1.00  0.00     0.090 C 
HETATM    6  N1  UNL     1      25.036  -0.253  53.439  1.00  0.00    -0.350 N 
HETATM    7  C6  UNL     1      26.323   0.251  53.621  1.00  0.00     0.140 A 
HETATM    8  N2  UNL     1      27.236  -0.759  53.715  1.00  0.00    -0.224 NA
HETATM    9  C7  UNL     1      28.545  -0.507  53.893  1.00  0.00     0.234 A 
HETATM   10  N3  UNL     1      29.043   0.733  53.992  1.00  0.00    -0.253 NA
HETATM   11  C8  UNL     1      28.197   1.768  53.907  1.00  0.00     0.133 A 
HETATM   12  C9  UNL     1      26.865   1.513  53.726  1.00  0.00     0.029 A 
HETATM   13  C10 UNL     1      25.750   2.435  53.613  1.00  0.00     0.044 C 
HETATM   14  C11 UNL     1      24.958   2.458  52.571  1.00  0.00     0.037 C 
HETATM   15  C17 UNL     1      25.033   1.662  51.321  1.00  0.00     0.232 C 
HETATM   16  O4  UNL     1      23.846   0.893  51.221  1.00  0.00    -0.350 OA
HETATM   17  H7  UNL     1      24.856  -1.074  52.839  1.00  0.00     0.166 HD
ENDROOT
BRANCH  14  18
HETATM   18  N4  UNL     1      23.927   3.435  52.669  1.00  0.00    -0.327 N 
HETATM   19  C12 UNL     1      24.136   4.465  51.743  1.00  0.00     0.247 C 
HETATM   20  O1  UNL     1      24.852   4.944  50.820  1.00  0.00    -0.271 OA
HETATM   21  H11 UNL     1      23.078   3.586  53.231  1.00  0.00     0.168 HD
BRANCH  19  22
HETATM   22  C13 UNL     1      23.274   5.657  51.546  1.00  0.00     0.208 C 
HETATM   23  N5  UNL     1      22.057   5.492  52.319  1.00  0.00    -0.321 N 
HETATM   24  C14 UNL     1      21.152   4.899  51.380  1.00  0.00     0.361 C 
HETATM   25  H13 UNL     1      21.632   5.643  53.260  1.00  0.00     0.165 HD
HETATM   26  O2  UNL     1      20.113   4.190  51.503  1.00  0.00    -0.238 OA
HETATM   27  O3  UNL     1      21.561   5.210  50.071  1.00  0.00    -0.296 OA
HETATM   28  C15 UNL     1      22.830   5.851  50.129  1.00  0.00     0.161 C 
HETATM   29  C16 UNL     1      22.578   7.318  49.913  1.00  0.00     0.043 C 
ENDBRANCH  19  22
ENDBRANCH  14  18
TORSDOF 2
ENDMDL
MODEL 6
REMARK VINA RESULT:      -7.7      3.069      6.259
REMARK  2 active torsions:
REMARK  status: ('A' for Active; 'I' for Inactive)
REMARK    1  A    between atoms: C11_14  and  N4_15 
REMARK       I    between atoms: N4_15  and  C12_16 
REMARK    2  A    between atoms: C12_16  and  C13_18 
ROOT
HETATM    1  C1  UNL     1      21.582   1.005  52.779  1.00  0.00     0.076 C 
HETATM    2  C2  UNL     1      21.854   1.734  51.528  1.00  0.00     0.043 C 
HETATM    3  C3  UNL     1      22.193   1.594  50.261  1.00  0.00     0.033 C 
HETATM    4  C4  UNL     1      22.476   2.214  48.989  1.00  0.00     0.019 C 
HETATM    5  C5  UNL     1      22.459   3.487  48.673  1.00  0.00     0.090 C 
HETATM    6  N1  UNL     1      22.219   4.774  49.205  1.00  0.00    -0.350 N 
HETATM    7  C6  UNL     1      22.963   5.886  49.594  1.00  0.00     0.140 A 
HETATM    8  N2  UNL     1      22.332   7.045  49.248  1.00  0.00    -0.224 NA
HETATM    9  C7  UNL     1      22.868   8.247  49.525  1.00  0.00     0.234 A 
HETATM   10  N3  UNL     1      24.043   8.394  50.150  1.00  0.00    -0.253 NA
HETATM   11  C8  UNL     1      24.713   7.294  50.516  1.00  0.00     0.133 A 
HETATM   12  C9  UNL     1      24.168   6.071  50.235  1.00  0.00     0.029 A 
HETATM   13  C10 UNL     1      24.682   4.742  50.508  1.00  0.00     0.044 C 
HETATM   14  C11 UNL     1      24.017   3.862  51.215  1.00  0.00     0.037 C 
HETATM   15  C17 UNL     1      22.716   4.012  51.911  1.00  0.00     0.232 C 
HETATM   16  O4  UNL     1      21.810   3.077  51.350  1.00  0.00    -0.350 OA
HETATM   17  H7  UNL     1      21.188   4.759  49.279  1.00  0.00     0.166 HD
ENDROOT
BRANCH  14  18
HETATM   18  N4  UNL     1      24.701   2.621  51.356  1.00  0.00    -0.327 N 
HETATM   19  C12 UNL     1      25.088   2.421  52.687  1.00  0.00     0.247 C 
HETATM   20  O1  UNL     1      25.108   2.857  53.872  1.00  0.00    -0.271 OA
HETATM   21  H11 UNL     1      24.983   1.839  50.748  1.00  0.00     0.168 HD
BRANCH  19  22
HETATM   22  C13 UNL     1      25.819   1.244  53.221  1.00  0.00     0.208 C 
HETATM   23  N5  UNL     1      26.645   1.669  54.336  1.00  0.00    -0.321 N 
HETATM   24  C14 UNL     1      27.906   1.952  53.718  1.00  0.00     0.361 C 
HETATM   25  H13 UNL     1      26.647   1.831  55.366  1.00  0.00     0.165 HD
HETATM   26  O2  UNL     1      28.886   2.683  54.037  1.00  0.00    -0.238 OA
HETATM   27  O3  UNL     1      28.011   1.235  52.512  1.00  0.00    -0.296 OA
HETATM   28  C15 UNL     1      26.758   0.621  52.235  1.00  0.00     0.161 C 
HETATM   29  C16 UNL     1      26.909  -0.834  52.585  1.00  0.00     0.043 C 
ENDBRANCH  19  22
ENDBRANCH  14  18
TORSDOF 2
ENDMDL
MODEL 7
REMARK VINA RESULT:      -7.4      3.362      6.731
REMARK  2 active torsions:
REMARK  status: ('A' for Active; 'I' for Inactive)
REMARK    1  A    between atoms: C11_14  and  N4_15 
REMARK       I    between atoms: N4_15  and  C12_16 
REMARK    2  A    between atoms: C12_16  and  C13_18 
ROOT
HETATM    1  C1  UNL     1      26.608   4.325  49.188  1.00  0.00     0.076 C 
HETATM    2  C2  UNL     1      25.571   5.288  49.598  1.00  0.00     0.043 C 
HETATM    3  C3  UNL     1      25.299   6.279  50.427  1.00  0.00     0.033 C 
HETATM    4  C4  UNL     1      24.353   7.260  50.899  1.00  0.00     0.019 C 
HETATM    5  C5  UNL     1      23.129   7.489  50.485  1.00  0.00     0.090 C 
HETATM    6  N1  UNL     1      22.159   7.056  49.554  1.00  0.00    -0.350 N 
HETATM    7  C6  UNL     1      20.974   6.323  49.562  1.00  0.00     0.140 A 
HETATM    8  N2  UNL     1      20.060   6.857  48.699  1.00  0.00    -0.224 NA
HETATM    9  C7  UNL     1      18.841   6.313  48.543  1.00  0.00     0.234 A 
HETATM   10  N3  UNL     1      18.437   5.225  49.211  1.00  0.00    -0.253 NA
HETATM   11  C8  UNL     1      19.288   4.653  50.073  1.00  0.00     0.133 A 
HETATM   12  C9  UNL     1      20.529   5.206  50.233  1.00  0.00     0.029 A 
HETATM   13  C10 UNL     1      21.622   4.799  51.096  1.00  0.00     0.044 C 
HETATM   14  C11 UNL     1      22.811   4.504  50.634  1.00  0.00     0.037 C 
HETATM   15  C17 UNL     1      23.282   4.452  49.228  1.00  0.00     0.232 C 
HETATM   16  O4  UNL     1      24.323   5.402  49.081  1.00  0.00    -0.350 OA
HETATM   17  H7  UNL     1      22.547   7.448  48.680  1.00  0.00     0.166 HD
ENDROOT
BRANCH  14  18
HETATM   18  N4  UNL     1      23.735   4.136  51.653  1.00  0.00    -0.327 N 
HETATM   19  C12 UNL     1      23.558   2.795  52.016  1.00  0.00     0.247 C 
HETATM   20  O1  UNL     1      22.925   1.715  51.845  1.00  0.00    -0.271 OA
HETATM   21  H11 UNL     1      24.491   4.585  52.188  1.00  0.00     0.168 HD
BRANCH  19  22
HETATM   22  C13 UNL     1      24.334   2.052  53.041  1.00  0.00     0.208 C 
HETATM   23  N5  UNL     1      25.569   2.766  53.305  1.00  0.00    -0.321 N 
HETATM   24  C14 UNL     1      26.500   2.151  52.407  1.00  0.00     0.361 C 
HETATM   25  H13 UNL     1      25.995   3.523  53.883  1.00  0.00     0.165 HD
HETATM   26  O2  UNL     1      27.586   2.532  51.886  1.00  0.00    -0.238 OA
HETATM   27  O3  UNL     1      26.053   0.858  52.078  1.00  0.00    -0.296 OA
HETATM   28  C15 UNL     1      24.744   0.679  52.606  1.00  0.00     0.161 C 
HETATM   29  C16 UNL     1      24.893  -0.177  53.834  1.00  0.00     0.043 C 
ENDBRANCH  19  22
ENDBRANCH  14  18
TORSDOF 2
ENDMDL
MODEL 8
REMARK VINA RESULT:      -7.3      1.872      2.619
REMARK  2 active torsions:
REMARK  status: ('A' for Active; 'I' for Inactive)
REMARK    1  A    between atoms: C11_14  and  N4_15 
REMARK       I    between atoms: N4_15  and  C12_16 
REMARK    2  A    between atoms: C12_16  and  C13_18 
ROOT
HETATM    1  C1  UNL     1      22.043   6.586  51.036  1.00  0.00     0.076 C 
HETATM    2  C2  UNL     1      23.090   5.615  50.674  1.00  0.00     0.043 C 
HETATM    3  C3  UNL     1      23.650   4.970  49.669  1.00  0.00     0.033 C 
HETATM    4  C4  UNL     1      24.646   4.031  49.213  1.00  0.00     0.019 C 
HETATM    5  C5  UNL     1      25.537   3.372  49.916  1.00  0.00     0.090 C 
HETATM    6  N1  UNL     1      26.009   3.178  51.233  1.00  0.00    -0.350 N 
HETATM    7  C6  UNL     1      25.941   2.195  52.220  1.00  0.00     0.140 A 
HETATM    8  N2  UNL     1      27.127   2.087  52.887  1.00  0.00    -0.224 NA
HETATM    9  C7  UNL     1      27.294   1.200  53.883  1.00  0.00     0.234 A 
HETATM   10  N3  UNL     1      26.325   0.369  54.289  1.00  0.00    -0.253 NA
HETATM   11  C8  UNL     1      25.136   0.426  53.675  1.00  0.00     0.133 A 
HETATM   12  C9  UNL     1      24.966   1.328  52.660  1.00  0.00     0.029 A 
HETATM   13  C10 UNL     1      23.802   1.586  51.834  1.00  0.00     0.044 C 
HETATM   14  C11 UNL     1      23.241   2.767  51.757  1.00  0.00     0.037 C 
HETATM   15  C17 UNL     1      23.583   4.014  52.484  1.00  0.00     0.232 C 
HETATM   16  O4  UNL     1      23.944   4.994  51.525  1.00  0.00    -0.350 OA
HETATM   17  H7  UNL     1      26.517   4.064  51.386  1.00  0.00     0.166 HD
ENDROOT
BRANCH  14  18
HETATM   18  N4  UNL     1      22.115   2.799  50.884  1.00  0.00    -0.327 N 
HETATM   19  C12 UNL     1      20.933   2.976  51.614  1.00  0.00     0.247 C 
HETATM   20  O1  UNL     1      20.384   3.127  52.741  1.00  0.00    -0.271 OA
HETATM   21  H11 UNL     1      21.940   2.730  49.873  1.00  0.00     0.168 HD
BRANCH  19  22
HETATM   22  C13 UNL     1      19.561   3.062  51.054  1.00  0.00     0.208 C 
HETATM   23  N5  UNL     1      18.696   2.154  51.784  1.00  0.00    -0.321 N 
HETATM   24  C14 UNL     1      18.751   0.953  51.005  1.00  0.00     0.361 C 
HETATM   25  H13 UNL     1      18.084   2.070  52.625  1.00  0.00     0.165 HD
HETATM   26  O2  UNL     1      18.548  -0.265  51.270  1.00  0.00    -0.238 OA
HETATM   27  O3  UNL     1      19.110   1.267  49.681  1.00  0.00    -0.296 OA
HETATM   28  C15 UNL     1      19.469   2.642  49.619  1.00  0.00     0.161 C 
HETATM   29  C16 UNL     1      18.306   3.360  48.993  1.00  0.00     0.043 C 
ENDBRANCH  19  22
ENDBRANCH  14  18
TORSDOF 2
ENDMDL
MODEL 9
REMARK VINA RESULT:      -7.3      3.538      6.622
REMARK  2 active torsions:
REMARK  status: ('A' for Active; 'I' for Inactive)
REMARK    1  A    between atoms: C11_14  and  N4_15 
REMARK       I    between atoms: N4_15  and  C12_16 
REMARK    2  A    between atoms: C12_16  and  C13_18 
ROOT
HETATM    1  C1  UNL     1      22.156   5.356  47.496  1.00  0.00     0.076 C 
HETATM    2  C2  UNL     1      22.483   5.137  48.916  1.00  0.00     0.043 C 
HETATM    3  C3  UNL     1      22.604   5.727  50.090  1.00  0.00     0.033 C 
HETATM    4  C4  UNL     1      22.905   5.616  51.495  1.00  0.00     0.019 C 
HETATM    5  C5  UNL     1      23.244   4.550  52.182  1.00  0.00     0.090 C 
HETATM    6  N1  UNL     1      23.480   3.163  52.059  1.00  0.00    -0.350 N 
HETATM    7  C6  UNL     1      24.574   2.299  52.044  1.00  0.00     0.140 A 
HETATM    8  N2  UNL     1      24.294   1.141  52.710  1.00  0.00    -0.224 NA
HETATM    9  C7  UNL     1      25.205   0.159  52.823  1.00  0.00     0.234 A 
HETATM   10  N3  UNL     1      26.436   0.242  52.302  1.00  0.00    -0.253 NA
HETATM   11  C8  UNL     1      26.773   1.354  51.636  1.00  0.00     0.133 A 
HETATM   12  C9  UNL     1      25.846   2.354  51.520  1.00  0.00     0.029 A 
HETATM   13  C10 UNL     1      25.953   3.647  50.870  1.00  0.00     0.044 C 
HETATM   14  C11 UNL     1      25.142   4.023  49.913  1.00  0.00     0.037 C 
HETATM   15  C17 UNL     1      24.047   3.262  49.263  1.00  0.00     0.232 C 
HETATM   16  O4  UNL     1      22.835   3.961  49.491  1.00  0.00    -0.350 OA
HETATM   17  H7  UNL     1      22.513   2.814  51.958  1.00  0.00     0.166 HD
ENDROOT
BRANCH  14  18
HETATM   18  N4  UNL     1      25.421   5.330  49.420  1.00  0.00    -0.327 N 
HETATM   19  C12 UNL     1      26.682   5.367  48.811  1.00  0.00     0.247 C 
HETATM   20  O1  UNL     1      27.731   4.744  48.485  1.00  0.00    -0.271 OA
HETATM   21  H11 UNL     1      24.949   6.244  49.391  1.00  0.00     0.168 HD
BRANCH  19  22
HETATM   22  C13 UNL     1      27.317   6.551  48.181  1.00  0.00     0.208 C 
HETATM   23  N5  UNL     1      28.035   7.298  49.197  1.00  0.00    -0.321 N 
HETATM   24  C14 UNL     1      27.073   8.265  49.632  1.00  0.00     0.361 C 
HETATM   25  H13 UNL     1      28.949   7.377  49.693  1.00  0.00     0.165 HD
HETATM   26  O2  UNL     1      26.929   8.931  50.697  1.00  0.00    -0.238 OA
HETATM   27  O3  UNL     1      26.119   8.470  48.618  1.00  0.00    -0.296 OA
HETATM   28  C15 UNL     1      26.337   7.515  47.587  1.00  0.00     0.161 C 
HETATM   29  C16 UNL     1      27.020   8.247  46.465  1.00  0.00     0.043 C 
ENDBRANCH  19  22
ENDBRANCH  14  18
TORSDOF 2
ENDMDL
