MODEL 1
REMARK VINA RESULT:      -9.5      0.000      0.000
REMARK  4 active torsions:
REMARK  status: ('A' for Active; 'I' for Inactive)
REMARK    1  A    between atoms: C10_12  and  N1_13 
REMARK    2  A    between atoms: N1_13  and  C11_14 
REMARK    3  A    between atoms: C12_15  and  C13_16 
REMARK    4  A    between atoms: C14_17  and  C15_18 
ROOT
HETATM    1  F1  UNL     1      26.229  -0.192  52.976  1.00  0.00    -0.205 F 
HETATM    2  C1  UNL     1      24.935   0.187  52.872  1.00  0.00     0.128 A 
HETATM    3  C2  UNL     1      23.890  -0.519  53.342  1.00  0.00     0.043 A 
HETATM    4  C3  UNL     1      22.567  -0.044  53.195  1.00  0.00     0.004 A 
HETATM    5  C4  UNL     1      22.315   1.167  52.559  1.00  0.00     0.010 A 
HETATM    6  C5  UNL     1      23.358   1.946  52.048  1.00  0.00    -0.020 A 
HETATM    7  C6  UNL     1      24.635   1.368  52.258  1.00  0.00     0.029 A 
HETATM    8  C7  UNL     1      25.779   2.139  51.771  1.00  0.00     0.028 A 
HETATM    9 CL1  UNL     1      27.140   2.260  52.519  1.00  0.00    -0.175 Cl
HETATM   10  C8  UNL     1      26.164   2.878  50.764  1.00  0.00     0.121 A 
HETATM   11  C9  UNL     1      26.703   3.727  49.686  1.00  0.00     0.082 C 
HETATM   12  C10 UNL     1      26.147   5.097  49.531  1.00  0.00     0.017 C 
HETATM   13  C21 UNL     1      25.172   5.559  50.225  1.00  0.00     0.024 C 
HETATM   14  C22 UNL     1      24.125   5.450  51.259  1.00  0.00     0.197 C 
HETATM   15  O1  UNL     1      23.940   4.283  51.927  1.00  0.00    -0.383 OA
HETATM   16  C23 UNL     1      23.247   3.246  51.318  1.00  0.00     0.207 C 
ENDROOT
BRANCH  12  17
HETATM   17  N1  UNL     1      26.858   5.823  48.516  1.00  0.00    -0.319 N 
HETATM   18  H7  UNL     1      26.392   6.533  47.917  1.00  0.00     0.176 HD
BRANCH  17  19
HETATM   19  C11 UNL     1      28.212   5.615  48.268  1.00  0.00     0.015 C 
HETATM   20  C12 UNL     1      29.383   5.420  48.065  1.00  0.00    -0.055 C 
BRANCH  20  21
HETATM   21  C13 UNL     1      30.796   5.185  47.796  1.00  0.00     0.067 C 
HETATM   22  C14 UNL     1      31.192   4.175  47.001  1.00  0.00     0.020 C 
BRANCH  22  23
HETATM   23  C15 UNL     1      32.633   3.963  46.753  1.00  0.00    -0.036 A 
HETATM   24  C16 UNL     1      33.440   3.410  47.683  1.00  0.00     0.011 A 
HETATM   25  C17 UNL     1      34.756   3.281  47.314  1.00  0.00     0.001 A 
HETATM   26  C18 UNL     1      35.280   3.674  46.074  1.00  0.00     0.000 A 
HETATM   27  C19 UNL     1      34.348   4.234  45.187  1.00  0.00     0.001 A 
HETATM   28  C20 UNL     1      32.991   4.408  45.474  1.00  0.00     0.011 A 
ENDBRANCH  22  23
ENDBRANCH  20  21
ENDBRANCH  17  19
ENDBRANCH  12  17
TORSDOF 4
ENDMDL
MODEL 2
REMARK VINA RESULT:      -9.1      3.603      9.523
REMARK  4 active torsions:
REMARK  status: ('A' for Active; 'I' for Inactive)
REMARK    1  A    between atoms: C10_12  and  N1_13 
REMARK    2  A    between atoms: N1_13  and  C11_14 
REMARK    3  A    between atoms: C12_15  and  C13_16 
REMARK    4  A    between atoms: C14_17  and  C15_18 
ROOT
HETATM    1  F1  UNL     1      33.960   3.755  48.151  1.00  0.00    -0.205 F 
HETATM    2  C1  UNL     1      34.193   5.083  48.265  1.00  0.00     0.128 A 
HETATM    3  C2  UNL     1      35.401   5.631  48.495  1.00  0.00     0.043 A 
HETATM    4  C3  UNL     1      35.556   7.032  48.595  1.00  0.00     0.004 A 
HETATM    5  C4  UNL     1      34.460   7.878  48.458  1.00  0.00     0.010 A 
HETATM    6  C5  UNL     1      33.180   7.369  48.220  1.00  0.00    -0.020 A 
HETATM    7  C6  UNL     1      33.152   5.955  48.138  1.00  0.00     0.029 A 
HETATM    8  C7  UNL     1      31.847   5.351  47.866  1.00  0.00     0.028 A 
HETATM    9 CL1  UNL     1      31.625   4.119  46.938  1.00  0.00    -0.175 Cl
HETATM   10  C8  UNL     1      30.582   5.462  48.172  1.00  0.00     0.121 A 
HETATM   11  C9  UNL     1      29.133   5.494  48.443  1.00  0.00     0.082 C 
HETATM   12  C10 UNL     1      28.344   6.627  47.891  1.00  0.00     0.017 C 
HETATM   13  C21 UNL     1      28.857   7.619  47.260  1.00  0.00     0.024 C 
HETATM   14  C22 UNL     1      29.992   8.377  46.699  1.00  0.00     0.197 C 
HETATM   15  O1  UNL     1      31.264   7.933  46.869  1.00  0.00    -0.383 OA
HETATM   16  C23 UNL     1      31.907   8.142  48.081  1.00  0.00     0.207 C 
ENDROOT
BRANCH  12  17
HETATM   17  N1  UNL     1      26.943   6.445  48.149  1.00  0.00    -0.319 N 
HETATM   18  H7  UNL     1      26.224   7.094  47.772  1.00  0.00     0.176 HD
BRANCH  17  19
HETATM   19  C11 UNL     1      26.464   5.393  48.926  1.00  0.00     0.015 C 
HETATM   20  C12 UNL     1      26.067   4.481  49.605  1.00  0.00    -0.055 C 
BRANCH  20  21
HETATM   21  C13 UNL     1      25.567   3.391  50.433  1.00  0.00     0.067 C 
HETATM   22  C14 UNL     1      26.405   2.479  50.957  1.00  0.00     0.020 C 
BRANCH  22  23
HETATM   23  C15 UNL     1      25.865   1.384  51.788  1.00  0.00    -0.036 A 
HETATM   24  C16 UNL     1      26.623   0.332  52.160  1.00  0.00     0.011 A 
HETATM   25  C17 UNL     1      25.984  -0.611  52.926  1.00  0.00     0.001 A 
HETATM   26  C18 UNL     1      24.642  -0.539  53.326  1.00  0.00     0.000 A 
HETATM   27  C19 UNL     1      23.952   0.601  52.883  1.00  0.00     0.001 A 
HETATM   28  C20 UNL     1      24.517   1.611  52.099  1.00  0.00     0.011 A 
ENDBRANCH  22  23
ENDBRANCH  20  21
ENDBRANCH  17  19
ENDBRANCH  12  17
TORSDOF 4
ENDMDL
MODEL 3
REMARK VINA RESULT:      -8.8      2.415      3.572
REMARK  4 active torsions:
REMARK  status: ('A' for Active; 'I' for Inactive)
REMARK    1  A    between atoms: C10_12  and  N1_13 
REMARK    2  A    between atoms: N1_13  and  C11_14 
REMARK    3  A    between atoms: C12_15  and  C13_16 
REMARK    4  A    between atoms: C14_17  and  C15_18 
ROOT
HETATM    1  F1  UNL     1      24.772  -0.256  54.115  1.00  0.00    -0.205 F 
HETATM    2  C1  UNL     1      23.427  -0.371  54.037  1.00  0.00     0.128 A 
HETATM    3  C2  UNL     1      22.704  -1.328  54.647  1.00  0.00     0.043 A 
HETATM    4  C3  UNL     1      21.297  -1.372  54.516  1.00  0.00     0.004 A 
HETATM    5  C4  UNL     1      20.627  -0.425  53.749  1.00  0.00     0.010 A 
HETATM    6  C5  UNL     1      21.323   0.593  53.088  1.00  0.00    -0.020 A 
HETATM    7  C6  UNL     1      22.723   0.534  53.298  1.00  0.00     0.029 A 
HETATM    8  C7  UNL     1      23.515   1.584  52.656  1.00  0.00     0.028 A 
HETATM    9 CL1  UNL     1      24.751   2.274  53.307  1.00  0.00    -0.175 Cl
HETATM   10  C8  UNL     1      23.605   2.267  51.546  1.00  0.00     0.121 A 
HETATM   11  C9  UNL     1      23.800   3.096  50.342  1.00  0.00     0.082 C 
HETATM   12  C10 UNL     1      22.793   4.150  50.049  1.00  0.00     0.017 C 
HETATM   13  C21 UNL     1      21.723   4.330  50.734  1.00  0.00     0.024 C 
HETATM   14  C22 UNL     1      20.790   4.003  51.829  1.00  0.00     0.197 C 
HETATM   15  O1  UNL     1      21.037   2.947  52.647  1.00  0.00    -0.383 OA
HETATM   16  C23 UNL     1      20.752   1.661  52.209  1.00  0.00     0.207 C 
ENDROOT
BRANCH  12  17
HETATM   17  N1  UNL     1      23.192   4.933  48.914  1.00  0.00    -0.319 N 
HETATM   18  H7  UNL     1      22.533   5.165  48.144  1.00  0.00     0.176 HD
BRANCH  17  19
HETATM   19  C11 UNL     1      24.488   5.424  48.772  1.00  0.00     0.015 C 
HETATM   20  C12 UNL     1      25.602   5.865  48.657  1.00  0.00    -0.055 C 
BRANCH  20  21
HETATM   21  C13 UNL     1      26.960   6.378  48.528  1.00  0.00     0.067 C 
HETATM   22  C14 UNL     1      28.000   5.546  48.342  1.00  0.00     0.020 C 
BRANCH  22  23
HETATM   23  C15 UNL     1      29.365   6.099  48.220  1.00  0.00    -0.036 A 
HETATM   24  C16 UNL     1      30.437   5.308  48.007  1.00  0.00     0.011 A 
HETATM   25  C17 UNL     1      31.641   5.961  47.921  1.00  0.00     0.001 A 
HETATM   26  C18 UNL     1      31.806   7.349  48.037  1.00  0.00     0.000 A 
HETATM   27  C19 UNL     1      30.622   8.071  48.256  1.00  0.00     0.001 A 
HETATM   28  C20 UNL     1      29.353   7.493  48.359  1.00  0.00     0.011 A 
ENDBRANCH  22  23
ENDBRANCH  20  21
ENDBRANCH  17  19
ENDBRANCH  12  17
TORSDOF 4
ENDMDL
MODEL 4
REMARK VINA RESULT:      -8.8      2.154      3.231
REMARK  4 active torsions:
REMARK  status: ('A' for Active; 'I' for Inactive)
REMARK    1  A    between atoms: C10_12  and  N1_13 
REMARK    2  A    between atoms: N1_13  and  C11_14 
REMARK    3  A    between atoms: C12_15  and  C13_16 
REMARK    4  A    between atoms: C14_17  and  C15_18 
ROOT
HETATM    1  F1  UNL     1      20.385   0.018  52.258  1.00  0.00    -0.205 F 
HETATM    2  C1  UNL     1      21.405  -0.316  53.080  1.00  0.00     0.128 A 
HETATM    3  C2  UNL     1      21.316  -1.199  54.092  1.00  0.00     0.043 A 
HETATM    4  C3  UNL     1      22.438  -1.494  54.900  1.00  0.00     0.004 A 
HETATM    5  C4  UNL     1      23.661  -0.875  54.668  1.00  0.00     0.010 A 
HETATM    6  C5  UNL     1      23.817   0.054  53.634  1.00  0.00    -0.020 A 
HETATM    7  C6  UNL     1      22.627   0.263  52.893  1.00  0.00     0.029 A 
HETATM    8  C7  UNL     1      22.720   1.205  51.777  1.00  0.00     0.028 A 
HETATM    9 CL1  UNL     1      22.006   1.015  50.405  1.00  0.00    -0.175 Cl
HETATM   10  C8  UNL     1      23.252   2.350  51.444  1.00  0.00     0.121 A 
HETATM   11  C9  UNL     1      23.802   3.629  50.959  1.00  0.00     0.082 C 
HETATM   12  C10 UNL     1      25.265   3.709  50.703  1.00  0.00     0.017 C 
HETATM   13  C21 UNL     1      26.090   2.758  50.953  1.00  0.00     0.024 C 
HETATM   14  C22 UNL     1      26.436   1.411  51.444  1.00  0.00     0.197 C 
HETATM   15  O1  UNL     1      25.477   0.608  51.975  1.00  0.00    -0.383 OA
HETATM   16  C23 UNL     1      25.052   0.820  53.279  1.00  0.00     0.207 C 
ENDROOT
BRANCH  12  17
HETATM   17  N1  UNL     1      25.613   4.979  50.130  1.00  0.00    -0.319 N 
HETATM   18  H7  UNL     1      25.024   5.824  50.264  1.00  0.00     0.176 HD
BRANCH  17  19
HETATM   19  C11 UNL     1      26.757   5.153  49.356  1.00  0.00     0.015 C 
HETATM   20  C12 UNL     1      27.752   5.318  48.697  1.00  0.00    -0.055 C 
BRANCH  20  21
HETATM   21  C13 UNL     1      28.960   5.494  47.901  1.00  0.00     0.067 C 
HETATM   22  C14 UNL     1      30.169   5.567  48.485  1.00  0.00     0.020 C 
BRANCH  22  23
HETATM   23  C15 UNL     1      31.373   5.752  47.649  1.00  0.00    -0.036 A 
HETATM   24  C16 UNL     1      31.868   6.976  47.375  1.00  0.00     0.011 A 
HETATM   25  C17 UNL     1      32.988   6.993  46.580  1.00  0.00     0.001 A 
HETATM   26  C18 UNL     1      33.617   5.850  46.064  1.00  0.00     0.000 A 
HETATM   27  C19 UNL     1      33.015   4.632  46.416  1.00  0.00     0.001 A 
HETATM   28  C20 UNL     1      31.875   4.517  47.217  1.00  0.00     0.011 A 
ENDBRANCH  22  23
ENDBRANCH  20  21
ENDBRANCH  17  19
ENDBRANCH  12  17
TORSDOF 4
ENDMDL
MODEL 5
REMARK VINA RESULT:      -8.7      3.746      4.809
REMARK  4 active torsions:
REMARK  status: ('A' for Active; 'I' for Inactive)
REMARK    1  A    between atoms: C10_12  and  N1_13 
REMARK    2  A    between atoms: N1_13  and  C11_14 
REMARK    3  A    between atoms: C12_15  and  C13_16 
REMARK    4  A    between atoms: C14_17  and  C15_18 
ROOT
HETATM    1  F1  UNL     1      25.070  -0.318  54.475  1.00  0.00    -0.205 F 
HETATM    2  C1  UNL     1      23.909  -0.212  53.790  1.00  0.00     0.128 A 
HETATM    3  C2  UNL     1      22.797  -0.924  54.054  1.00  0.00     0.043 A 
HETATM    4  C3  UNL     1      21.621  -0.745  53.289  1.00  0.00     0.004 A 
HETATM    5  C4  UNL     1      21.588   0.171  52.244  1.00  0.00     0.010 A 
HETATM    6  C5  UNL     1      22.712   0.939  51.919  1.00  0.00    -0.020 A 
HETATM    7  C6  UNL     1      23.824   0.673  52.756  1.00  0.00     0.029 A 
HETATM    8  C7  UNL     1      25.031   1.458  52.491  1.00  0.00     0.028 A 
HETATM    9 CL1  UNL     1      25.974   2.020  53.597  1.00  0.00    -0.175 Cl
HETATM   10  C8  UNL     1      25.750   1.933  51.510  1.00  0.00     0.121 A 
HETATM   11  C9  UNL     1      26.635   2.518  50.485  1.00  0.00     0.082 C 
HETATM   12  C10 UNL     1      26.124   3.669  49.696  1.00  0.00     0.017 C 
HETATM   13  C21 UNL     1      24.933   4.135  49.795  1.00  0.00     0.024 C 
HETATM   14  C22 UNL     1      23.567   4.149  50.351  1.00  0.00     0.197 C 
HETATM   15  O1  UNL     1      23.185   3.207  51.253  1.00  0.00    -0.383 OA
HETATM   16  C23 UNL     1      22.841   1.937  50.813  1.00  0.00     0.207 C 
ENDROOT
BRANCH  12  17
HETATM   17  N1  UNL     1      27.146   4.185  48.829  1.00  0.00    -0.319 N 
HETATM   18  H7  UNL     1      27.747   3.563  48.253  1.00  0.00     0.176 HD
BRANCH  17  19
HETATM   19  C11 UNL     1      27.398   5.550  48.713  1.00  0.00     0.015 C 
HETATM   20  C12 UNL     1      27.634   6.726  48.606  1.00  0.00    -0.055 C 
BRANCH  20  21
HETATM   21  C13 UNL     1      27.898   8.152  48.465  1.00  0.00     0.067 C 
HETATM   22  C14 UNL     1      28.852   8.756  49.196  1.00  0.00     0.020 C 
BRANCH  22  23
HETATM   23  C15 UNL     1      29.091  10.205  49.032  1.00  0.00    -0.036 A 
HETATM   24  C16 UNL     1      28.081  11.071  48.808  1.00  0.00     0.011 A 
HETATM   25  C17 UNL     1      28.454  12.385  48.670  1.00  0.00     0.001 A 
HETATM   26  C18 UNL     1      29.774  12.852  48.748  1.00  0.00     0.000 A 
HETATM   27  C19 UNL     1      30.741  11.861  48.986  1.00  0.00     0.001 A 
HETATM   28  C20 UNL     1      30.456  10.501  49.137  1.00  0.00     0.011 A 
ENDBRANCH  22  23
ENDBRANCH  20  21
ENDBRANCH  17  19
ENDBRANCH  12  17
TORSDOF 4
ENDMDL
MODEL 6
REMARK VINA RESULT:      -8.5      4.212      5.901
REMARK  4 active torsions:
REMARK  status: ('A' for Active; 'I' for Inactive)
REMARK    1  A    between atoms: C10_12  and  N1_13 
REMARK    2  A    between atoms: N1_13  and  C11_14 
REMARK    3  A    between atoms: C12_15  and  C13_16 
REMARK    4  A    between atoms: C14_17  and  C15_18 
ROOT
HETATM    1  F1  UNL     1      18.918   0.950  49.442  1.00  0.00    -0.205 F 
HETATM    2  C1  UNL     1      18.847   0.410  50.680  1.00  0.00     0.128 A 
HETATM    3  C2  UNL     1      17.726  -0.088  51.235  1.00  0.00     0.043 A 
HETATM    4  C3  UNL     1      17.743  -0.641  52.535  1.00  0.00     0.004 A 
HETATM    5  C4  UNL     1      18.921  -0.683  53.273  1.00  0.00     0.010 A 
HETATM    6  C5  UNL     1      20.118  -0.180  52.752  1.00  0.00    -0.020 A 
HETATM    7  C6  UNL     1      19.976   0.344  51.443  1.00  0.00     0.029 A 
HETATM    8  C7  UNL     1      21.193   0.867  50.823  1.00  0.00     0.028 A 
HETATM    9 CL1  UNL     1      21.559   0.692  49.319  1.00  0.00    -0.175 Cl
HETATM   10  C8  UNL     1      22.268   1.559  51.096  1.00  0.00     0.121 A 
HETATM   11  C9  UNL     1      23.513   2.325  51.289  1.00  0.00     0.082 C 
HETATM   12  C10 UNL     1      24.597   1.705  52.094  1.00  0.00     0.017 C 
HETATM   13  C21 UNL     1      24.487   0.578  52.699  1.00  0.00     0.024 C 
HETATM   14  C22 UNL     1      23.747  -0.632  53.102  1.00  0.00     0.197 C 
HETATM   15  O1  UNL     1      22.449  -0.796  52.735  1.00  0.00    -0.383 OA
HETATM   16  C23 UNL     1      21.451  -0.126  53.428  1.00  0.00     0.207 C 
ENDROOT
BRANCH  12  17
HETATM   17  N1  UNL     1      25.773   2.529  52.087  1.00  0.00    -0.319 N 
HETATM   18  H7  UNL     1      26.421   2.572  52.897  1.00  0.00     0.176 HD
BRANCH  17  19
HETATM   19  C11 UNL     1      26.111   3.327  50.996  1.00  0.00     0.015 C 
HETATM   20  C12 UNL     1      26.403   4.032  50.064  1.00  0.00    -0.055 C 
BRANCH  20  21
HETATM   21  C13 UNL     1      26.774   4.869  48.931  1.00  0.00     0.067 C 
HETATM   22  C14 UNL     1      26.777   6.210  49.032  1.00  0.00     0.020 C 
BRANCH  22  23
HETATM   23  C15 UNL     1      27.154   7.030  47.862  1.00  0.00    -0.036 A 
HETATM   24  C16 UNL     1      28.422   7.077  47.405  1.00  0.00     0.011 A 
HETATM   25  C17 UNL     1      28.623   7.885  46.314  1.00  0.00     0.001 A 
HETATM   26  C18 UNL     1      27.620   8.631  45.677  1.00  0.00     0.000 A 
HETATM   27  C19 UNL     1      26.339   8.502  46.238  1.00  0.00     0.001 A 
HETATM   28  C20 UNL     1      26.040   7.706  47.347  1.00  0.00     0.011 A 
ENDBRANCH  22  23
ENDBRANCH  20  21
ENDBRANCH  17  19
ENDBRANCH  12  17
TORSDOF 4
ENDMDL
MODEL 7
REMARK VINA RESULT:      -8.4      5.179      8.223
REMARK  4 active torsions:
REMARK  status: ('A' for Active; 'I' for Inactive)
REMARK    1  A    between atoms: C10_12  and  N1_13 
REMARK    2  A    between atoms: N1_13  and  C11_14 
REMARK    3  A    between atoms: C12_15  and  C13_16 
REMARK    4  A    between atoms: C14_17  and  C15_18 
ROOT
HETATM    1  F1  UNL     1      20.359   0.136  52.156  1.00  0.00    -0.205 F 
HETATM    2  C1  UNL     1      21.316  -0.270  53.021  1.00  0.00     0.128 A 
HETATM    3  C2  UNL     1      21.121  -1.151  54.020  1.00  0.00     0.043 A 
HETATM    4  C3  UNL     1      22.181  -1.525  54.877  1.00  0.00     0.004 A 
HETATM    5  C4  UNL     1      23.452  -0.987  54.708  1.00  0.00     0.010 A 
HETATM    6  C5  UNL     1      23.717  -0.065  53.691  1.00  0.00    -0.020 A 
HETATM    7  C6  UNL     1      22.580   0.228  52.898  1.00  0.00     0.029 A 
HETATM    8  C7  UNL     1      22.788   1.168  51.796  1.00  0.00     0.028 A 
HETATM    9 CL1  UNL     1      22.129   1.034  50.390  1.00  0.00    -0.175 Cl
HETATM   10  C8  UNL     1      23.410   2.278  51.498  1.00  0.00     0.121 A 
HETATM   11  C9  UNL     1      24.065   3.520  51.051  1.00  0.00     0.082 C 
HETATM   12  C10 UNL     1      25.540   3.504  50.865  1.00  0.00     0.017 C 
HETATM   13  C21 UNL     1      26.288   2.500  51.145  1.00  0.00     0.024 C 
HETATM   14  C22 UNL     1      26.521   1.130  51.639  1.00  0.00     0.197 C 
HETATM   15  O1  UNL     1      25.487   0.389  52.117  1.00  0.00    -0.383 OA
HETATM   16  C23 UNL     1      25.015   0.620  53.402  1.00  0.00     0.207 C 
ENDROOT
BRANCH  12  17
HETATM   17  N1  UNL     1      25.998   4.752  50.321  1.00  0.00    -0.319 N 
HETATM   18  H7  UNL     1      26.996   4.914  50.078  1.00  0.00     0.176 HD
BRANCH  17  19
HETATM   19  C11 UNL     1      25.136   5.821  50.093  1.00  0.00     0.015 C 
HETATM   20  C12 UNL     1      24.401   6.757  49.908  1.00  0.00    -0.055 C 
BRANCH  20  21
HETATM   21  C13 UNL     1      23.513   7.886  49.661  1.00  0.00     0.067 C 
HETATM   22  C14 UNL     1      22.177   7.736  49.694  1.00  0.00     0.020 C 
BRANCH  22  23
HETATM   23  C15 UNL     1      21.305   8.900  49.433  1.00  0.00    -0.036 A 
HETATM   24  C16 UNL     1      21.731   9.961  48.716  1.00  0.00     0.011 A 
HETATM   25  C17 UNL     1      20.814  10.970  48.560  1.00  0.00     0.001 A 
HETATM   26  C18 UNL     1      19.512  10.954  49.084  1.00  0.00     0.000 A 
HETATM   27  C19 UNL     1      19.180   9.799  49.810  1.00  0.00     0.001 A 
HETATM   28  C20 UNL     1      20.047   8.724  50.022  1.00  0.00     0.011 A 
ENDBRANCH  22  23
ENDBRANCH  20  21
ENDBRANCH  17  19
ENDBRANCH  12  17
TORSDOF 4
ENDMDL
MODEL 8
REMARK VINA RESULT:      -8.3      4.557     10.233
REMARK  4 active torsions:
REMARK  status: ('A' for Active; 'I' for Inactive)
REMARK    1  A    between atoms: C10_12  and  N1_13 
REMARK    2  A    between atoms: N1_13  and  C11_14 
REMARK    3  A    between atoms: C12_15  and  C13_16 
REMARK    4  A    between atoms: C14_17  and  C15_18 
ROOT
HETATM    1  F1  UNL     1      31.681  11.683  48.207  1.00  0.00    -0.205 F 
HETATM    2  C1  UNL     1      32.305  10.761  47.439  1.00  0.00     0.128 A 
HETATM    3  C2  UNL     1      33.436  10.983  46.744  1.00  0.00     0.043 A 
HETATM    4  C3  UNL     1      34.026   9.959  45.969  1.00  0.00     0.004 A 
HETATM    5  C4  UNL     1      33.448   8.695  45.907  1.00  0.00     0.010 A 
HETATM    6  C5  UNL     1      32.272   8.403  46.605  1.00  0.00    -0.020 A 
HETATM    7  C6  UNL     1      31.779   9.506  47.345  1.00  0.00     0.029 A 
HETATM    8  C7  UNL     1      30.562   9.268  48.123  1.00  0.00     0.028 A 
HETATM    9 CL1  UNL     1      30.298   9.850  49.543  1.00  0.00    -0.175 Cl
HETATM   10  C8  UNL     1      29.407   8.661  48.058  1.00  0.00     0.121 A 
HETATM   11  C9  UNL     1      28.082   8.016  48.098  1.00  0.00     0.082 C 
HETATM   12  C10 UNL     1      28.028   6.534  48.198  1.00  0.00     0.017 C 
HETATM   13  C21 UNL     1      29.062   5.775  48.172  1.00  0.00     0.024 C 
HETATM   14  C22 UNL     1      30.514   5.532  48.074  1.00  0.00     0.197 C 
HETATM   15  O1  UNL     1      31.371   6.568  47.884  1.00  0.00    -0.383 OA
HETATM   16  C23 UNL     1      31.519   7.110  46.615  1.00  0.00     0.207 C 
ENDROOT
BRANCH  12  17
HETATM   17  N1  UNL     1      26.672   6.082  48.340  1.00  0.00    -0.319 N 
HETATM   18  H7  UNL     1      25.886   6.528  47.827  1.00  0.00     0.176 HD
BRANCH  17  19
HETATM   19  C11 UNL     1      26.328   5.024  49.177  1.00  0.00     0.015 C 
HETATM   20  C12 UNL     1      26.034   4.120  49.917  1.00  0.00    -0.055 C 
BRANCH  20  21
HETATM   21  C13 UNL     1      25.658   3.023  50.799  1.00  0.00     0.067 C 
HETATM   22  C14 UNL     1      26.540   2.061  51.123  1.00  0.00     0.020 C 
BRANCH  22  23
HETATM   23  C15 UNL     1      26.124   0.959  52.015  1.00  0.00    -0.036 A 
HETATM   24  C16 UNL     1      26.932  -0.090  52.275  1.00  0.00     0.011 A 
HETATM   25  C17 UNL     1      26.409  -1.039  53.117  1.00  0.00     0.001 A 
HETATM   26  C18 UNL     1      25.134  -0.976  53.697  1.00  0.00     0.000 A 
HETATM   27  C19 UNL     1      24.383   0.161  53.358  1.00  0.00     0.001 A 
HETATM   28  C20 UNL     1      24.831   1.177  52.508  1.00  0.00     0.011 A 
ENDBRANCH  22  23
ENDBRANCH  20  21
ENDBRANCH  17  19
ENDBRANCH  12  17
TORSDOF 4
ENDMDL
MODEL 9
REMARK VINA RESULT:      -8.3      5.203      8.950
REMARK  4 active torsions:
REMARK  status: ('A' for Active; 'I' for Inactive)
REMARK    1  A    between atoms: C10_12  and  N1_13 
REMARK    2  A    between atoms: N1_13  and  C11_14 
REMARK    3  A    between atoms: C12_15  and  C13_16 
REMARK    4  A    between atoms: C14_17  and  C15_18 
ROOT
HETATM    1  F1  UNL     1      31.338   9.097  47.844  1.00  0.00    -0.205 F 
HETATM    2  C1  UNL     1      30.533  10.125  48.196  1.00  0.00     0.128 A 
HETATM    3  C2  UNL     1      30.959  11.375  48.458  1.00  0.00     0.043 A 
HETATM    4  C3  UNL     1      30.046  12.394  48.815  1.00  0.00     0.004 A 
HETATM    5  C4  UNL     1      28.685  12.126  48.905  1.00  0.00     0.010 A 
HETATM    6  C5  UNL     1      28.181  10.847  48.647  1.00  0.00    -0.020 A 
HETATM    7  C6  UNL     1      29.189   9.915  48.298  1.00  0.00     0.029 A 
HETATM    8  C7  UNL     1      28.734   8.559  47.989  1.00  0.00     0.028 A 
HETATM    9 CL1  UNL     1      29.328   7.668  46.858  1.00  0.00    -0.175 Cl
HETATM   10  C8  UNL     1      27.883   7.649  48.383  1.00  0.00     0.121 A 
HETATM   11  C9  UNL     1      26.963   6.552  48.737  1.00  0.00     0.082 C 
HETATM   12  C10 UNL     1      25.515   6.736  48.457  1.00  0.00     0.017 C 
HETATM   13  C21 UNL     1      25.005   7.821  48.000  1.00  0.00     0.024 C 
HETATM   14  C22 UNL     1      25.084   9.217  47.530  1.00  0.00     0.197 C 
HETATM   15  O1  UNL     1      26.272   9.876  47.539  1.00  0.00    -0.383 OA
HETATM   16  C23 UNL     1      26.757  10.398  48.730  1.00  0.00     0.207 C 
ENDROOT
BRANCH  12  17
HETATM   17  N1  UNL     1      24.782   5.537  48.755  1.00  0.00    -0.319 N 
HETATM   18  H7  UNL     1      23.778   5.430  48.511  1.00  0.00     0.176 HD
BRANCH  17  19
HETATM   19  C11 UNL     1      25.372   4.449  49.393  1.00  0.00     0.015 C 
HETATM   20  C12 UNL     1      25.868   3.509  49.960  1.00  0.00    -0.055 C 
BRANCH  20  21
HETATM   21  C13 UNL     1      26.469   2.360  50.624  1.00  0.00     0.067 C 
HETATM   22  C14 UNL     1      26.861   2.429  51.909  1.00  0.00     0.020 C 
BRANCH  22  23
HETATM   23  C15 UNL     1      27.471   1.246  52.550  1.00  0.00    -0.036 A 
HETATM   24  C16 UNL     1      26.986   0.002  52.357  1.00  0.00     0.011 A 
HETATM   25  C17 UNL     1      27.651  -0.997  53.022  1.00  0.00     0.001 A 
HETATM   26  C18 UNL     1      28.763  -0.800  53.854  1.00  0.00     0.000 A 
HETATM   27  C19 UNL     1      29.181   0.535  53.979  1.00  0.00     0.001 A 
HETATM   28  C20 UNL     1      28.566   1.617  53.343  1.00  0.00     0.011 A 
ENDBRANCH  22  23
ENDBRANCH  20  21
ENDBRANCH  17  19
ENDBRANCH  12  17
TORSDOF 4
ENDMDL
