MODEL 1
REMARK VINA RESULT:      -7.1      0.000      0.000
REMARK  6 active torsions:
REMARK  status: ('A' for Active; 'I' for Inactive)
REMARK    1  A    between atoms: N1_2  and  N2_3 
REMARK    2  A    between atoms: N3_4  and  C2_5 
REMARK    3  A    between atoms: C2_5  and  C3_6 
REMARK    4  A    between atoms: C7_12  and  C8_13 
REMARK    5  A    between atoms: C8_13  and  N6_14 
REMARK    6  A    between atoms: N6_14  and  C9_15 
ROOT
HETATM    1  C3  UNL     1      24.376   0.048  53.598  1.00  0.00     0.007 A 
HETATM    2  C4  UNL     1      24.848   0.929  52.728  1.00  0.00     0.100 A 
HETATM    3  N4  UNL     1      24.056   1.463  51.652  1.00  0.00    -0.360 N 
HETATM    4  C5  UNL     1      22.701   1.016  51.525  1.00  0.00     0.207 A 
HETATM    5  N5  UNL     1      22.242   0.157  52.374  1.00  0.00    -0.244 NA
HETATM    6  C6  UNL     1      22.996  -0.386  53.444  1.00  0.00     0.065 A 
HETATM    7  C7  UNL     1      22.417  -1.263  54.254  1.00  0.00     0.025 C 
HETATM    8  H8  UNL     1      24.504   2.156  51.005  1.00  0.00     0.166 HD
ENDROOT
BRANCH   1   9
HETATM    9  C2  UNL     1      25.203  -0.505  54.717  1.00  0.00     0.217 C 
BRANCH   9  10
HETATM   10  N3  UNL     1      26.515  -0.753  54.155  1.00  0.00    -0.171 NA
HETATM   11  N2  UNL     1      27.584  -0.456  54.787  1.00  0.00    -0.079 NA
BRANCH  11  12
HETATM   12  N1  UNL     1      28.780  -0.739  54.152  1.00  0.00    -0.300 N 
HETATM   13  C1  UNL     1      30.112  -1.045  53.738  1.00  0.00     0.171 C 
HETATM   14  H4  UNL     1      28.028  -0.598  53.436  1.00  0.00     0.183 HD
ENDBRANCH  11  12
ENDBRANCH   9  10
ENDBRANCH   1   9
BRANCH   7  15
HETATM   15  C8  UNL     1      21.014  -1.710  54.105  1.00  0.00     0.149 C 
BRANCH  15  16
HETATM   16  N6  UNL     1      20.064  -0.630  54.113  1.00  0.00    -0.386 N 
HETATM   17  H13 UNL     1      20.164   0.208  54.732  1.00  0.00     0.160 HD
BRANCH  16  18
HETATM   18  C9  UNL     1      18.930  -0.701  53.237  1.00  0.00     0.029 A 
HETATM   19  C10 UNL     1      17.892  -1.560  53.527  1.00  0.00     0.029 A 
HETATM   20  C11 UNL     1      16.816  -1.605  52.665  1.00  0.00     0.004 A 
HETATM   21  C12 UNL     1      16.747  -0.820  51.526  1.00  0.00     0.024 A 
HETATM   22  C13 UNL     1      17.778   0.043  51.226  1.00  0.00     0.036 A 
HETATM   23 CL1  UNL     1      17.746   1.065  49.793  1.00  0.00    -0.084 Cl
HETATM   24  C14 UNL     1      18.856   0.080  52.099  1.00  0.00     0.052 A 
ENDBRANCH  16  18
ENDBRANCH  15  16
ENDBRANCH   7  15
TORSDOF 6
ENDMDL
MODEL 2
REMARK VINA RESULT:      -7.1      5.266      8.547
REMARK  6 active torsions:
REMARK  status: ('A' for Active; 'I' for Inactive)
REMARK    1  A    between atoms: N1_2  and  N2_3 
REMARK    2  A    between atoms: N3_4  and  C2_5 
REMARK    3  A    between atoms: C2_5  and  C3_6 
REMARK    4  A    between atoms: C7_12  and  C8_13 
REMARK    5  A    between atoms: C8_13  and  N6_14 
REMARK    6  A    between atoms: N6_14  and  C9_15 
ROOT
HETATM    1  C3  UNL     1      27.365   0.134  52.884  1.00  0.00     0.007 A 
HETATM    2  C4  UNL     1      28.270  -0.055  53.834  1.00  0.00     0.100 A 
HETATM    3  N4  UNL     1      29.098   1.005  54.343  1.00  0.00    -0.360 N 
HETATM    4  C5  UNL     1      28.930   2.317  53.793  1.00  0.00     0.207 A 
HETATM    5  N5  UNL     1      28.048   2.500  52.867  1.00  0.00    -0.244 NA
HETATM    6  C6  UNL     1      27.217   1.478  52.345  1.00  0.00     0.065 A 
HETATM    7  C7  UNL     1      26.345   1.785  51.393  1.00  0.00     0.025 C 
HETATM    8  H8  UNL     1      29.791   0.773  55.095  1.00  0.00     0.166 HD
ENDROOT
BRANCH   1   9
HETATM    9  C2  UNL     1      26.503  -0.971  52.357  1.00  0.00     0.217 C 
BRANCH   9  10
HETATM   10  N3  UNL     1      25.436  -1.136  53.323  1.00  0.00    -0.171 NA
HETATM   11  N2  UNL     1      24.324  -0.518  53.208  1.00  0.00    -0.079 NA
BRANCH  11  12
HETATM   12  N1  UNL     1      23.379  -0.753  54.190  1.00  0.00    -0.300 N 
HETATM   13  C1  UNL     1      22.251  -1.074  55.006  1.00  0.00     0.171 C 
HETATM   14  H4  UNL     1      24.257  -0.385  54.630  1.00  0.00     0.183 HD
ENDBRANCH  11  12
ENDBRANCH   9  10
ENDBRANCH   1   9
BRANCH   7  15
HETATM   15  C8  UNL     1      26.188   3.148  50.839  1.00  0.00     0.149 C 
BRANCH  15  16
HETATM   16  N6  UNL     1      26.711   3.290  49.507  1.00  0.00    -0.386 N 
HETATM   17  H13 UNL     1      26.951   2.470  48.902  1.00  0.00     0.160 HD
BRANCH  16  18
HETATM   18  C9  UNL     1      26.916   4.609  48.981  1.00  0.00     0.029 A 
HETATM   19  C10 UNL     1      25.866   5.501  48.940  1.00  0.00     0.029 A 
HETATM   20  C11 UNL     1      26.095   6.761  48.428  1.00  0.00     0.004 A 
HETATM   21  C12 UNL     1      27.337   7.156  47.959  1.00  0.00     0.024 A 
HETATM   22  C13 UNL     1      28.394   6.273  47.997  1.00  0.00     0.036 A 
HETATM   23 CL1  UNL     1      29.995   6.717  47.415  1.00  0.00    -0.084 Cl
HETATM   24  C14 UNL     1      28.153   5.008  48.512  1.00  0.00     0.052 A 
ENDBRANCH  16  18
ENDBRANCH  15  16
ENDBRANCH   7  15
TORSDOF 6
ENDMDL
MODEL 3
REMARK VINA RESULT:      -7.0      3.182      5.446
REMARK  6 active torsions:
REMARK  status: ('A' for Active; 'I' for Inactive)
REMARK    1  A    between atoms: N1_2  and  N2_3 
REMARK    2  A    between atoms: N3_4  and  C2_5 
REMARK    3  A    between atoms: C2_5  and  C3_6 
REMARK    4  A    between atoms: C7_12  and  C8_13 
REMARK    5  A    between atoms: C8_13  and  N6_14 
REMARK    6  A    between atoms: N6_14  and  C9_15 
ROOT
HETATM    1  C3  UNL     1      27.847  -0.049  53.317  1.00  0.00     0.007 A 
HETATM    2  C4  UNL     1      28.681   0.003  54.346  1.00  0.00     0.100 A 
HETATM    3  N4  UNL     1      29.297   1.227  54.787  1.00  0.00    -0.360 N 
HETATM    4  C5  UNL     1      28.989   2.432  54.078  1.00  0.00     0.207 A 
HETATM    5  N5  UNL     1      28.176   2.379  53.075  1.00  0.00    -0.244 NA
HETATM    6  C6  UNL     1      27.553   1.192  52.616  1.00  0.00     0.065 A 
HETATM    7  C7  UNL     1      26.735   1.260  51.574  1.00  0.00     0.025 C 
HETATM    8  H8  UNL     1      29.946   1.184  55.610  1.00  0.00     0.166 HD
ENDROOT
BRANCH   1   9
HETATM    9  C2  UNL     1      27.206  -1.323  52.860  1.00  0.00     0.217 C 
BRANCH   9  10
HETATM   10  N3  UNL     1      25.868  -1.315  53.417  1.00  0.00    -0.171 NA
HETATM   11  N2  UNL     1      25.653  -1.025  54.642  1.00  0.00    -0.079 NA
BRANCH  11  12
HETATM   12  N1  UNL     1      24.335  -1.049  55.062  1.00  0.00    -0.300 N 
HETATM   13  C1  UNL     1      22.963  -1.302  55.369  1.00  0.00     0.171 C 
HETATM   14  H4  UNL     1      24.798  -0.177  55.414  1.00  0.00     0.183 HD
ENDBRANCH  11  12
ENDBRANCH   9  10
ENDBRANCH   1   9
BRANCH   7  15
HETATM   15  C8  UNL     1      26.431   2.518  50.856  1.00  0.00     0.149 C 
BRANCH  15  16
HETATM   16  N6  UNL     1      25.278   3.208  51.370  1.00  0.00    -0.386 N 
HETATM   17  H13 UNL     1      25.303   4.213  51.662  1.00  0.00     0.160 HD
BRANCH  16  18
HETATM   18  C9  UNL     1      24.041   2.493  51.490  1.00  0.00     0.029 A 
HETATM   19  C10 UNL     1      23.563   2.152  52.737  1.00  0.00     0.029 A 
HETATM   20  C11 UNL     1      22.370   1.465  52.818  1.00  0.00     0.004 A 
HETATM   21  C12 UNL     1      21.643   1.109  51.694  1.00  0.00     0.024 A 
HETATM   22  C13 UNL     1      22.110   1.444  50.443  1.00  0.00     0.036 A 
HETATM   23 CL1  UNL     1      21.230   1.018  48.978  1.00  0.00    -0.084 Cl
HETATM   24  C14 UNL     1      23.311   2.135  50.371  1.00  0.00     0.052 A 
ENDBRANCH  16  18
ENDBRANCH  15  16
ENDBRANCH   7  15
TORSDOF 6
ENDMDL
MODEL 4
REMARK VINA RESULT:      -7.0      1.282      1.640
REMARK  6 active torsions:
REMARK  status: ('A' for Active; 'I' for Inactive)
REMARK    1  A    between atoms: N1_2  and  N2_3 
REMARK    2  A    between atoms: N3_4  and  C2_5 
REMARK    3  A    between atoms: C2_5  and  C3_6 
REMARK    4  A    between atoms: C7_12  and  C8_13 
REMARK    5  A    between atoms: C8_13  and  N6_14 
REMARK    6  A    between atoms: N6_14  and  C9_15 
ROOT
HETATM    1  C3  UNL     1      24.389   0.157  53.362  1.00  0.00     0.007 A 
HETATM    2  C4  UNL     1      25.111   0.733  52.411  1.00  0.00     0.100 A 
HETATM    3  N4  UNL     1      24.542   1.621  51.432  1.00  0.00    -0.360 N 
HETATM    4  C5  UNL     1      23.135   1.887  51.498  1.00  0.00     0.207 A 
HETATM    5  N5  UNL     1      22.434   1.324  52.425  1.00  0.00    -0.244 NA
HETATM    6  C6  UNL     1      22.964   0.446  53.403  1.00  0.00     0.065 A 
HETATM    7  C7  UNL     1      22.144  -0.072  54.308  1.00  0.00     0.025 C 
HETATM    8  H8  UNL     1      25.180   2.036  50.711  1.00  0.00     0.166 HD
ENDROOT
BRANCH   1   9
HETATM    9  C2  UNL     1      24.984  -0.766  54.380  1.00  0.00     0.217 C 
BRANCH   9  10
HETATM   10  N3  UNL     1      26.389  -0.877  54.040  1.00  0.00    -0.171 NA
HETATM   11  N2  UNL     1      27.303  -0.432  54.813  1.00  0.00    -0.079 NA
BRANCH  11  12
HETATM   12  N1  UNL     1      28.609  -0.593  54.386  1.00  0.00    -0.300 N 
HETATM   13  C1  UNL     1      29.851  -0.789  53.708  1.00  0.00     0.171 C 
HETATM   14  H4  UNL     1      28.597  -0.427  55.421  1.00  0.00     0.183 HD
ENDBRANCH  11  12
ENDBRANCH   9  10
ENDBRANCH   1   9
BRANCH   7  15
HETATM   15  C8  UNL     1      20.694   0.217  54.358  1.00  0.00     0.149 C 
BRANCH  15  16
HETATM   16  N6  UNL     1      19.872  -0.909  54.002  1.00  0.00    -0.386 N 
HETATM   17  H13 UNL     1      19.978  -1.851  54.447  1.00  0.00     0.160 HD
BRANCH  16  18
HETATM   18  C9  UNL     1      18.866  -0.739  52.995  1.00  0.00     0.029 A 
HETATM   19  C10 UNL     1      19.120   0.056  51.898  1.00  0.00     0.029 A 
HETATM   20  C11 UNL     1      18.131   0.199  50.948  1.00  0.00     0.004 A 
HETATM   21  C12 UNL     1      16.900  -0.426  51.060  1.00  0.00     0.024 A 
HETATM   22  C13 UNL     1      16.634  -1.223  52.151  1.00  0.00     0.036 A 
HETATM   23 CL1  UNL     1      15.089  -2.042  52.349  1.00  0.00    -0.084 Cl
HETATM   24  C14 UNL     1      17.635  -1.360  53.102  1.00  0.00     0.052 A 
ENDBRANCH  16  18
ENDBRANCH  15  16
ENDBRANCH   7  15
TORSDOF 6
ENDMDL
MODEL 5
REMARK VINA RESULT:      -6.8      3.109      5.060
REMARK  6 active torsions:
REMARK  status: ('A' for Active; 'I' for Inactive)
REMARK    1  A    between atoms: N1_2  and  N2_3 
REMARK    2  A    between atoms: N3_4  and  C2_5 
REMARK    3  A    between atoms: C2_5  and  C3_6 
REMARK    4  A    between atoms: C7_12  and  C8_13 
REMARK    5  A    between atoms: C8_13  and  N6_14 
REMARK    6  A    between atoms: N6_14  and  C9_15 
ROOT
HETATM    1  C3  UNL     1      27.146   1.819  52.353  1.00  0.00     0.007 A 
HETATM    2  C4  UNL     1      28.276   2.389  52.748  1.00  0.00     0.100 A 
HETATM    3  N4  UNL     1      29.032   1.916  53.877  1.00  0.00    -0.360 N 
HETATM    4  C5  UNL     1      28.535   0.781  54.596  1.00  0.00     0.207 A 
HETATM    5  N5  UNL     1      27.433   0.228  54.209  1.00  0.00    -0.244 NA
HETATM    6  C6  UNL     1      26.666   0.669  53.102  1.00  0.00     0.065 A 
HETATM    7  C7  UNL     1      25.550   0.019  52.799  1.00  0.00     0.025 C 
HETATM    8  H8  UNL     1      29.916   2.422  54.127  1.00  0.00     0.166 HD
ENDROOT
BRANCH   1   9
HETATM    9  C2  UNL     1      26.361   2.313  51.177  1.00  0.00     0.217 C 
BRANCH   9  10
HETATM   10  N3  UNL     1      27.147   3.385  50.599  1.00  0.00    -0.171 NA
HETATM   11  N2  UNL     1      26.964   3.779  49.398  1.00  0.00    -0.079 NA
BRANCH  11  12
HETATM   12  N1  UNL     1      27.772   4.810  48.953  1.00  0.00    -0.300 N 
HETATM   13  C1  UNL     1      28.605   5.745  48.266  1.00  0.00     0.171 C 
HETATM   14  H4  UNL     1      27.519   4.972  49.957  1.00  0.00     0.183 HD
ENDBRANCH  11  12
ENDBRANCH   9  10
ENDBRANCH   1   9
BRANCH   7  15
HETATM   15  C8  UNL     1      25.054  -1.151  53.556  1.00  0.00     0.149 C 
BRANCH  15  16
HETATM   16  N6  UNL     1      24.118  -0.810  54.593  1.00  0.00    -0.386 N 
HETATM   17  H13 UNL     1      24.407  -0.650  55.587  1.00  0.00     0.160 HD
BRANCH  16  18
HETATM   18  C9  UNL     1      22.730  -0.681  54.257  1.00  0.00     0.029 A 
HETATM   19  C10 UNL     1      21.877  -1.749  54.441  1.00  0.00     0.029 A 
HETATM   20  C11 UNL     1      20.549  -1.593  54.108  1.00  0.00     0.004 A 
HETATM   21  C12 UNL     1      20.047  -0.407  53.598  1.00  0.00     0.024 A 
HETATM   22  C13 UNL     1      20.889   0.667  53.410  1.00  0.00     0.036 A 
HETATM   23 CL1  UNL     1      20.309   2.199  52.765  1.00  0.00    -0.084 Cl
HETATM   24  C14 UNL     1      22.224   0.500  53.747  1.00  0.00     0.052 A 
ENDBRANCH  16  18
ENDBRANCH  15  16
ENDBRANCH   7  15
TORSDOF 6
ENDMDL
MODEL 6
REMARK VINA RESULT:      -6.8      3.590      8.548
REMARK  6 active torsions:
REMARK  status: ('A' for Active; 'I' for Inactive)
REMARK    1  A    between atoms: N1_2  and  N2_3 
REMARK    2  A    between atoms: N3_4  and  C2_5 
REMARK    3  A    between atoms: C2_5  and  C3_6 
REMARK    4  A    between atoms: C7_12  and  C8_13 
REMARK    5  A    between atoms: C8_13  and  N6_14 
REMARK    6  A    between atoms: N6_14  and  C9_15 
ROOT
HETATM    1  C3  UNL     1      20.801   0.523  52.889  1.00  0.00     0.007 A 
HETATM    2  C4  UNL     1      20.116  -0.428  53.508  1.00  0.00     0.100 A 
HETATM    3  N4  UNL     1      20.715  -1.329  54.455  1.00  0.00    -0.360 N 
HETATM    4  C5  UNL     1      22.113  -1.184  54.734  1.00  0.00     0.207 A 
HETATM    5  N5  UNL     1      22.779  -0.257  54.130  1.00  0.00    -0.244 NA
HETATM    6  C6  UNL     1      22.219   0.646  53.193  1.00  0.00     0.065 A 
HETATM    7  C7  UNL     1      23.004   1.559  52.636  1.00  0.00     0.025 C 
HETATM    8  H8  UNL     1      20.104  -2.056  54.902  1.00  0.00     0.166 HD
ENDROOT
BRANCH   1   9
HETATM    9  C2  UNL     1      20.174   1.460  51.904  1.00  0.00     0.217 C 
BRANCH   9  10
HETATM   10  N3  UNL     1      19.084   0.724  51.295  1.00  0.00    -0.171 NA
HETATM   11  N2  UNL     1      18.611   1.047  50.154  1.00  0.00    -0.079 NA
BRANCH  11  12
HETATM   12  N1  UNL     1      17.572   0.272  49.671  1.00  0.00    -0.300 N 
HETATM   13  C1  UNL     1      16.407  -0.515  49.417  1.00  0.00     0.171 C 
HETATM   14  H4  UNL     1      18.252   0.467  48.897  1.00  0.00     0.183 HD
ENDBRANCH  11  12
ENDBRANCH   9  10
ENDBRANCH   1   9
BRANCH   7  15
HETATM   15  C8  UNL     1      24.446   1.691  52.939  1.00  0.00     0.149 C 
BRANCH  15  16
HETATM   16  N6  UNL     1      25.257   0.672  52.327  1.00  0.00    -0.386 N 
HETATM   17  H13 UNL     1      24.896   0.034  51.579  1.00  0.00     0.160 HD
BRANCH  16  18
HETATM   18  C9  UNL     1      26.617   0.521  52.755  1.00  0.00     0.029 A 
HETATM   19  C10 UNL     1      27.354   1.633  53.103  1.00  0.00     0.029 A 
HETATM   20  C11 UNL     1      28.659   1.453  53.511  1.00  0.00     0.004 A 
HETATM   21  C12 UNL     1      29.248   0.201  53.582  1.00  0.00     0.024 A 
HETATM   22  C13 UNL     1      28.520  -0.917  53.238  1.00  0.00     0.036 A 
HETATM   23 CL1  UNL     1      29.214  -2.533  53.307  1.00  0.00    -0.084 Cl
HETATM   24  C14 UNL     1      27.209  -0.726  52.828  1.00  0.00     0.052 A 
ENDBRANCH  16  18
ENDBRANCH  15  16
ENDBRANCH   7  15
TORSDOF 6
ENDMDL
MODEL 7
REMARK VINA RESULT:      -6.7      3.204      6.530
REMARK  6 active torsions:
REMARK  status: ('A' for Active; 'I' for Inactive)
REMARK    1  A    between atoms: N1_2  and  N2_3 
REMARK    2  A    between atoms: N3_4  and  C2_5 
REMARK    3  A    between atoms: C2_5  and  C3_6 
REMARK    4  A    between atoms: C7_12  and  C8_13 
REMARK    5  A    between atoms: C8_13  and  N6_14 
REMARK    6  A    between atoms: N6_14  and  C9_15 
ROOT
HETATM    1  C3  UNL     1      26.894   0.344  53.293  1.00  0.00     0.007 A 
HETATM    2  C4  UNL     1      27.643   0.243  54.382  1.00  0.00     0.100 A 
HETATM    3  N4  UNL     1      28.649   1.212  54.728  1.00  0.00    -0.360 N 
HETATM    4  C5  UNL     1      28.840   2.329  53.852  1.00  0.00     0.207 A 
HETATM    5  N5  UNL     1      28.110   2.425  52.791  1.00  0.00    -0.244 NA
HETATM    6  C6  UNL     1      27.112   1.489  52.423  1.00  0.00     0.065 A 
HETATM    7  C7  UNL     1      26.423   1.694  51.308  1.00  0.00     0.025 C 
HETATM    8  H8  UNL     1      29.200   1.060  55.607  1.00  0.00     0.166 HD
ENDROOT
BRANCH   1   9
HETATM    9  C2  UNL     1      25.848  -0.666  52.936  1.00  0.00     0.217 C 
BRANCH   9  10
HETATM   10  N3  UNL     1      24.619  -0.193  53.542  1.00  0.00    -0.171 NA
HETATM   11  N2  UNL     1      23.520  -0.833  53.418  1.00  0.00    -0.079 NA
BRANCH  11  12
HETATM   12  N1  UNL     1      22.412  -0.288  54.040  1.00  0.00    -0.300 N 
HETATM   13  C1  UNL     1      21.176   0.030  54.682  1.00  0.00     0.171 C 
HETATM   14  H4  UNL     1      23.108   0.469  53.839  1.00  0.00     0.183 HD
ENDBRANCH  11  12
ENDBRANCH   9  10
ENDBRANCH   1   9
BRANCH   7  15
HETATM   15  C8  UNL     1      26.637   2.856  50.417  1.00  0.00     0.149 C 
BRANCH  15  16
HETATM   16  N6  UNL     1      25.956   4.045  50.851  1.00  0.00    -0.386 N 
HETATM   17  H13 UNL     1      26.397   4.752  51.485  1.00  0.00     0.160 HD
BRANCH  16  18
HETATM   18  C9  UNL     1      24.614   4.277  50.400  1.00  0.00     0.029 A 
HETATM   19  C10 UNL     1      24.391   4.739  49.120  1.00  0.00     0.029 A 
HETATM   20  C11 UNL     1      23.090   4.952  48.717  1.00  0.00     0.004 A 
HETATM   21  C12 UNL     1      22.008   4.719  49.550  1.00  0.00     0.024 A 
HETATM   22  C13 UNL     1      22.219   4.256  50.831  1.00  0.00     0.036 A 
HETATM   23 CL1  UNL     1      20.885   3.941  51.935  1.00  0.00    -0.084 Cl
HETATM   24  C14 UNL     1      23.531   4.046  51.228  1.00  0.00     0.052 A 
ENDBRANCH  16  18
ENDBRANCH  15  16
ENDBRANCH   7  15
TORSDOF 6
ENDMDL
MODEL 8
REMARK VINA RESULT:      -6.7      5.478      8.396
REMARK  6 active torsions:
REMARK  status: ('A' for Active; 'I' for Inactive)
REMARK    1  A    between atoms: N1_2  and  N2_3 
REMARK    2  A    between atoms: N3_4  and  C2_5 
REMARK    3  A    between atoms: C2_5  and  C3_6 
REMARK    4  A    between atoms: C7_12  and  C8_13 
REMARK    5  A    between atoms: C8_13  and  N6_14 
REMARK    6  A    between atoms: N6_14  and  C9_15 
ROOT
HETATM    1  C3  UNL     1      25.733   4.338  50.106  1.00  0.00     0.007 A 
HETATM    2  C4  UNL     1      25.291   5.587  50.074  1.00  0.00     0.100 A 
HETATM    3  N4  UNL     1      24.231   6.060  50.925  1.00  0.00    -0.360 N 
HETATM    4  C5  UNL     1      23.636   5.133  51.841  1.00  0.00     0.207 A 
HETATM    5  N5  UNL     1      24.068   3.916  51.870  1.00  0.00    -0.244 NA
HETATM    6  C6  UNL     1      25.110   3.420  51.046  1.00  0.00     0.065 A 
HETATM    7  C7  UNL     1      25.469   2.149  51.166  1.00  0.00     0.025 C 
HETATM    8  H8  UNL     1      23.938   7.063  50.838  1.00  0.00     0.166 HD
ENDROOT
BRANCH   1   9
HETATM    9  C2  UNL     1      26.837   3.850  49.219  1.00  0.00     0.217 C 
BRANCH   9  10
HETATM   10  N3  UNL     1      27.441   5.037  48.648  1.00  0.00    -0.171 NA
HETATM   11  N2  UNL     1      28.693   5.102  48.406  1.00  0.00    -0.079 NA
BRANCH  11  12
HETATM   12  N1  UNL     1      29.158   6.286  47.861  1.00  0.00    -0.300 N 
HETATM   13  C1  UNL     1      29.568   7.402  47.069  1.00  0.00     0.171 C 
HETATM   14  H4  UNL     1      29.275   6.311  48.902  1.00  0.00     0.183 HD
ENDBRANCH  11  12
ENDBRANCH   9  10
ENDBRANCH   1   9
BRANCH   7  15
HETATM   15  C8  UNL     1      24.840   1.209  52.119  1.00  0.00     0.149 C 
BRANCH  15  16
HETATM   16  N6  UNL     1      25.464   1.203  53.416  1.00  0.00    -0.386 N 
HETATM   17  H13 UNL     1      24.951   1.456  54.292  1.00  0.00     0.160 HD
BRANCH  16  18
HETATM   18  C9  UNL     1      26.848   0.838  53.515  1.00  0.00     0.029 A 
HETATM   19  C10 UNL     1      27.791   1.799  53.810  1.00  0.00     0.029 A 
HETATM   20  C11 UNL     1      29.113   1.416  53.899  1.00  0.00     0.004 A 
HETATM   21  C12 UNL     1      29.519   0.106  53.703  1.00  0.00     0.024 A 
HETATM   22  C13 UNL     1      28.585  -0.863  53.408  1.00  0.00     0.036 A 
HETATM   23 CL1  UNL     1      29.041  -2.543  53.148  1.00  0.00    -0.084 Cl
HETATM   24  C14 UNL     1      27.259  -0.467  53.320  1.00  0.00     0.052 A 
ENDBRANCH  16  18
ENDBRANCH  15  16
ENDBRANCH   7  15
TORSDOF 6
ENDMDL
MODEL 9
REMARK VINA RESULT:      -6.7      3.681      8.615
REMARK  6 active torsions:
REMARK  status: ('A' for Active; 'I' for Inactive)
REMARK    1  A    between atoms: N1_2  and  N2_3 
REMARK    2  A    between atoms: N3_4  and  C2_5 
REMARK    3  A    between atoms: C2_5  and  C3_6 
REMARK    4  A    between atoms: C7_12  and  C8_13 
REMARK    5  A    between atoms: C8_13  and  N6_14 
REMARK    6  A    between atoms: N6_14  and  C9_15 
ROOT
HETATM    1  C3  UNL     1      21.716   2.152  52.499  1.00  0.00     0.007 A 
HETATM    2  C4  UNL     1      20.925   1.187  52.948  1.00  0.00     0.100 A 
HETATM    3  N4  UNL     1      21.411  -0.126  53.281  1.00  0.00    -0.360 N 
HETATM    4  C5  UNL     1      22.809  -0.391  53.116  1.00  0.00     0.207 A 
HETATM    5  N5  UNL     1      23.578   0.551  52.678  1.00  0.00    -0.244 NA
HETATM    6  C6  UNL     1      23.131   1.853  52.342  1.00  0.00     0.065 A 
HETATM    7  C7  UNL     1      24.015   2.738  51.901  1.00  0.00     0.025 C 
HETATM    8  H8  UNL     1      20.721  -0.834  53.630  1.00  0.00     0.166 HD
ENDROOT
BRANCH   1   9
HETATM    9  C2  UNL     1      21.208   3.517  52.154  1.00  0.00     0.217 C 
BRANCH   9  10
HETATM   10  N3  UNL     1      19.768   3.454  52.307  1.00  0.00    -0.171 NA
HETATM   11  N2  UNL     1      18.977   3.837  51.380  1.00  0.00    -0.079 NA
BRANCH  11  12
HETATM   12  N1  UNL     1      17.622   3.730  51.638  1.00  0.00    -0.300 N 
HETATM   13  C1  UNL     1      16.220   3.879  51.870  1.00  0.00     0.171 C 
HETATM   14  H4  UNL     1      18.062   2.780  51.682  1.00  0.00     0.183 HD
ENDBRANCH  11  12
ENDBRANCH   9  10
ENDBRANCH   1   9
BRANCH   7  15
HETATM   15  C8  UNL     1      25.455   2.443  51.739  1.00  0.00     0.149 C 
BRANCH  15  16
HETATM   16  N6  UNL     1      26.185   2.448  52.979  1.00  0.00    -0.386 N 
HETATM   17  H13 UNL     1      26.010   3.149  53.737  1.00  0.00     0.160 HD
BRANCH  16  18
HETATM   18  C9  UNL     1      27.197   1.453  53.189  1.00  0.00     0.029 A 
HETATM   19  C10 UNL     1      28.425   1.820  53.698  1.00  0.00     0.029 A 
HETATM   20  C11 UNL     1      29.375   0.840  53.889  1.00  0.00     0.004 A 
HETATM   21  C12 UNL     1      29.138  -0.491  53.588  1.00  0.00     0.024 A 
HETATM   22  C13 UNL     1      27.915  -0.870  53.079  1.00  0.00     0.036 A 
HETATM   23 CL1  UNL     1      27.555  -2.546  52.678  1.00  0.00    -0.084 Cl
HETATM   24  C14 UNL     1      26.965   0.123  52.890  1.00  0.00     0.052 A 
ENDBRANCH  16  18
ENDBRANCH  15  16
ENDBRANCH   7  15
TORSDOF 6
ENDMDL
