MODEL 1
REMARK VINA RESULT:      -8.8      0.000      0.000
REMARK  4 active torsions:
REMARK  status: ('A' for Active; 'I' for Inactive)
REMARK    1  A    between atoms: O1_1  and  C1_2 
REMARK    2  A    between atoms: C3_5  and  N1_6 
REMARK    3  A    between atoms: C4_8  and  C5_9 
REMARK    4  A    between atoms: C11_16  and  C12_17 
ROOT
HETATM    1  N1  UNL     1      26.148   0.559  52.961  1.00  0.00    -0.236 N 
HETATM    2  N2  UNL     1      25.819   1.052  51.696  1.00  0.00    -0.174 NA
HETATM    3  C4  UNL     1      25.113   2.147  51.825  1.00  0.00     0.064 C 
HETATM    4  C10 UNL     1      24.925   2.460  53.266  1.00  0.00     0.094 C 
HETATM    5  C11 UNL     1      25.161   1.085  53.885  1.00  0.00     0.151 C 
ENDROOT
BRANCH   1   6
HETATM    6  C3  UNL     1      27.290  -0.304  53.155  1.00  0.00     0.192 A 
HETATM    7  S1  UNL     1      29.022   0.348  53.561  1.00  0.00    -0.058 SA
HETATM    8  C2  UNL     1      29.791  -1.294  53.633  1.00  0.00     0.111 A 
HETATM    9  C1  UNL     1      28.606  -2.093  53.335  1.00  0.00     0.171 A 
HETATM   10  N3  UNL     1      27.424  -1.551  53.114  1.00  0.00    -0.198 NA
BRANCH   9  11
HETATM   11  O1  UNL     1      28.616  -3.501  53.259  1.00  0.00    -0.344 OA
HETATM   12  H1  UNL     1      28.949  -4.099  53.988  1.00  0.00     0.219 HD
ENDBRANCH   9  11
ENDBRANCH   1   6
BRANCH   5  13
HETATM   13  C12 UNL     1      23.899   0.334  53.906  1.00  0.00    -0.033 A 
HETATM   14  C13 UNL     1      23.785  -0.842  54.653  1.00  0.00     0.012 A 
HETATM   15  C14 UNL     1      22.600  -1.567  54.685  1.00  0.00     0.043 A 
HETATM   16  C15 UNL     1      21.496  -1.148  53.979  1.00  0.00     0.116 A 
HETATM   17  F1  UNL     1      20.327  -1.834  53.991  1.00  0.00    -0.206 F 
HETATM   18  C16 UNL     1      21.565   0.019  53.219  1.00  0.00     0.043 A 
HETATM   19  C17 UNL     1      22.784   0.704  53.227  1.00  0.00     0.012 A 
ENDBRANCH   5  13
BRANCH   3  20
HETATM   20  C5  UNL     1      24.628   2.885  50.668  1.00  0.00    -0.027 A 
HETATM   21  C6  UNL     1      25.170   3.943  50.136  1.00  0.00     0.010 A 
HETATM   22  C7  UNL     1      24.322   4.317  48.998  1.00  0.00     0.015 A 
HETATM   23  C8  UNL     1      23.283   3.516  48.826  1.00  0.00    -0.007 A 
HETATM   24 BR1  UNL     1      21.830   3.389  47.624  1.00  0.00    -0.055 Br
HETATM   25  C9  UNL     1      23.390   2.502  49.908  1.00  0.00     0.087 A 
ENDBRANCH   3  20
TORSDOF 4
ENDMDL
MODEL 2
REMARK VINA RESULT:      -8.2      3.953      5.608
REMARK  4 active torsions:
REMARK  status: ('A' for Active; 'I' for Inactive)
REMARK    1  A    between atoms: O1_1  and  C1_2 
REMARK    2  A    between atoms: C3_5  and  N1_6 
REMARK    3  A    between atoms: C4_8  and  C5_9 
REMARK    4  A    between atoms: C11_16  and  C12_17 
ROOT
HETATM    1  N1  UNL     1      24.453   3.179  50.866  1.00  0.00    -0.236 N 
HETATM    2  N2  UNL     1      23.328   2.558  50.317  1.00  0.00    -0.174 NA
HETATM    3  C4  UNL     1      22.490   2.249  51.274  1.00  0.00     0.064 C 
HETATM    4  C10 UNL     1      23.043   2.673  52.587  1.00  0.00     0.094 C 
HETATM    5  C11 UNL     1      24.530   2.755  52.252  1.00  0.00     0.151 C 
ENDROOT
BRANCH   1   6
HETATM    6  C3  UNL     1      25.286   4.054  50.076  1.00  0.00     0.192 A 
HETATM    7  S1  UNL     1      24.714   5.753  49.463  1.00  0.00    -0.058 SA
HETATM    8  C2  UNL     1      26.270   6.142  48.614  1.00  0.00     0.111 A 
HETATM    9  C1  UNL     1      26.992   4.913  48.927  1.00  0.00     0.171 A 
HETATM   10  N3  UNL     1      26.458   3.940  49.641  1.00  0.00    -0.198 NA
BRANCH   9  11
HETATM   11  O1  UNL     1      28.311   4.656  48.502  1.00  0.00    -0.344 OA
HETATM   12  H1  UNL     1      28.575   4.521  47.546  1.00  0.00     0.219 HD
ENDBRANCH   9  11
ENDBRANCH   1   6
BRANCH   5  13
HETATM   13  C12 UNL     1      25.148   1.437  52.442  1.00  0.00    -0.033 A 
HETATM   14  C13 UNL     1      26.320   1.097  51.759  1.00  0.00     0.012 A 
HETATM   15  C14 UNL     1      26.920  -0.145  51.925  1.00  0.00     0.043 A 
HETATM   16  C15 UNL     1      26.378  -1.085  52.771  1.00  0.00     0.116 A 
HETATM   17  F1  UNL     1      26.940  -2.304  52.954  1.00  0.00    -0.206 F 
HETATM   18  C16 UNL     1      25.209  -0.788  53.472  1.00  0.00     0.043 A 
HETATM   19  C17 UNL     1      24.653   0.477  53.263  1.00  0.00     0.012 A 
ENDBRANCH   5  13
BRANCH   3  20
HETATM   20  C5  UNL     1      21.222   1.589  50.997  1.00  0.00    -0.027 A 
HETATM   21  C6  UNL     1      20.610   1.532  49.849  1.00  0.00     0.010 A 
HETATM   22  C7  UNL     1      19.380   0.761  50.073  1.00  0.00     0.015 A 
HETATM   23  C8  UNL     1      19.231   0.352  51.322  1.00  0.00    -0.007 A 
HETATM   24 BR1  UNL     1      17.954  -0.639  52.299  1.00  0.00    -0.055 Br
HETATM   25  C9  UNL     1      20.429   0.859  52.043  1.00  0.00     0.087 A 
ENDBRANCH   3  20
TORSDOF 4
ENDMDL
MODEL 3
REMARK VINA RESULT:      -8.1      2.019      2.648
REMARK  4 active torsions:
REMARK  status: ('A' for Active; 'I' for Inactive)
REMARK    1  A    between atoms: O1_1  and  C1_2 
REMARK    2  A    between atoms: C3_5  and  N1_6 
REMARK    3  A    between atoms: C4_8  and  C5_9 
REMARK    4  A    between atoms: C11_16  and  C12_17 
ROOT
HETATM    1  N1  UNL     1      24.879   1.771  52.289  1.00  0.00    -0.236 N 
HETATM    2  N2  UNL     1      24.511   1.761  50.941  1.00  0.00    -0.174 NA
HETATM    3  C4  UNL     1      23.483   2.554  50.764  1.00  0.00     0.064 C 
HETATM    4  C10 UNL     1      23.091   3.169  52.059  1.00  0.00     0.094 C 
HETATM    5  C11 UNL     1      23.705   2.174  53.040  1.00  0.00     0.151 C 
ENDROOT
BRANCH   1   6
HETATM    6  C3  UNL     1      26.218   1.421  52.702  1.00  0.00     0.192 A 
HETATM    7  S1  UNL     1      26.844  -0.366  52.771  1.00  0.00    -0.058 SA
HETATM    8  C2  UNL     1      28.505   0.076  53.351  1.00  0.00     0.111 A 
HETATM    9  C1  UNL     1      28.329   1.524  53.404  1.00  0.00     0.171 A 
HETATM   10  N3  UNL     1      27.196   2.113  53.076  1.00  0.00    -0.198 NA
BRANCH   9  11
HETATM   11  O1  UNL     1      29.344   2.417  53.806  1.00  0.00    -0.344 OA
HETATM   12  H1  UNL     1      30.157   2.622  53.261  1.00  0.00     0.219 HD
ENDBRANCH   9  11
ENDBRANCH   1   6
BRANCH   5  13
HETATM   13  C12 UNL     1      22.753   1.086  53.295  1.00  0.00    -0.033 A 
HETATM   14  C13 UNL     1      21.379   1.292  53.134  1.00  0.00     0.012 A 
HETATM   15  C14 UNL     1      20.462   0.276  53.370  1.00  0.00     0.043 A 
HETATM   16  C15 UNL     1      20.878  -0.973  53.771  1.00  0.00     0.116 A 
HETATM   17  F1  UNL     1      20.008  -1.983  54.009  1.00  0.00    -0.206 F 
HETATM   18  C16 UNL     1      22.239  -1.223  53.945  1.00  0.00     0.043 A 
HETATM   19  C17 UNL     1      23.112  -0.161  53.692  1.00  0.00     0.012 A 
ENDBRANCH   5  13
BRANCH   3  20
HETATM   20  C5  UNL     1      22.881   2.743  49.453  1.00  0.00    -0.027 A 
HETATM   21  C6  UNL     1      22.249   1.847  48.751  1.00  0.00     0.010 A 
HETATM   22  C7  UNL     1      21.829   2.512  47.511  1.00  0.00     0.015 A 
HETATM   23  C8  UNL     1      22.189   3.783  47.443  1.00  0.00    -0.007 A 
HETATM   24 BR1  UNL     1      22.004   5.199  46.205  1.00  0.00    -0.055 Br
HETATM   25  C9  UNL     1      22.913   4.051  48.714  1.00  0.00     0.087 A 
ENDBRANCH   3  20
TORSDOF 4
ENDMDL
MODEL 4
REMARK VINA RESULT:      -8.1      1.452      1.715
REMARK  4 active torsions:
REMARK  status: ('A' for Active; 'I' for Inactive)
REMARK    1  A    between atoms: O1_1  and  C1_2 
REMARK    2  A    between atoms: C3_5  and  N1_6 
REMARK    3  A    between atoms: C4_8  and  C5_9 
REMARK    4  A    between atoms: C11_16  and  C12_17 
ROOT
HETATM    1  N1  UNL     1      25.513   1.524  52.441  1.00  0.00    -0.236 N 
HETATM    2  N2  UNL     1      25.495   2.200  51.218  1.00  0.00    -0.174 NA
HETATM    3  C4  UNL     1      24.860   3.337  51.358  1.00  0.00     0.064 C 
HETATM    4  C10 UNL     1      24.395   3.486  52.761  1.00  0.00     0.094 C 
HETATM    5  C11 UNL     1      24.394   2.029  53.214  1.00  0.00     0.151 C 
ENDROOT
BRANCH   1   6
HETATM    6  C3  UNL     1      26.522   0.533  52.735  1.00  0.00     0.192 A 
HETATM    7  S1  UNL     1      28.237   0.972  53.411  1.00  0.00    -0.058 SA
HETATM    8  C2  UNL     1      28.816  -0.746  53.486  1.00  0.00     0.111 A 
HETATM    9  C1  UNL     1      27.609  -1.396  52.981  1.00  0.00     0.171 A 
HETATM   10  N3  UNL     1      26.532  -0.718  52.636  1.00  0.00    -0.198 NA
BRANCH   9  11
HETATM   11  O1  UNL     1      27.487  -2.791  52.821  1.00  0.00    -0.344 OA
HETATM   12  H1  UNL     1      27.584  -3.265  51.945  1.00  0.00     0.219 HD
ENDBRANCH   9  11
ENDBRANCH   1   6
BRANCH   5  13
HETATM   13  C12 UNL     1      23.105   1.412  52.876  1.00  0.00    -0.033 A 
HETATM   14  C13 UNL     1      22.927   0.030  52.991  1.00  0.00     0.012 A 
HETATM   15  C14 UNL     1      21.715  -0.572  52.675  1.00  0.00     0.043 A 
HETATM   16  C15 UNL     1      20.647   0.176  52.238  1.00  0.00     0.116 A 
HETATM   17  F1  UNL     1      19.453  -0.383  51.923  1.00  0.00    -0.206 F 
HETATM   18  C16 UNL     1      20.780   1.558  52.107  1.00  0.00     0.043 A 
HETATM   19  C17 UNL     1      22.022   2.105  52.440  1.00  0.00     0.012 A 
ENDBRANCH   5  13
BRANCH   3  20
HETATM   20  C5  UNL     1      24.686   4.257  50.243  1.00  0.00    -0.027 A 
HETATM   21  C6  UNL     1      25.560   5.113  49.797  1.00  0.00     0.010 A 
HETATM   22  C7  UNL     1      24.925   5.805  48.668  1.00  0.00     0.015 A 
HETATM   23  C8  UNL     1      23.693   5.392  48.420  1.00  0.00    -0.007 A 
HETATM   24 BR1  UNL     1      22.328   5.808  47.180  1.00  0.00    -0.055 Br
HETATM   25  C9  UNL     1      23.424   4.337  49.432  1.00  0.00     0.087 A 
ENDBRANCH   3  20
TORSDOF 4
ENDMDL
MODEL 5
REMARK VINA RESULT:      -7.9      8.805     11.253
REMARK  4 active torsions:
REMARK  status: ('A' for Active; 'I' for Inactive)
REMARK    1  A    between atoms: O1_1  and  C1_2 
REMARK    2  A    between atoms: C3_5  and  N1_6 
REMARK    3  A    between atoms: C4_8  and  C5_9 
REMARK    4  A    between atoms: C11_16  and  C12_17 
ROOT
HETATM    1  N1  UNL     1      31.449   7.645  47.856  1.00  0.00    -0.236 N 
HETATM    2  N2  UNL     1      30.469   6.902  48.520  1.00  0.00    -0.174 NA
HETATM    3  C4  UNL     1      29.371   6.894  47.807  1.00  0.00     0.064 C 
HETATM    4  C10 UNL     1      29.573   7.676  46.559  1.00  0.00     0.094 C 
HETATM    5  C11 UNL     1      30.753   8.555  46.965  1.00  0.00     0.151 C 
ENDROOT
BRANCH   1   6
HETATM    6  C3  UNL     1      32.854   7.433  48.115  1.00  0.00     0.192 A 
HETATM    7  S1  UNL     1      33.606   5.716  48.393  1.00  0.00    -0.058 SA
HETATM    8  C2  UNL     1      35.299   6.326  48.628  1.00  0.00     0.111 A 
HETATM    9  C1  UNL     1      35.032   7.752  48.458  1.00  0.00     0.171 A 
HETATM   10  N3  UNL     1      33.825   8.222  48.211  1.00  0.00    -0.198 NA
BRANCH   9  11
HETATM   11  O1  UNL     1      36.029   8.745  48.542  1.00  0.00    -0.344 OA
HETATM   12  H1  UNL     1      36.091   9.416  49.281  1.00  0.00     0.219 HD
ENDBRANCH   9  11
ENDBRANCH   1   6
BRANCH   5  13
HETATM   13  C12 UNL     1      30.255   9.771  47.620  1.00  0.00    -0.033 A 
HETATM   14  C13 UNL     1      28.969  10.248  47.349  1.00  0.00     0.012 A 
HETATM   15  C14 UNL     1      28.479  11.397  47.958  1.00  0.00     0.043 A 
HETATM   16  C15 UNL     1      29.249  12.106  48.851  1.00  0.00     0.116 A 
HETATM   17  F1  UNL     1      28.799  13.229  49.461  1.00  0.00    -0.206 F 
HETATM   18  C16 UNL     1      30.539  11.667  49.150  1.00  0.00     0.043 A 
HETATM   19  C17 UNL     1      30.974  10.506  48.506  1.00  0.00     0.012 A 
ENDBRANCH   5  13
BRANCH   3  20
HETATM   20  C5  UNL     1      28.175   6.193  48.253  1.00  0.00    -0.027 A 
HETATM   21  C6  UNL     1      28.092   4.940  48.598  1.00  0.00     0.010 A 
HETATM   22  C7  UNL     1      26.690   4.705  48.969  1.00  0.00     0.015 A 
HETATM   23  C8  UNL     1      25.925   5.778  48.858  1.00  0.00    -0.007 A 
HETATM   24 BR1  UNL     1      24.107   6.206  49.146  1.00  0.00    -0.055 Br
HETATM   25  C9  UNL     1      26.832   6.854  48.376  1.00  0.00     0.087 A 
ENDBRANCH   3  20
TORSDOF 4
ENDMDL
MODEL 6
REMARK VINA RESULT:      -7.8      3.622      5.726
REMARK  4 active torsions:
REMARK  status: ('A' for Active; 'I' for Inactive)
REMARK    1  A    between atoms: O1_1  and  C1_2 
REMARK    2  A    between atoms: C3_5  and  N1_6 
REMARK    3  A    between atoms: C4_8  and  C5_9 
REMARK    4  A    between atoms: C11_16  and  C12_17 
ROOT
HETATM    1  N1  UNL     1      23.723   1.327  52.262  1.00  0.00    -0.236 N 
HETATM    2  N2  UNL     1      22.558   0.846  52.865  1.00  0.00    -0.174 NA
HETATM    3  C4  UNL     1      21.668   0.580  51.942  1.00  0.00     0.064 C 
HETATM    4  C10 UNL     1      22.226   0.885  50.599  1.00  0.00     0.094 C 
HETATM    5  C11 UNL     1      23.336   1.865  50.972  1.00  0.00     0.151 C 
ENDROOT
BRANCH   1   6
HETATM    6  C3  UNL     1      25.003   1.234  52.926  1.00  0.00     0.192 A 
HETATM    7  S1  UNL     1      25.719  -0.398  53.569  1.00  0.00    -0.058 SA
HETATM    8  C2  UNL     1      27.244   0.346  54.211  1.00  0.00     0.111 A 
HETATM    9  C1  UNL     1      26.975   1.731  53.836  1.00  0.00     0.171 A 
HETATM   10  N3  UNL     1      25.870   2.095  53.214  1.00  0.00    -0.198 NA
BRANCH   9  11
HETATM   11  O1  UNL     1      27.862   2.794  54.100  1.00  0.00    -0.344 OA
HETATM   12  H1  UNL     1      28.754   2.684  54.538  1.00  0.00     0.219 HD
ENDBRANCH   9  11
ENDBRANCH   1   6
BRANCH   5  13
HETATM   13  C12 UNL     1      22.788   3.226  51.030  1.00  0.00    -0.033 A 
HETATM   14  C13 UNL     1      21.889   3.672  50.057  1.00  0.00     0.012 A 
HETATM   15  C14 UNL     1      21.360   4.956  50.094  1.00  0.00     0.043 A 
HETATM   16  C15 UNL     1      21.707   5.835  51.094  1.00  0.00     0.116 A 
HETATM   17  F1  UNL     1      21.208   7.093  51.156  1.00  0.00    -0.206 F 
HETATM   18  C16 UNL     1      22.602   5.433  52.085  1.00  0.00     0.043 A 
HETATM   19  C17 UNL     1      23.099   4.130  51.993  1.00  0.00     0.012 A 
ENDBRANCH   5  13
BRANCH   3  20
HETATM   20  C5  UNL     1      20.350   0.061  52.279  1.00  0.00    -0.027 A 
HETATM   21  C6  UNL     1      20.016  -0.564  53.372  1.00  0.00     0.010 A 
HETATM   22  C7  UNL     1      18.589  -0.885  53.246  1.00  0.00     0.015 A 
HETATM   23  C8  UNL     1      18.051  -0.473  52.109  1.00  0.00    -0.007 A 
HETATM   24 BR1  UNL     1      16.347  -0.533  51.294  1.00  0.00    -0.055 Br
HETATM   25  C9  UNL     1      19.161   0.186  51.370  1.00  0.00     0.087 A 
ENDBRANCH   3  20
TORSDOF 4
ENDMDL
MODEL 7
REMARK VINA RESULT:      -7.8      5.282      6.980
REMARK  4 active torsions:
REMARK  status: ('A' for Active; 'I' for Inactive)
REMARK    1  A    between atoms: O1_1  and  C1_2 
REMARK    2  A    between atoms: C3_5  and  N1_6 
REMARK    3  A    between atoms: C4_8  and  C5_9 
REMARK    4  A    between atoms: C11_16  and  C12_17 
ROOT
HETATM    1  N1  UNL     1      20.284   2.535  50.786  1.00  0.00    -0.236 N 
HETATM    2  N2  UNL     1      21.431   3.332  50.793  1.00  0.00    -0.174 NA
HETATM    3  C4  UNL     1      22.423   2.672  50.250  1.00  0.00     0.064 C 
HETATM    4  C10 UNL     1      21.962   1.324  49.829  1.00  0.00     0.094 C 
HETATM    5  C11 UNL     1      20.732   1.157  50.716  1.00  0.00     0.151 C 
ENDROOT
BRANCH   1   6
HETATM    6  C3  UNL     1      18.965   3.120  50.844  1.00  0.00     0.192 A 
HETATM    7  S1  UNL     1      17.926   3.484  49.301  1.00  0.00    -0.058 SA
HETATM    8  C2  UNL     1      16.516   4.160  50.221  1.00  0.00     0.111 A 
HETATM    9  C1  UNL     1      17.053   4.006  51.570  1.00  0.00     0.171 A 
HETATM   10  N3  UNL     1      18.246   3.494  51.803  1.00  0.00    -0.198 NA
BRANCH   9  11
HETATM   11  O1  UNL     1      16.353   4.384  52.733  1.00  0.00    -0.344 OA
HETATM   12  H1  UNL     1      16.755   4.396  53.650  1.00  0.00     0.219 HD
ENDBRANCH   9  11
ENDBRANCH   1   6
BRANCH   5  13
HETATM   13  C12 UNL     1      21.135   0.591  52.010  1.00  0.00    -0.033 A 
HETATM   14  C13 UNL     1      22.255  -0.240  52.104  1.00  0.00     0.012 A 
HETATM   15  C14 UNL     1      22.653  -0.786  53.318  1.00  0.00     0.043 A 
HETATM   16  C15 UNL     1      21.952  -0.525  54.473  1.00  0.00     0.116 A 
HETATM   17  F1  UNL     1      22.314  -1.043  55.671  1.00  0.00    -0.206 F 
HETATM   18  C16 UNL     1      20.826   0.298  54.426  1.00  0.00     0.043 A 
HETATM   19  C17 UNL     1      20.478   0.816  53.176  1.00  0.00     0.012 A 
ENDBRANCH   5  13
BRANCH   3  20
HETATM   20  C5  UNL     1      23.750   3.258  50.120  1.00  0.00    -0.027 A 
HETATM   21  C6  UNL     1      24.859   2.789  50.617  1.00  0.00     0.010 A 
HETATM   22  C7  UNL     1      25.920   3.722  50.217  1.00  0.00     0.015 A 
HETATM   23  C8  UNL     1      25.484   4.741  49.493  1.00  0.00    -0.007 A 
HETATM   24 BR1  UNL     1      26.242   6.262  48.668  1.00  0.00    -0.055 Br
HETATM   25  C9  UNL     1      24.018   4.527  49.364  1.00  0.00     0.087 A 
ENDBRANCH   3  20
TORSDOF 4
ENDMDL
MODEL 8
REMARK VINA RESULT:      -7.4      4.104      6.358
REMARK  4 active torsions:
REMARK  status: ('A' for Active; 'I' for Inactive)
REMARK    1  A    between atoms: O1_1  and  C1_2 
REMARK    2  A    between atoms: C3_5  and  N1_6 
REMARK    3  A    between atoms: C4_8  and  C5_9 
REMARK    4  A    between atoms: C11_16  and  C12_17 
ROOT
HETATM    1  N1  UNL     1      24.530   3.500  50.473  1.00  0.00    -0.236 N 
HETATM    2  N2  UNL     1      25.760   3.759  49.863  1.00  0.00    -0.174 NA
HETATM    3  C4  UNL     1      25.820   5.021  49.522  1.00  0.00     0.064 C 
HETATM    4  C10 UNL     1      24.562   5.710  49.909  1.00  0.00     0.094 C 
HETATM    5  C11 UNL     1      23.610   4.521  50.009  1.00  0.00     0.151 C 
ENDROOT
BRANCH   1   6
HETATM    6  C3  UNL     1      24.361   2.385  51.375  1.00  0.00     0.192 A 
HETATM    7  S1  UNL     1      25.681   1.859  52.628  1.00  0.00    -0.058 SA
HETATM    8  C2  UNL     1      24.714   0.478  53.300  1.00  0.00     0.111 A 
HETATM    9  C1  UNL     1      23.527   0.629  52.463  1.00  0.00     0.171 A 
HETATM   10  N3  UNL     1      23.419   1.574  51.550  1.00  0.00    -0.198 NA
BRANCH   9  11
HETATM   11  O1  UNL     1      22.399  -0.213  52.554  1.00  0.00    -0.344 OA
HETATM   12  H1  UNL     1      22.438  -1.210  52.485  1.00  0.00     0.219 HD
ENDBRANCH   9  11
ENDBRANCH   1   6
BRANCH   5  13
HETATM   13  C12 UNL     1      23.028   4.248  48.688  1.00  0.00    -0.033 A 
HETATM   14  C13 UNL     1      22.711   2.941  48.308  1.00  0.00     0.012 A 
HETATM   15  C14 UNL     1      22.160   2.662  47.064  1.00  0.00     0.043 A 
HETATM   16  C15 UNL     1      21.908   3.669  46.161  1.00  0.00     0.116 A 
HETATM   17  F1  UNL     1      21.372   3.428  44.940  1.00  0.00    -0.206 F 
HETATM   18  C16 UNL     1      22.210   4.988  46.498  1.00  0.00     0.043 A 
HETATM   19  C17 UNL     1      22.761   5.205  47.763  1.00  0.00     0.012 A 
ENDBRANCH   5  13
BRANCH   3  20
HETATM   20  C5  UNL     1      26.993   5.580  48.864  1.00  0.00    -0.027 A 
HETATM   21  C6  UNL     1      28.081   4.942  48.540  1.00  0.00     0.010 A 
HETATM   22  C7  UNL     1      28.965   5.926  47.902  1.00  0.00     0.015 A 
HETATM   23  C8  UNL     1      28.443   7.140  47.832  1.00  0.00    -0.007 A 
HETATM   24 BR1  UNL     1      28.978   8.829  47.176  1.00  0.00    -0.055 Br
HETATM   25  C9  UNL     1      27.099   7.022  48.458  1.00  0.00     0.087 A 
ENDBRANCH   3  20
TORSDOF 4
ENDMDL
MODEL 9
REMARK VINA RESULT:      -7.4      3.827      5.180
REMARK  4 active torsions:
REMARK  status: ('A' for Active; 'I' for Inactive)
REMARK    1  A    between atoms: O1_1  and  C1_2 
REMARK    2  A    between atoms: C3_5  and  N1_6 
REMARK    3  A    between atoms: C4_8  and  C5_9 
REMARK    4  A    between atoms: C11_16  and  C12_17 
ROOT
HETATM    1  N1  UNL     1      23.163   2.119  52.244  1.00  0.00    -0.236 N 
HETATM    2  N2  UNL     1      24.264   2.301  51.403  1.00  0.00    -0.174 NA
HETATM    3  C4  UNL     1      24.376   3.570  51.099  1.00  0.00     0.064 C 
HETATM    4  C10 UNL     1      23.292   4.344  51.759  1.00  0.00     0.094 C 
HETATM    5  C11 UNL     1      22.271   3.239  52.012  1.00  0.00     0.151 C 
ENDROOT
BRANCH   1   6
HETATM    6  C3  UNL     1      23.072   0.978  53.124  1.00  0.00     0.192 A 
HETATM    7  S1  UNL     1      24.580  -0.035  53.663  1.00  0.00    -0.058 SA
HETATM    8  C2  UNL     1      23.630  -1.192  54.688  1.00  0.00     0.111 A 
HETATM    9  C1  UNL     1      22.302  -0.629  54.462  1.00  0.00     0.171 A 
HETATM   10  N3  UNL     1      22.100   0.424  53.693  1.00  0.00    -0.198 NA
BRANCH   9  11
HETATM   11  O1  UNL     1      21.127  -1.152  55.039  1.00  0.00    -0.344 OA
HETATM   12  H1  UNL     1      20.865  -2.117  55.000  1.00  0.00     0.219 HD
ENDBRANCH   9  11
ENDBRANCH   1   6
BRANCH   5  13
HETATM   13  C12 UNL     1      21.412   3.087  50.831  1.00  0.00    -0.033 A 
HETATM   14  C13 UNL     1      20.956   4.211  50.135  1.00  0.00     0.012 A 
HETATM   15  C14 UNL     1      20.142   4.088  49.015  1.00  0.00     0.043 A 
HETATM   16  C15 UNL     1      19.757   2.851  48.554  1.00  0.00     0.116 A 
HETATM   17  F1  UNL     1      18.964   2.700  47.465  1.00  0.00    -0.206 F 
HETATM   18  C16 UNL     1      20.187   1.703  49.218  1.00  0.00     0.043 A 
HETATM   19  C17 UNL     1      21.003   1.891  50.337  1.00  0.00     0.012 A 
ENDBRANCH   5  13
BRANCH   3  20
HETATM   20  C5  UNL     1      25.440   4.057  50.234  1.00  0.00    -0.027 A 
HETATM   21  C6  UNL     1      26.419   3.358  49.736  1.00  0.00     0.010 A 
HETATM   22  C7  UNL     1      27.225   4.287  48.933  1.00  0.00     0.015 A 
HETATM   23  C8  UNL     1      26.762   5.526  48.931  1.00  0.00    -0.007 A 
HETATM   24 BR1  UNL     1      27.257   7.177  48.157  1.00  0.00    -0.055 Br
HETATM   25  C9  UNL     1      25.546   5.487  49.786  1.00  0.00     0.087 A 
ENDBRANCH   3  20
TORSDOF 4
ENDMDL
