MODEL 1
REMARK VINA RESULT:      -7.8      0.000      0.000
REMARK  7 active torsions:
REMARK  status: ('A' for Active; 'I' for Inactive)
REMARK    1  A    between atoms: N1_1  and  P1_2 
REMARK    2  A    between atoms: C12_18  and  O1_19 
REMARK    3  A    between atoms: O1_19  and  C13_20 
REMARK    4  A    between atoms: C13_20  and  C14_21 
REMARK    5  A    between atoms: C14_21  and  N4_22 
REMARK    6  A    between atoms: C18_27  and  C19_28 
REMARK    7  A    between atoms: C19_28  and  O2_29 
ROOT
HETATM    1  P1  UNL     1      22.557   3.264  52.412  1.00  0.00     0.008 P 
HETATM    2  C1  UNL     1      22.766   1.477  52.544  1.00  0.00     0.012 C 
HETATM    3  C2  UNL     1      24.204   1.664  52.621  1.00  0.00     0.076 C 
HETATM    4  C3  UNL     1      25.512   1.526  52.698  1.00  0.00     0.047 C 
HETATM    5  C4  UNL     1      26.473   0.458  52.795  1.00  0.00    -0.010 A 
HETATM    6  C5  UNL     1      25.897  -0.778  52.663  1.00  0.00     0.016 A 
HETATM    7  C6  UNL     1      26.635  -1.935  52.754  1.00  0.00     0.045 A 
HETATM    8  C7  UNL     1      27.992  -1.987  52.980  1.00  0.00     0.138 A 
HETATM    9  F1  UNL     1      28.929  -2.931  53.120  1.00  0.00    -0.204 F 
HETATM   10  C8  UNL     1      28.568  -0.755  53.117  1.00  0.00     0.073 A 
HETATM   11 CL1  UNL     1      30.237  -0.365  53.414  1.00  0.00    -0.081 Cl
HETATM   12  C9  UNL     1      27.797   0.415  53.020  1.00  0.00     0.040 A 
HETATM   13  N2  UNL     1      26.477   2.573  52.524  1.00  0.00    -0.281 N 
HETATM   14  N3  UNL     1      27.160   2.925  51.295  1.00  0.00    -0.190 NA
HETATM   15  C10 UNL     1      26.269   3.146  50.310  1.00  0.00     0.124 C 
HETATM   16  C11 UNL     1      24.982   3.220  49.854  1.00  0.00     0.101 C 
HETATM   17  C12 UNL     1      23.589   3.246  49.774  1.00  0.00     0.067 C 
HETATM   18  C18 UNL     1      22.489   3.162  50.662  1.00  0.00     0.018 C 
HETATM   19  H8  UNL     1      27.101   3.317  52.597  1.00  0.00     0.189 HD
ENDROOT
BRANCH   1  20
HETATM   20  N1  UNL     1      24.356   3.600  52.588  1.00  0.00    -0.303 NA
HETATM   21  H1  UNL     1      24.378   4.369  51.845  1.00  0.00     0.123 HD
HETATM   22  H2  UNL     1      24.415   4.114  53.534  1.00  0.00     0.123 HD
ENDBRANCH   1  20
BRANCH  18  23
HETATM   23  C19 UNL     1      21.126   2.949  50.457  1.00  0.00     0.207 C 
BRANCH  23  24
HETATM   24  O2  UNL     1      20.997   1.841  49.534  1.00  0.00    -0.396 OA
HETATM   25  H20 UNL     1      21.875   1.356  49.625  1.00  0.00     0.209 HD
ENDBRANCH  23  24
ENDBRANCH  18  23
BRANCH  17  26
HETATM   26  O1  UNL     1      23.384   3.403  48.488  1.00  0.00    -0.352 OA
BRANCH  26  27
HETATM   27  C13 UNL     1      22.607   4.366  47.819  1.00  0.00     0.195 C 
BRANCH  27  28
HETATM   28  C14 UNL     1      23.301   5.697  47.776  1.00  0.00     0.156 C 
BRANCH  28  29
HETATM   29  N4  UNL     1      22.924   6.432  49.018  1.00  0.00    -0.348 N 
HETATM   30  C15 UNL     1      23.928   6.995  49.688  1.00  0.00     0.111 A 
HETATM   31  C16 UNL     1      23.307   7.606  50.780  1.00  0.00     0.135 A 
HETATM   32  N5  UNL     1      21.975   7.403  50.747  1.00  0.00    -0.255 NA
HETATM   33  C17 UNL     1      21.740   6.666  49.629  1.00  0.00     0.209 A 
ENDBRANCH  28  29
ENDBRANCH  27  28
ENDBRANCH  26  27
ENDBRANCH  17  26
TORSDOF 7
ENDMDL
MODEL 2
REMARK VINA RESULT:      -7.6      4.192      7.550
REMARK  7 active torsions:
REMARK  status: ('A' for Active; 'I' for Inactive)
REMARK    1  A    between atoms: N1_1  and  P1_2 
REMARK    2  A    between atoms: C12_18  and  O1_19 
REMARK    3  A    between atoms: O1_19  and  C13_20 
REMARK    4  A    between atoms: C13_20  and  C14_21 
REMARK    5  A    between atoms: C14_21  and  N4_22 
REMARK    6  A    between atoms: C18_27  and  C19_28 
REMARK    7  A    between atoms: C19_28  and  O2_29 
ROOT
HETATM    1  P1  UNL     1      20.525   0.457  52.101  1.00  0.00     0.008 P 
HETATM    2  C1  UNL     1      20.182   2.172  52.542  1.00  0.00     0.012 C 
HETATM    3  C2  UNL     1      21.082   2.609  51.488  1.00  0.00     0.076 C 
HETATM    4  C3  UNL     1      21.829   3.285  50.640  1.00  0.00     0.047 C 
HETATM    5  C4  UNL     1      22.144   4.660  50.349  1.00  0.00    -0.010 A 
HETATM    6  C5  UNL     1      21.613   5.525  51.270  1.00  0.00     0.016 A 
HETATM    7  C6  UNL     1      21.771   6.886  51.160  1.00  0.00     0.045 A 
HETATM    8  C7  UNL     1      22.458   7.520  50.149  1.00  0.00     0.138 A 
HETATM    9  F1  UNL     1      22.752   8.777  49.799  1.00  0.00    -0.204 F 
HETATM   10  C8  UNL     1      22.984   6.659  49.226  1.00  0.00     0.073 A 
HETATM   11 CL1  UNL     1      23.911   7.030  47.801  1.00  0.00    -0.081 Cl
HETATM   12  C9  UNL     1      22.812   5.271  49.356  1.00  0.00     0.040 A 
HETATM   13  N2  UNL     1      22.794   2.722  49.740  1.00  0.00    -0.281 N 
HETATM   14  N3  UNL     1      24.215   2.566  49.982  1.00  0.00    -0.190 NA
HETATM   15  C10 UNL     1      24.424   1.897  51.132  1.00  0.00     0.124 C 
HETATM   16  C11 UNL     1      23.957   1.250  52.243  1.00  0.00     0.101 C 
HETATM   17  C12 UNL     1      23.134   0.639  53.190  1.00  0.00     0.067 C 
HETATM   18  C18 UNL     1      21.757   0.347  53.345  1.00  0.00     0.018 C 
HETATM   19  H8  UNL     1      23.295   2.317  49.010  1.00  0.00     0.189 HD
ENDROOT
BRANCH   1  20
HETATM   20  N1  UNL     1      21.612   0.919  50.692  1.00  0.00    -0.303 NA
HETATM   21  H1  UNL     1      21.286   1.937  50.656  1.00  0.00     0.123 HD
HETATM   22  H2  UNL     1      22.592   0.948  51.140  1.00  0.00     0.123 HD
ENDBRANCH   1  20
BRANCH  18  23
HETATM   23  C19 UNL     1      20.996  -0.048  54.444  1.00  0.00     0.207 C 
BRANCH  23  24
HETATM   24  O2  UNL     1      21.680  -1.165  55.063  1.00  0.00    -0.396 OA
HETATM   25  H20 UNL     1      22.159  -0.744  55.843  1.00  0.00     0.209 HD
ENDBRANCH  23  24
ENDBRANCH  18  23
BRANCH  17  26
HETATM   26  O1  UNL     1      23.989   0.284  54.119  1.00  0.00    -0.352 OA
BRANCH  26  27
HETATM   27  C13 UNL     1      25.209  -0.406  53.993  1.00  0.00     0.195 C 
BRANCH  27  28
HETATM   28  C14 UNL     1      26.189   0.017  55.048  1.00  0.00     0.156 C 
BRANCH  28  29
HETATM   29  N4  UNL     1      27.345   0.650  54.349  1.00  0.00    -0.348 N 
HETATM   30  C15 UNL     1      28.527   0.065  54.536  1.00  0.00     0.111 A 
HETATM   31  C16 UNL     1      29.411   0.842  53.783  1.00  0.00     0.135 A 
HETATM   32  N5  UNL     1      28.760   1.853  53.175  1.00  0.00    -0.255 NA
HETATM   33  C17 UNL     1      27.456   1.722  53.533  1.00  0.00     0.209 A 
ENDBRANCH  28  29
ENDBRANCH  27  28
ENDBRANCH  26  27
ENDBRANCH  17  26
TORSDOF 7
ENDMDL
MODEL 3
REMARK VINA RESULT:      -7.5      1.750      2.296
REMARK  7 active torsions:
REMARK  status: ('A' for Active; 'I' for Inactive)
REMARK    1  A    between atoms: N1_1  and  P1_2 
REMARK    2  A    between atoms: C12_18  and  O1_19 
REMARK    3  A    between atoms: O1_19  and  C13_20 
REMARK    4  A    between atoms: C13_20  and  C14_21 
REMARK    5  A    between atoms: C14_21  and  N4_22 
REMARK    6  A    between atoms: C18_27  and  C19_28 
REMARK    7  A    between atoms: C19_28  and  O2_29 
ROOT
HETATM    1  P1  UNL     1      22.260   2.731  52.314  1.00  0.00     0.008 P 
HETATM    2  C1  UNL     1      22.651   0.973  52.417  1.00  0.00     0.012 C 
HETATM    3  C2  UNL     1      24.059   1.307  52.546  1.00  0.00     0.076 C 
HETATM    4  C3  UNL     1      25.371   1.305  52.664  1.00  0.00     0.047 C 
HETATM    5  C4  UNL     1      26.435   0.340  52.771  1.00  0.00    -0.010 A 
HETATM    6  C5  UNL     1      25.997  -0.945  52.594  1.00  0.00     0.016 A 
HETATM    7  C6  UNL     1      26.849  -2.020  52.687  1.00  0.00     0.045 A 
HETATM    8  C7  UNL     1      28.197  -1.936  52.956  1.00  0.00     0.138 A 
HETATM    9  F1  UNL     1      29.223  -2.780  53.108  1.00  0.00    -0.204 F 
HETATM   10  C8  UNL     1      28.635  -0.654  53.138  1.00  0.00     0.073 A 
HETATM   11 CL1  UNL     1      30.244  -0.099  53.498  1.00  0.00    -0.081 Cl
HETATM   12  C9  UNL     1      27.749   0.431  53.040  1.00  0.00     0.040 A 
HETATM   13  N2  UNL     1      26.225   2.451  52.544  1.00  0.00    -0.281 N 
HETATM   14  N3  UNL     1      26.906   2.901  51.346  1.00  0.00    -0.190 NA
HETATM   15  C10 UNL     1      26.027   3.052  50.336  1.00  0.00     0.124 C 
HETATM   16  C11 UNL     1      24.754   3.001  49.839  1.00  0.00     0.101 C 
HETATM   17  C12 UNL     1      23.370   2.884  49.713  1.00  0.00     0.067 C 
HETATM   18  C18 UNL     1      22.258   2.664  50.562  1.00  0.00     0.018 C 
HETATM   19  H8  UNL     1      26.765   3.253  52.653  1.00  0.00     0.189 HD
ENDROOT
BRANCH   1  20
HETATM   20  N1  UNL     1      24.007   3.248  52.558  1.00  0.00    -0.303 NA
HETATM   21  H1  UNL     1      24.134   2.712  53.475  1.00  0.00     0.123 HD
HETATM   22  H2  UNL     1      24.537   2.674  51.815  1.00  0.00     0.123 HD
ENDBRANCH   1  20
BRANCH  18  23
HETATM   23  C19 UNL     1      20.932   2.316  50.307  1.00  0.00     0.207 C 
BRANCH  23  24
HETATM   24  O2  UNL     1      20.944   1.303  49.271  1.00  0.00    -0.396 OA
HETATM   25  H20 UNL     1      21.518   1.711  48.551  1.00  0.00     0.209 HD
ENDBRANCH  23  24
ENDBRANCH  18  23
BRANCH  17  26
HETATM   26  O1  UNL     1      23.189   3.050  48.425  1.00  0.00    -0.352 OA
BRANCH  26  27
HETATM   27  C13 UNL     1      22.756   4.189  47.722  1.00  0.00     0.195 C 
BRANCH  27  28
HETATM   28  C14 UNL     1      21.772   3.829  46.647  1.00  0.00     0.156 C 
BRANCH  28  29
HETATM   29  N4  UNL     1      20.408   4.090  47.190  1.00  0.00    -0.348 N 
HETATM   30  C15 UNL     1      19.452   3.254  46.786  1.00  0.00     0.111 A 
HETATM   31  C16 UNL     1      18.304   3.717  47.434  1.00  0.00     0.135 A 
HETATM   32  N5  UNL     1      18.583   4.794  48.193  1.00  0.00    -0.255 NA
HETATM   33  C17 UNL     1      19.915   5.021  48.039  1.00  0.00     0.209 A 
ENDBRANCH  28  29
ENDBRANCH  27  28
ENDBRANCH  26  27
ENDBRANCH  17  26
TORSDOF 7
ENDMDL
MODEL 4
REMARK VINA RESULT:      -7.4      1.853      2.312
REMARK  7 active torsions:
REMARK  status: ('A' for Active; 'I' for Inactive)
REMARK    1  A    between atoms: N1_1  and  P1_2 
REMARK    2  A    between atoms: C12_18  and  O1_19 
REMARK    3  A    between atoms: O1_19  and  C13_20 
REMARK    4  A    between atoms: C13_20  and  C14_21 
REMARK    5  A    between atoms: C14_21  and  N4_22 
REMARK    6  A    between atoms: C18_27  and  C19_28 
REMARK    7  A    between atoms: C19_28  and  O2_29 
ROOT
HETATM    1  P1  UNL     1      20.738   2.018  52.161  1.00  0.00     0.008 P 
HETATM    2  C1  UNL     1      21.696   0.563  52.627  1.00  0.00     0.012 C 
HETATM    3  C2  UNL     1      22.892   1.386  52.685  1.00  0.00     0.076 C 
HETATM    4  C3  UNL     1      24.114   1.864  52.802  1.00  0.00     0.047 C 
HETATM    5  C4  UNL     1      25.432   1.372  53.109  1.00  0.00    -0.010 A 
HETATM    6  C5  UNL     1      25.473   0.006  53.202  1.00  0.00     0.016 A 
HETATM    7  C6  UNL     1      26.632  -0.664  53.515  1.00  0.00     0.045 A 
HETATM    8  C7  UNL     1      27.846  -0.065  53.763  1.00  0.00     0.138 A 
HETATM    9  F1  UNL     1      29.084  -0.451  54.089  1.00  0.00    -0.204 F 
HETATM   10  C8  UNL     1      27.806   1.299  53.677  1.00  0.00     0.073 A 
HETATM   11 CL1  UNL     1      29.098   2.439  53.916  1.00  0.00    -0.081 Cl
HETATM   12  C9  UNL     1      26.612   1.966  53.354  1.00  0.00     0.040 A 
HETATM   13  N2  UNL     1      24.532   3.190  52.450  1.00  0.00    -0.281 N 
HETATM   14  N3  UNL     1      25.104   3.609  51.185  1.00  0.00    -0.190 NA
HETATM   15  C10 UNL     1      24.304   3.245  50.165  1.00  0.00     0.124 C 
HETATM   16  C11 UNL     1      23.165   2.658  49.687  1.00  0.00     0.101 C 
HETATM   17  C12 UNL     1      21.916   2.043  49.586  1.00  0.00     0.067 C 
HETATM   18  C18 UNL     1      20.887   1.617  50.461  1.00  0.00     0.018 C 
HETATM   19  H8  UNL     1      24.756   4.135  52.391  1.00  0.00     0.189 HD
ENDROOT
BRANCH   1  20
HETATM   20  N1  UNL     1      22.181   3.150  52.295  1.00  0.00    -0.303 NA
HETATM   21  H1  UNL     1      22.120   3.248  53.359  1.00  0.00     0.123 HD
HETATM   22  H2  UNL     1      23.019   2.497  52.116  1.00  0.00     0.123 HD
ENDBRANCH   1  20
BRANCH  18  23
HETATM   23  C19 UNL     1      19.782   0.786  50.281  1.00  0.00     0.207 C 
BRANCH  23  24
HETATM   24  O2  UNL     1      19.010   1.327  49.182  1.00  0.00    -0.396 OA
HETATM   25  H20 UNL     1      18.227   0.698  49.113  1.00  0.00     0.209 HD
ENDBRANCH  23  24
ENDBRANCH  18  23
BRANCH  17  26
HETATM   26  O1  UNL     1      21.785   1.882  48.291  1.00  0.00    -0.352 OA
BRANCH  26  27
HETATM   27  C13 UNL     1      21.901   2.829  47.257  1.00  0.00     0.195 C 
BRANCH  27  28
HETATM   28  C14 UNL     1      20.597   3.527  47.004  1.00  0.00     0.156 C 
BRANCH  28  29
HETATM   29  N4  UNL     1      20.471   4.611  48.020  1.00  0.00    -0.348 N 
HETATM   30  C15 UNL     1      21.435   5.530  48.013  1.00  0.00     0.111 A 
HETATM   31  C16 UNL     1      21.075   6.407  49.039  1.00  0.00     0.135 A 
HETATM   32  N5  UNL     1      19.930   6.008  49.629  1.00  0.00    -0.255 NA
HETATM   33  C17 UNL     1      19.552   4.878  48.977  1.00  0.00     0.209 A 
ENDBRANCH  28  29
ENDBRANCH  27  28
ENDBRANCH  26  27
ENDBRANCH  17  26
TORSDOF 7
ENDMDL
MODEL 5
REMARK VINA RESULT:      -7.3      3.822      7.309
REMARK  7 active torsions:
REMARK  status: ('A' for Active; 'I' for Inactive)
REMARK    1  A    between atoms: N1_1  and  P1_2 
REMARK    2  A    between atoms: C12_18  and  O1_19 
REMARK    3  A    between atoms: O1_19  and  C13_20 
REMARK    4  A    between atoms: C13_20  and  C14_21 
REMARK    5  A    between atoms: C14_21  and  N4_22 
REMARK    6  A    between atoms: C18_27  and  C19_28 
REMARK    7  A    between atoms: C19_28  and  O2_29 
ROOT
HETATM    1  P1  UNL     1      21.777   1.886  50.658  1.00  0.00     0.008 P 
HETATM    2  C1  UNL     1      21.767   3.630  51.119  1.00  0.00     0.012 C 
HETATM    3  C2  UNL     1      23.039   3.803  50.439  1.00  0.00     0.076 C 
HETATM    4  C3  UNL     1      24.168   4.248  49.927  1.00  0.00     0.047 C 
HETATM    5  C4  UNL     1      24.904   5.485  49.870  1.00  0.00    -0.010 A 
HETATM    6  C5  UNL     1      24.349   6.462  50.653  1.00  0.00     0.016 A 
HETATM    7  C6  UNL     1      24.881   7.728  50.718  1.00  0.00     0.045 A 
HETATM    8  C7  UNL     1      25.997   8.150  50.030  1.00  0.00     0.138 A 
HETATM    9  F1  UNL     1      26.702   9.278  49.900  1.00  0.00    -0.204 F 
HETATM   10  C8  UNL     1      26.550   7.177  49.244  1.00  0.00     0.073 A 
HETATM   11 CL1  UNL     1      27.948   7.280  48.215  1.00  0.00    -0.081 Cl
HETATM   12  C9  UNL     1      25.991   5.890  49.191  1.00  0.00     0.040 A 
HETATM   13  N2  UNL     1      25.190   3.443  49.325  1.00  0.00    -0.281 N 
HETATM   14  N3  UNL     1      26.365   2.904  49.981  1.00  0.00    -0.190 NA
HETATM   15  C10 UNL     1      26.012   2.204  51.076  1.00  0.00     0.124 C 
HETATM   16  C11 UNL     1      25.061   1.709  51.926  1.00  0.00     0.101 C 
HETATM   17  C12 UNL     1      23.848   1.347  52.513  1.00  0.00     0.067 C 
HETATM   18  C18 UNL     1      22.469   1.443  52.207  1.00  0.00     0.018 C 
HETATM   19  H8  UNL     1      25.776   2.916  48.754  1.00  0.00     0.189 HD
ENDROOT
BRANCH   1  20
HETATM   20  N1  UNL     1      23.340   2.033  49.701  1.00  0.00    -0.303 NA
HETATM   21  H1  UNL     1      23.314   3.101  49.648  1.00  0.00     0.123 HD
HETATM   22  H2  UNL     1      24.096   1.801  50.434  1.00  0.00     0.123 HD
ENDBRANCH   1  20
BRANCH  18  23
HETATM   23  C19 UNL     1      21.319   1.272  52.977  1.00  0.00     0.207 C 
BRANCH  23  24
HETATM   24  O2  UNL     1      21.537   0.119  53.826  1.00  0.00    -0.396 OA
HETATM   25  H20 UNL     1      22.439  -0.221  53.533  1.00  0.00     0.209 HD
ENDBRANCH  23  24
ENDBRANCH  18  23
BRANCH  17  26
HETATM   26  O1  UNL     1      24.235   0.772  53.626  1.00  0.00    -0.352 OA
BRANCH  26  27
HETATM   27  C13 UNL     1      25.196  -0.237  53.822  1.00  0.00     0.195 C 
BRANCH  27  28
HETATM   28  C14 UNL     1      26.132   0.108  54.944  1.00  0.00     0.156 C 
BRANCH  28  29
HETATM   29  N4  UNL     1      27.519  -0.132  54.453  1.00  0.00    -0.348 N 
HETATM   30  C15 UNL     1      27.634  -0.956  53.413  1.00  0.00     0.111 A 
HETATM   31  C16 UNL     1      29.008  -0.998  53.164  1.00  0.00     0.135 A 
HETATM   32  N5  UNL     1      29.676  -0.218  54.037  1.00  0.00    -0.255 NA
HETATM   33  C17 UNL     1      28.729   0.330  54.843  1.00  0.00     0.209 A 
ENDBRANCH  28  29
ENDBRANCH  27  28
ENDBRANCH  26  27
ENDBRANCH  17  26
TORSDOF 7
ENDMDL
MODEL 6
REMARK VINA RESULT:      -7.1      2.411      3.733
REMARK  7 active torsions:
REMARK  status: ('A' for Active; 'I' for Inactive)
REMARK    1  A    between atoms: N1_1  and  P1_2 
REMARK    2  A    between atoms: C12_18  and  O1_19 
REMARK    3  A    between atoms: O1_19  and  C13_20 
REMARK    4  A    between atoms: C13_20  and  C14_21 
REMARK    5  A    between atoms: C14_21  and  N4_22 
REMARK    6  A    between atoms: C18_27  and  C19_28 
REMARK    7  A    between atoms: C19_28  and  O2_29 
ROOT
HETATM    1  P1  UNL     1      22.012   6.131  51.183  1.00  0.00     0.008 P 
HETATM    2  C1  UNL     1      21.514   4.595  51.986  1.00  0.00     0.012 C 
HETATM    3  C2  UNL     1      22.898   4.154  51.969  1.00  0.00     0.076 C 
HETATM    4  C3  UNL     1      24.035   3.498  52.078  1.00  0.00     0.047 C 
HETATM    5  C4  UNL     1      24.493   2.223  52.566  1.00  0.00    -0.010 A 
HETATM    6  C5  UNL     1      23.461   1.396  52.923  1.00  0.00     0.016 A 
HETATM    7  C6  UNL     1      23.683   0.142  53.441  1.00  0.00     0.045 A 
HETATM    8  C7  UNL     1      24.925  -0.414  53.654  1.00  0.00     0.138 A 
HETATM    9  F1  UNL     1      25.419  -1.560  54.134  1.00  0.00    -0.204 F 
HETATM   10  C8  UNL     1      25.957   0.412  53.303  1.00  0.00     0.073 A 
HETATM   11 CL1  UNL     1      27.667   0.115  53.410  1.00  0.00    -0.081 Cl
HETATM   12  C9  UNL     1      25.709   1.690  52.776  1.00  0.00     0.040 A 
HETATM   13  N2  UNL     1      25.289   3.894  51.507  1.00  0.00    -0.281 N 
HETATM   14  N3  UNL     1      25.829   3.474  50.229  1.00  0.00    -0.190 NA
HETATM   15  C10 UNL     1      24.942   3.710  49.244  1.00  0.00     0.124 C 
HETATM   16  C11 UNL     1      23.731   4.174  48.809  1.00  0.00     0.101 C 
HETATM   17  C12 UNL     1      22.473   4.773  48.740  1.00  0.00     0.067 C 
HETATM   18  C18 UNL     1      21.604   5.481  49.606  1.00  0.00     0.018 C 
HETATM   19  H8  UNL     1      26.159   4.270  51.284  1.00  0.00     0.189 HD
ENDROOT
BRANCH   1  20
HETATM   20  N1  UNL     1      23.797   5.692  51.198  1.00  0.00    -0.303 NA
HETATM   21  H1  UNL     1      23.887   5.646  50.133  1.00  0.00     0.123 HD
HETATM   22  H2  UNL     1      24.271   6.617  51.485  1.00  0.00     0.123 HD
ENDBRANCH   1  20
BRANCH  18  23
HETATM   23  C19 UNL     1      20.256   5.825  49.512  1.00  0.00     0.207 C 
BRANCH  23  24
HETATM   24  O2  UNL     1      20.083   6.559  48.275  1.00  0.00    -0.396 OA
HETATM   25  H20 UNL     1      20.888   6.294  47.731  1.00  0.00     0.209 HD
ENDBRANCH  23  24
ENDBRANCH  18  23
BRANCH  17  26
HETATM   26  O1  UNL     1      22.125   4.556  47.495  1.00  0.00    -0.352 OA
BRANCH  26  27
HETATM   27  C13 UNL     1      21.771   3.350  46.863  1.00  0.00     0.195 C 
BRANCH  27  28
HETATM   28  C14 UNL     1      20.417   2.876  47.306  1.00  0.00     0.156 C 
BRANCH  28  29
HETATM   29  N4  UNL     1      20.622   2.004  48.499  1.00  0.00    -0.348 N 
HETATM   30  C15 UNL     1      19.710   2.116  49.464  1.00  0.00     0.111 A 
HETATM   31  C16 UNL     1      20.133   1.207  50.436  1.00  0.00     0.135 A 
HETATM   32  N5  UNL     1      21.263   0.582  50.047  1.00  0.00    -0.255 NA
HETATM   33  C17 UNL     1      21.562   1.087  48.821  1.00  0.00     0.209 A 
ENDBRANCH  28  29
ENDBRANCH  27  28
ENDBRANCH  26  27
ENDBRANCH  17  26
TORSDOF 7
ENDMDL
MODEL 7
REMARK VINA RESULT:      -7.0      5.621      8.631
REMARK  7 active torsions:
REMARK  status: ('A' for Active; 'I' for Inactive)
REMARK    1  A    between atoms: N1_1  and  P1_2 
REMARK    2  A    between atoms: C12_18  and  O1_19 
REMARK    3  A    between atoms: O1_19  and  C13_20 
REMARK    4  A    between atoms: C13_20  and  C14_21 
REMARK    5  A    between atoms: C14_21  and  N4_22 
REMARK    6  A    between atoms: C18_27  and  C19_28 
REMARK    7  A    between atoms: C19_28  and  O2_29 
ROOT
HETATM    1  P1  UNL     1      26.443   8.718  50.052  1.00  0.00     0.008 P 
HETATM    2  C1  UNL     1      25.179   8.725  48.766  1.00  0.00     0.012 C 
HETATM    3  C2  UNL     1      24.908   7.325  49.044  1.00  0.00     0.076 C 
HETATM    4  C3  UNL     1      24.464   6.085  49.064  1.00  0.00     0.047 C 
HETATM    5  C4  UNL     1      23.502   5.281  48.355  1.00  0.00    -0.010 A 
HETATM    6  C5  UNL     1      22.959   5.937  47.282  1.00  0.00     0.016 A 
HETATM    7  C6  UNL     1      21.998   5.356  46.488  1.00  0.00     0.045 A 
HETATM    8  C7  UNL     1      21.485   4.091  46.670  1.00  0.00     0.138 A 
HETATM    9  F1  UNL     1      20.574   3.307  46.084  1.00  0.00    -0.204 F 
HETATM   10  C8  UNL     1      22.021   3.437  47.744  1.00  0.00     0.073 A 
HETATM   11 CL1  UNL     1      21.661   1.840  48.331  1.00  0.00    -0.081 Cl
HETATM   12  C9  UNL     1      23.003   4.047  48.542  1.00  0.00     0.040 A 
HETATM   13  N2  UNL     1      25.026   5.005  49.820  1.00  0.00    -0.281 N 
HETATM   14  N3  UNL     1      26.006   4.042  49.357  1.00  0.00    -0.190 NA
HETATM   15  C10 UNL     1      27.083   4.673  48.854  1.00  0.00     0.124 C 
HETATM   16  C11 UNL     1      27.765   5.818  48.547  1.00  0.00     0.101 C 
HETATM   17  C12 UNL     1      28.162   7.152  48.434  1.00  0.00     0.067 C 
HETATM   18  C18 UNL     1      27.699   8.419  48.865  1.00  0.00     0.018 C 
HETATM   19  H8  UNL     1      25.294   4.339  50.479  1.00  0.00     0.189 HD
ENDROOT
BRANCH   1  20
HETATM   20  N1  UNL     1      26.108   6.975  50.530  1.00  0.00    -0.303 NA
HETATM   21  H1  UNL     1      26.840   6.953  51.310  1.00  0.00     0.123 HD
HETATM   22  H2  UNL     1      25.157   7.039  51.031  1.00  0.00     0.123 HD
ENDBRANCH   1  20
BRANCH  18  23
HETATM   23  C19 UNL     1      28.033   9.720  48.491  1.00  0.00     0.207 C 
BRANCH  23  24
HETATM   24  O2  UNL     1      28.082  10.517  49.699  1.00  0.00    -0.396 OA
HETATM   25  H20 UNL     1      28.545  11.361  49.405  1.00  0.00     0.209 HD
ENDBRANCH  23  24
ENDBRANCH  18  23
BRANCH  17  26
HETATM   26  O1  UNL     1      29.265   7.059  47.733  1.00  0.00    -0.352 OA
BRANCH  26  27
HETATM   27  C13 UNL     1      30.289   6.096  47.800  1.00  0.00     0.195 C 
BRANCH  27  28
HETATM   28  C14 UNL     1      31.346   6.489  48.790  1.00  0.00     0.156 C 
BRANCH  28  29
HETATM   29  N4  UNL     1      32.563   5.684  48.480  1.00  0.00    -0.348 N 
HETATM   30  C15 UNL     1      32.348   4.499  47.912  1.00  0.00     0.111 A 
HETATM   31  C16 UNL     1      33.629   3.972  47.732  1.00  0.00     0.135 A 
HETATM   32  N5  UNL     1      34.566   4.828  48.184  1.00  0.00    -0.255 NA
HETATM   33  C17 UNL     1      33.886   5.909  48.650  1.00  0.00     0.209 A 
ENDBRANCH  28  29
ENDBRANCH  27  28
ENDBRANCH  26  27
ENDBRANCH  17  26
TORSDOF 7
ENDMDL
MODEL 8
REMARK VINA RESULT:      -6.8      5.711      7.852
REMARK  7 active torsions:
REMARK  status: ('A' for Active; 'I' for Inactive)
REMARK    1  A    between atoms: N1_1  and  P1_2 
REMARK    2  A    between atoms: C12_18  and  O1_19 
REMARK    3  A    between atoms: O1_19  and  C13_20 
REMARK    4  A    between atoms: C13_20  and  C14_21 
REMARK    5  A    between atoms: C14_21  and  N4_22 
REMARK    6  A    between atoms: C18_27  and  C19_28 
REMARK    7  A    between atoms: C19_28  and  O2_29 
ROOT
HETATM    1  P1  UNL     1      26.405   8.856  49.633  1.00  0.00     0.008 P 
HETATM    2  C1  UNL     1      24.975   8.529  48.584  1.00  0.00     0.012 C 
HETATM    3  C2  UNL     1      24.919   7.174  49.107  1.00  0.00     0.076 C 
HETATM    4  C3  UNL     1      24.636   5.918  49.381  1.00  0.00     0.047 C 
HETATM    5  C4  UNL     1      23.686   4.918  48.966  1.00  0.00    -0.010 A 
HETATM    6  C5  UNL     1      22.917   5.333  47.910  1.00  0.00     0.016 A 
HETATM    7  C6  UNL     1      21.928   4.539  47.379  1.00  0.00     0.045 A 
HETATM    8  C7  UNL     1      21.604   3.278  47.827  1.00  0.00     0.138 A 
HETATM    9  F1  UNL     1      20.719   2.324  47.520  1.00  0.00    -0.204 F 
HETATM   10  C8  UNL     1      22.367   2.865  48.884  1.00  0.00     0.073 A 
HETATM   11 CL1  UNL     1      22.291   1.359  49.752  1.00  0.00    -0.081 Cl
HETATM   12  C9  UNL     1      23.373   3.690  49.412  1.00  0.00     0.040 A 
HETATM   13  N2  UNL     1      25.430   5.036  50.187  1.00  0.00    -0.281 N 
HETATM   14  N3  UNL     1      26.441   4.109  49.718  1.00  0.00    -0.190 NA
HETATM   15  C10 UNL     1      27.349   4.750  48.958  1.00  0.00     0.124 C 
HETATM   16  C11 UNL     1      27.835   5.889  48.378  1.00  0.00     0.101 C 
HETATM   17  C12 UNL     1      28.046   7.218  48.006  1.00  0.00     0.067 C 
HETATM   18  C18 UNL     1      27.501   8.488  48.314  1.00  0.00     0.018 C 
HETATM   19  H8  UNL     1      25.869   4.518  50.884  1.00  0.00     0.189 HD
ENDROOT
BRANCH   1  20
HETATM   20  N1  UNL     1      26.357   7.192  50.411  1.00  0.00    -0.303 NA
HETATM   21  H1  UNL     1      26.575   6.663  49.507  1.00  0.00     0.123 HD
HETATM   22  H2  UNL     1      27.270   7.166  50.984  1.00  0.00     0.123 HD
ENDBRANCH   1  20
BRANCH  18  23
HETATM   23  C19 UNL     1      27.617   9.736  47.702  1.00  0.00     0.207 C 
BRANCH  23  24
HETATM   24  O2  UNL     1      27.790   9.505  46.283  1.00  0.00    -0.396 OA
HETATM   25  H20 UNL     1      28.654   9.977  46.072  1.00  0.00     0.209 HD
ENDBRANCH  23  24
ENDBRANCH  18  23
BRANCH  17  26
HETATM   26  O1  UNL     1      29.039   7.118  47.155  1.00  0.00    -0.352 OA
BRANCH  26  27
HETATM   27  C13 UNL     1      30.423   7.059  47.400  1.00  0.00     0.195 C 
BRANCH  27  28
HETATM   28  C14 UNL     1      31.145   8.198  46.742  1.00  0.00     0.156 C 
BRANCH  28  29
HETATM   29  N4  UNL     1      31.069   9.364  47.668  1.00  0.00    -0.348 N 
HETATM   30  C15 UNL     1      31.149  10.566  47.098  1.00  0.00     0.111 A 
HETATM   31  C16 UNL     1      31.050  11.456  48.170  1.00  0.00     0.135 A 
HETATM   32  N5  UNL     1      30.917  10.790  49.335  1.00  0.00    -0.255 NA
HETATM   33  C17 UNL     1      30.924   9.470  49.009  1.00  0.00     0.209 A 
ENDBRANCH  28  29
ENDBRANCH  27  28
ENDBRANCH  26  27
ENDBRANCH  17  26
TORSDOF 7
ENDMDL
MODEL 9
REMARK VINA RESULT:      -6.7      7.365      8.750
REMARK  7 active torsions:
REMARK  status: ('A' for Active; 'I' for Inactive)
REMARK    1  A    between atoms: N1_1  and  P1_2 
REMARK    2  A    between atoms: C12_18  and  O1_19 
REMARK    3  A    between atoms: O1_19  and  C13_20 
REMARK    4  A    between atoms: C13_20  and  C14_21 
REMARK    5  A    between atoms: C14_21  and  N4_22 
REMARK    6  A    between atoms: C18_27  and  C19_28 
REMARK    7  A    between atoms: C19_28  and  O2_29 
ROOT
HETATM    1  P1  UNL     1      27.526   7.860  48.733  1.00  0.00     0.008 P 
HETATM    2  C1  UNL     1      28.134   6.283  48.103  1.00  0.00     0.012 C 
HETATM    3  C2  UNL     1      29.484   6.672  48.472  1.00  0.00     0.076 C 
HETATM    4  C3  UNL     1      30.783   6.755  48.679  1.00  0.00     0.047 C 
HETATM    5  C4  UNL     1      31.958   5.956  48.445  1.00  0.00    -0.010 A 
HETATM    6  C5  UNL     1      31.691   4.837  47.701  1.00  0.00     0.016 A 
HETATM    7  C6  UNL     1      32.670   3.924  47.390  1.00  0.00     0.045 A 
HETATM    8  C7  UNL     1      33.990   4.022  47.773  1.00  0.00     0.138 A 
HETATM    9  F1  UNL     1      35.110   3.306  47.628  1.00  0.00    -0.204 F 
HETATM   10  C8  UNL     1      34.257   5.135  48.521  1.00  0.00     0.073 A 
HETATM   11 CL1  UNL     1      35.772   5.641  49.208  1.00  0.00    -0.081 Cl
HETATM   12  C9  UNL     1      33.242   6.056  48.828  1.00  0.00     0.040 A 
HETATM   13  N2  UNL     1      31.487   7.920  49.129  1.00  0.00    -0.281 N 
HETATM   14  N3  UNL     1      32.135   8.915  48.297  1.00  0.00    -0.190 NA
HETATM   15  C10 UNL     1      31.270   9.398  47.384  1.00  0.00     0.124 C 
HETATM   16  C11 UNL     1      30.027   9.437  46.815  1.00  0.00     0.101 C 
HETATM   17  C12 UNL     1      28.672   9.244  46.544  1.00  0.00     0.067 C 
HETATM   18  C18 UNL     1      27.576   8.562  47.127  1.00  0.00     0.018 C 
HETATM   19  H8  UNL     1      31.917   8.647  49.613  1.00  0.00     0.189 HD
ENDROOT
BRANCH   1  20
HETATM   20  N1  UNL     1      29.186   8.398  49.311  1.00  0.00    -0.303 NA
HETATM   21  H1  UNL     1      28.904   8.472  50.340  1.00  0.00     0.123 HD
HETATM   22  H2  UNL     1      29.772   7.496  49.239  1.00  0.00     0.123 HD
ENDBRANCH   1  20
BRANCH  18  23
HETATM   23  C19 UNL     1      26.312   8.224  46.645  1.00  0.00     0.207 C 
BRANCH  23  24
HETATM   24  O2  UNL     1      25.681   9.448  46.196  1.00  0.00    -0.396 OA
HETATM   25  H20 UNL     1      26.198   9.689  45.366  1.00  0.00     0.209 HD
ENDBRANCH  23  24
ENDBRANCH  18  23
BRANCH  17  26
HETATM   26  O1  UNL     1      28.505   9.933  45.441  1.00  0.00    -0.352 OA
BRANCH  26  27
HETATM   27  C13 UNL     1      28.862  11.264  45.157  1.00  0.00     0.195 C 
BRANCH  27  28
HETATM   28  C14 UNL     1      27.818  12.227  45.641  1.00  0.00     0.156 C 
BRANCH  28  29
HETATM   29  N4  UNL     1      28.103  12.504  47.079  1.00  0.00    -0.348 N 
HETATM   30  C15 UNL     1      29.338  12.921  47.356  1.00  0.00     0.111 A 
HETATM   31  C16 UNL     1      29.329  13.104  48.741  1.00  0.00     0.135 A 
HETATM   32  N5  UNL     1      28.122  12.800  49.257  1.00  0.00    -0.255 NA
HETATM   33  C17 UNL     1      27.352  12.428  48.200  1.00  0.00     0.209 A 
ENDBRANCH  28  29
ENDBRANCH  27  28
ENDBRANCH  26  27
ENDBRANCH  17  26
TORSDOF 7
ENDMDL
