MODEL 1
REMARK VINA RESULT:      -9.7      0.000      0.000
REMARK  6 active torsions:
REMARK  status: ('A' for Active; 'I' for Inactive)
REMARK    1  A    between atoms: C2_2  and  C3_3 
REMARK       I    between atoms: C3_3  and  N1_5 
REMARK    2  A    between atoms: N1_5  and  C4_6 
REMARK    3  A    between atoms: C7_9  and  N2_10 
REMARK    4  A    between atoms: N2_10  and  C8_11 
REMARK    5  A    between atoms: C11_15  and  C12_16 
REMARK    6  A    between atoms: C22_29  and  O3_30 
ROOT
HETATM    1  C4  UNL     1      23.861   3.892  51.433  1.00  0.00     0.069 A 
HETATM    2  C5  UNL     1      23.420   2.606  51.686  1.00  0.00     0.050 A 
HETATM    3  C6  UNL     1      22.089   2.439  52.008  1.00  0.00     0.041 A 
HETATM    4  C7  UNL     1      21.685   1.143  52.254  1.00  0.00     0.142 A 
HETATM    5  N3  UNL     1      20.393   0.961  52.570  1.00  0.00    -0.224 NA
HETATM    6  C19 UNL     1      19.515   1.976  52.649  1.00  0.00     0.236 A 
HETATM    7  N4  UNL     1      19.880   3.251  52.416  1.00  0.00    -0.241 NA
HETATM    8  C20 UNL     1      21.183   3.484  52.091  1.00  0.00     0.075 A 
HETATM    9  C21 UNL     1      21.663   4.745  51.833  1.00  0.00     0.071 A 
HETATM   10  C22 UNL     1      22.974   4.970  51.507  1.00  0.00     0.097 A 
ENDROOT
BRANCH   4  11
HETATM   11  N2  UNL     1      22.492  -0.027  52.209  1.00  0.00    -0.340 N 
HETATM   12  H8  UNL     1      22.545  -0.765  51.493  1.00  0.00     0.167 HD
BRANCH  11  13
HETATM   13  C8  UNL     1      23.422  -0.386  53.225  1.00  0.00     0.034 A 
HETATM   14  C9  UNL     1      22.983  -0.884  54.370  1.00  0.00     0.029 A 
HETATM   15  C10 UNL     1      23.863  -1.292  55.497  1.00  0.00     0.205 A 
HETATM   16  O2  UNL     1      25.207  -1.080  55.187  1.00  0.00    -0.346 OA
HETATM   17  C11 UNL     1      25.721  -0.569  54.023  1.00  0.00     0.081 A 
HETATM   18  C18 UNL     1      24.867  -0.239  53.090  1.00  0.00     0.066 A 
BRANCH  17  19
HETATM   19  C12 UNL     1      27.163  -0.422  53.889  1.00  0.00     0.000 A 
HETATM   20  C13 UNL     1      27.991  -1.349  53.297  1.00  0.00     0.014 A 
HETATM   21  C14 UNL     1      29.354  -1.161  53.196  1.00  0.00     0.004 A 
HETATM   22  C15 UNL     1      29.955  -0.023  53.690  1.00  0.00     0.042 A 
HETATM   23  C16 UNL     1      29.157   0.923  54.287  1.00  0.00     0.117 A 
HETATM   24  F1  UNL     1      29.713   2.072  54.793  1.00  0.00    -0.206 F 
HETATM   25  C17 UNL     1      27.808   0.697  54.367  1.00  0.00     0.056 A 
ENDBRANCH  17  19
ENDBRANCH  11  13
ENDBRANCH   4  11
BRANCH   1  26
HETATM   26  N1  UNL     1      25.249   4.064  51.096  1.00  0.00    -0.325 N 
HETATM   27  C3  UNL     1      25.530   3.956  49.696  1.00  0.00     0.221 C 
HETATM   28  O1  UNL     1      24.492   3.726  49.022  1.00  0.00    -0.273 OA
HETATM   29  H6  UNL     1      25.922   4.253  51.897  1.00  0.00     0.169 HD
BRANCH  27  30
HETATM   30  C2  UNL     1      26.981   4.137  49.339  1.00  0.00     0.098 C 
HETATM   31  C1  UNL     1      27.159   5.444  48.635  1.00  0.00     0.014 C 
ENDBRANCH  27  30
ENDBRANCH   1  26
BRANCH  10  32
HETATM   32  O3  UNL     1      23.459   6.226  51.248  1.00  0.00    -0.354 OA
HETATM   33  C23 UNL     1      23.048   6.980  50.132  1.00  0.00     0.210 C 
ENDBRANCH  10  32
TORSDOF 6
ENDMDL
MODEL 2
REMARK VINA RESULT:      -9.3      2.222      6.663
REMARK  6 active torsions:
REMARK  status: ('A' for Active; 'I' for Inactive)
REMARK    1  A    between atoms: C2_2  and  C3_3 
REMARK       I    between atoms: C3_3  and  N1_5 
REMARK    2  A    between atoms: N1_5  and  C4_6 
REMARK    3  A    between atoms: C7_9  and  N2_10 
REMARK    4  A    between atoms: N2_10  and  C8_11 
REMARK    5  A    between atoms: C11_15  and  C12_16 
REMARK    6  A    between atoms: C22_29  and  O3_30 
ROOT
HETATM    1  C4  UNL     1      25.491   0.237  52.991  1.00  0.00     0.069 A 
HETATM    2  C5  UNL     1      24.896   0.999  52.002  1.00  0.00     0.050 A 
HETATM    3  C6  UNL     1      23.522   1.117  52.026  1.00  0.00     0.041 A 
HETATM    4  C7  UNL     1      22.964   1.884  51.025  1.00  0.00     0.142 A 
HETATM    5  N3  UNL     1      21.628   2.010  51.032  1.00  0.00    -0.224 NA
HETATM    6  C19 UNL     1      20.848   1.427  51.960  1.00  0.00     0.236 A 
HETATM    7  N4  UNL     1      21.364   0.672  52.949  1.00  0.00    -0.241 NA
HETATM    8  C20 UNL     1      22.717   0.516  52.981  1.00  0.00     0.075 A 
HETATM    9  C21 UNL     1      23.349  -0.232  53.945  1.00  0.00     0.071 A 
HETATM   10  C22 UNL     1      24.710  -0.383  53.970  1.00  0.00     0.097 A 
ENDROOT
BRANCH   4  11
HETATM   11  N2  UNL     1      23.653   2.560  49.980  1.00  0.00    -0.340 N 
HETATM   12  H8  UNL     1      23.882   2.244  49.028  1.00  0.00     0.167 HD
BRANCH  11  13
HETATM   13  C8  UNL     1      24.173   3.879  50.100  1.00  0.00     0.034 A 
HETATM   14  C9  UNL     1      23.602   4.737  50.931  1.00  0.00     0.029 A 
HETATM   15  C10 UNL     1      24.060   6.136  51.136  1.00  0.00     0.205 A 
HETATM   16  O2  UNL     1      25.168   6.423  50.337  1.00  0.00    -0.346 OA
HETATM   17  C11 UNL     1      25.801   5.581  49.460  1.00  0.00     0.081 A 
HETATM   18  C18 UNL     1      25.324   4.369  49.350  1.00  0.00     0.066 A 
BRANCH  17  19
HETATM   19  C12 UNL     1      26.950   6.070  48.712  1.00  0.00     0.000 A 
HETATM   20  C13 UNL     1      27.003   7.287  48.070  1.00  0.00     0.014 A 
HETATM   21  C14 UNL     1      28.119   7.703  47.372  1.00  0.00     0.004 A 
HETATM   22  C15 UNL     1      29.243   6.909  47.285  1.00  0.00     0.042 A 
HETATM   23  C16 UNL     1      29.222   5.688  47.914  1.00  0.00     0.117 A 
HETATM   24  F1  UNL     1      30.320   4.864  47.855  1.00  0.00    -0.206 F 
HETATM   25  C17 UNL     1      28.095   5.313  48.597  1.00  0.00     0.056 A 
ENDBRANCH  17  19
ENDBRANCH  11  13
ENDBRANCH   4  11
BRANCH   1  26
HETATM   26  N1  UNL     1      26.924   0.114  52.964  1.00  0.00    -0.325 N 
HETATM   27  C3  UNL     1      27.611   1.105  53.738  1.00  0.00     0.221 C 
HETATM   28  O1  UNL     1      26.814   1.903  54.297  1.00  0.00    -0.273 OA
HETATM   29  H6  UNL     1      27.333  -0.680  52.389  1.00  0.00     0.169 HD
BRANCH  27  30
HETATM   30  C2  UNL     1      29.111   0.981  53.714  1.00  0.00     0.098 C 
HETATM   31  C1  UNL     1      29.488  -0.467  53.720  1.00  0.00     0.014 C 
ENDBRANCH  27  30
ENDBRANCH   1  26
BRANCH  10  32
HETATM   32  O3  UNL     1      25.346  -1.129  54.929  1.00  0.00    -0.354 OA
HETATM   33  C23 UNL     1      25.082  -0.976  56.304  1.00  0.00     0.210 C 
ENDBRANCH  10  32
TORSDOF 6
ENDMDL
MODEL 3
REMARK VINA RESULT:      -9.2      2.217      5.285
REMARK  6 active torsions:
REMARK  status: ('A' for Active; 'I' for Inactive)
REMARK    1  A    between atoms: C2_2  and  C3_3 
REMARK       I    between atoms: C3_3  and  N1_5 
REMARK    2  A    between atoms: N1_5  and  C4_6 
REMARK    3  A    between atoms: C7_9  and  N2_10 
REMARK    4  A    between atoms: N2_10  and  C8_11 
REMARK    5  A    between atoms: C11_15  and  C12_16 
REMARK    6  A    between atoms: C22_29  and  O3_30 
ROOT
HETATM    1  C4  UNL     1      20.975   0.543  53.219  1.00  0.00     0.069 A 
HETATM    2  C5  UNL     1      21.619   1.621  52.640  1.00  0.00     0.050 A 
HETATM    3  C6  UNL     1      21.102   2.116  51.460  1.00  0.00     0.041 A 
HETATM    4  C7  UNL     1      21.770   3.191  50.911  1.00  0.00     0.142 A 
HETATM    5  N3  UNL     1      21.282   3.685  49.763  1.00  0.00    -0.224 NA
HETATM    6  C19 UNL     1      20.195   3.176  49.156  1.00  0.00     0.236 A 
HETATM    7  N4  UNL     1      19.523   2.126  49.667  1.00  0.00    -0.241 NA
HETATM    8  C20 UNL     1      19.983   1.591  50.833  1.00  0.00     0.075 A 
HETATM    9  C21 UNL     1      19.374   0.520  51.442  1.00  0.00     0.071 A 
HETATM   10  C22 UNL     1      19.843  -0.011  52.614  1.00  0.00     0.097 A 
ENDROOT
BRANCH   4  11
HETATM   11  N2  UNL     1      22.925   3.837  51.433  1.00  0.00    -0.340 N 
HETATM   12  H8  UNL     1      23.001   4.626  52.089  1.00  0.00     0.167 HD
BRANCH  11  13
HETATM   13  C8  UNL     1      24.257   3.461  51.103  1.00  0.00     0.034 A 
HETATM   14  C9  UNL     1      24.763   3.801  49.928  1.00  0.00     0.029 A 
HETATM   15  C10 UNL     1      26.139   3.463  49.479  1.00  0.00     0.205 A 
HETATM   16  O2  UNL     1      26.824   2.741  50.459  1.00  0.00    -0.346 OA
HETATM   17  C11 UNL     1      26.355   2.359  51.689  1.00  0.00     0.081 A 
HETATM   18  C18 UNL     1      25.132   2.704  51.993  1.00  0.00     0.066 A 
BRANCH  17  19
HETATM   19  C12 UNL     1      27.227   1.604  52.577  1.00  0.00     0.000 A 
HETATM   20  C13 UNL     1      27.199   0.235  52.721  1.00  0.00     0.014 A 
HETATM   21  C14 UNL     1      28.049  -0.432  53.578  1.00  0.00     0.004 A 
HETATM   22  C15 UNL     1      28.975   0.250  54.339  1.00  0.00     0.042 A 
HETATM   23  C16 UNL     1      29.030   1.617  54.219  1.00  0.00     0.117 A 
HETATM   24  F1  UNL     1      29.937   2.337  54.956  1.00  0.00    -0.206 F 
HETATM   25  C17 UNL     1      28.168   2.242  53.355  1.00  0.00     0.056 A 
ENDBRANCH  17  19
ENDBRANCH  11  13
ENDBRANCH   4  11
BRANCH   1  26
HETATM   26  N1  UNL     1      21.515   0.029  54.449  1.00  0.00    -0.325 N 
HETATM   27  C3  UNL     1      22.579  -0.914  54.273  1.00  0.00     0.221 C 
HETATM   28  O1  UNL     1      22.837  -1.112  53.056  1.00  0.00    -0.273 OA
HETATM   29  H6  UNL     1      21.087   0.387  55.354  1.00  0.00     0.169 HD
BRANCH  27  30
HETATM   30  C2  UNL     1      23.148  -1.455  55.557  1.00  0.00     0.098 C 
HETATM   31  C1  UNL     1      24.605  -1.125  55.631  1.00  0.00     0.014 C 
ENDBRANCH  27  30
ENDBRANCH   1  26
BRANCH  10  32
HETATM   32  O3  UNL     1      19.240  -1.079  53.226  1.00  0.00    -0.354 OA
HETATM   33  C23 UNL     1      17.841  -1.234  53.273  1.00  0.00     0.210 C 
ENDBRANCH  10  32
TORSDOF 6
ENDMDL
MODEL 4
REMARK VINA RESULT:      -9.1      2.601      6.751
REMARK  6 active torsions:
REMARK  status: ('A' for Active; 'I' for Inactive)
REMARK    1  A    between atoms: C2_2  and  C3_3 
REMARK       I    between atoms: C3_3  and  N1_5 
REMARK    2  A    between atoms: N1_5  and  C4_6 
REMARK    3  A    between atoms: C7_9  and  N2_10 
REMARK    4  A    between atoms: N2_10  and  C8_11 
REMARK    5  A    between atoms: C11_15  and  C12_16 
REMARK    6  A    between atoms: C22_29  and  O3_30 
ROOT
HETATM    1  C4  UNL     1      25.186   1.930  53.456  1.00  0.00     0.069 A 
HETATM    2  C5  UNL     1      24.527   3.085  53.076  1.00  0.00     0.050 A 
HETATM    3  C6  UNL     1      23.277   2.950  52.508  1.00  0.00     0.041 A 
HETATM    4  C7  UNL     1      22.649   4.122  52.142  1.00  0.00     0.142 A 
HETATM    5  N3  UNL     1      21.433   4.011  51.587  1.00  0.00    -0.224 NA
HETATM    6  C19 UNL     1      20.831   2.825  51.387  1.00  0.00     0.236 A 
HETATM    7  N4  UNL     1      21.419   1.663  51.733  1.00  0.00    -0.241 NA
HETATM    8  C20 UNL     1      22.656   1.729  52.301  1.00  0.00     0.075 A 
HETATM    9  C21 UNL     1      23.346   0.606  52.692  1.00  0.00     0.071 A 
HETATM   10  C22 UNL     1      24.589   0.681  53.262  1.00  0.00     0.097 A 
ENDROOT
BRANCH   4  11
HETATM   11  N2  UNL     1      23.154   5.444  52.289  1.00  0.00    -0.340 N 
HETATM   12  H8  UNL     1      23.241   6.027  53.133  1.00  0.00     0.167 HD
BRANCH  11  13
HETATM   13  C8  UNL     1      23.656   6.224  51.209  1.00  0.00     0.034 A 
HETATM   14  C9  UNL     1      22.913   7.194  50.699  1.00  0.00     0.029 A 
HETATM   15  C10 UNL     1      23.335   8.068  49.574  1.00  0.00     0.205 A 
HETATM   16  O2  UNL     1      24.614   7.731  49.129  1.00  0.00    -0.346 OA
HETATM   17  C11 UNL     1      25.429   6.741  49.613  1.00  0.00     0.081 A 
HETATM   18  C18 UNL     1      24.969   6.025  50.605  1.00  0.00     0.066 A 
BRANCH  17  19
HETATM   19  C12 UNL     1      26.739   6.542  49.011  1.00  0.00     0.000 A 
HETATM   20  C13 UNL     1      27.315   5.313  48.782  1.00  0.00     0.014 A 
HETATM   21  C14 UNL     1      28.561   5.179  48.207  1.00  0.00     0.004 A 
HETATM   22  C15 UNL     1      29.297   6.285  47.832  1.00  0.00     0.042 A 
HETATM   23  C16 UNL     1      28.751   7.527  48.048  1.00  0.00     0.117 A 
HETATM   24  F1  UNL     1      29.446   8.656  47.690  1.00  0.00    -0.206 F 
HETATM   25  C17 UNL     1      27.509   7.616  48.621  1.00  0.00     0.056 A 
ENDBRANCH  17  19
ENDBRANCH  11  13
ENDBRANCH   4  11
BRANCH   1  26
HETATM   26  N1  UNL     1      26.489   2.073  54.048  1.00  0.00    -0.325 N 
HETATM   27  C3  UNL     1      27.556   2.171  53.098  1.00  0.00     0.221 C 
HETATM   28  O1  UNL     1      27.140   2.110  51.912  1.00  0.00    -0.273 OA
HETATM   29  H6  UNL     1      26.540   2.093  55.110  1.00  0.00     0.169 HD
BRANCH  27  30
HETATM   30  C2  UNL     1      28.922   2.320  53.713  1.00  0.00     0.098 C 
HETATM   31  C1  UNL     1      29.422   0.977  54.143  1.00  0.00     0.014 C 
ENDBRANCH  27  30
ENDBRANCH   1  26
BRANCH  10  32
HETATM   32  O3  UNL     1      25.283  -0.435  53.655  1.00  0.00    -0.354 OA
HETATM   33  C23 UNL     1      26.092  -1.173  52.770  1.00  0.00     0.210 C 
ENDBRANCH  10  32
TORSDOF 6
ENDMDL
MODEL 5
REMARK VINA RESULT:      -9.1      3.490      5.984
REMARK  6 active torsions:
REMARK  status: ('A' for Active; 'I' for Inactive)
REMARK    1  A    between atoms: C2_2  and  C3_3 
REMARK       I    between atoms: C3_3  and  N1_5 
REMARK    2  A    between atoms: N1_5  and  C4_6 
REMARK    3  A    between atoms: C7_9  and  N2_10 
REMARK    4  A    between atoms: N2_10  and  C8_11 
REMARK    5  A    between atoms: C11_15  and  C12_16 
REMARK    6  A    between atoms: C22_29  and  O3_30 
ROOT
HETATM    1  C4  UNL     1      29.331   6.491  48.060  1.00  0.00     0.069 A 
HETATM    2  C5  UNL     1      28.168   5.802  48.348  1.00  0.00     0.050 A 
HETATM    3  C6  UNL     1      27.143   6.502  48.948  1.00  0.00     0.041 A 
HETATM    4  C7  UNL     1      25.997   5.783  49.220  1.00  0.00     0.142 A 
HETATM    5  N3  UNL     1      24.989   6.447  49.805  1.00  0.00    -0.224 NA
HETATM    6  C19 UNL     1      25.065   7.752  50.121  1.00  0.00     0.236 A 
HETATM    7  N4  UNL     1      26.169   8.480  49.868  1.00  0.00    -0.241 NA
HETATM    8  C20 UNL     1      27.219   7.846  49.275  1.00  0.00     0.075 A 
HETATM    9  C21 UNL     1      28.394   8.493  48.972  1.00  0.00     0.071 A 
HETATM   10  C22 UNL     1      29.444   7.848  48.375  1.00  0.00     0.097 A 
ENDROOT
BRANCH   4  11
HETATM   11  N2  UNL     1      25.768   4.405  48.946  1.00  0.00    -0.340 N 
HETATM   12  H8  UNL     1      25.769   3.902  48.049  1.00  0.00     0.167 HD
BRANCH  11  13
HETATM   13  C8  UNL     1      25.479   3.438  49.949  1.00  0.00     0.034 A 
HETATM   14  C9  UNL     1      24.227   3.061  50.157  1.00  0.00     0.029 A 
HETATM   15  C10 UNL     1      23.812   2.060  51.175  1.00  0.00     0.205 A 
HETATM   16  O2  UNL     1      24.914   1.573  51.879  1.00  0.00    -0.346 OA
HETATM   17  C11 UNL     1      26.229   1.923  51.711  1.00  0.00     0.081 A 
HETATM   18  C18 UNL     1      26.495   2.812  50.790  1.00  0.00     0.066 A 
BRANCH  17  19
HETATM   19  C12 UNL     1      27.242   1.300  52.549  1.00  0.00     0.000 A 
HETATM   20  C13 UNL     1      27.445  -0.058  52.650  1.00  0.00     0.014 A 
HETATM   21  C14 UNL     1      28.421  -0.598  53.461  1.00  0.00     0.004 A 
HETATM   22  C15 UNL     1      29.246   0.207  54.219  1.00  0.00     0.042 A 
HETATM   23  C16 UNL     1      29.069   1.567  54.142  1.00  0.00     0.117 A 
HETATM   24  F1  UNL     1      29.868   2.408  54.877  1.00  0.00    -0.206 F 
HETATM   25  C17 UNL     1      28.088   2.063  53.323  1.00  0.00     0.056 A 
ENDBRANCH  17  19
ENDBRANCH  11  13
ENDBRANCH   4  11
BRANCH   1  26
HETATM   26  N1  UNL     1      30.400   5.760  47.434  1.00  0.00    -0.325 N 
HETATM   27  C3  UNL     1      31.354   5.214  48.353  1.00  0.00     0.221 C 
HETATM   28  O1  UNL     1      31.067   5.487  49.548  1.00  0.00    -0.273 OA
HETATM   29  H6  UNL     1      30.385   5.691  46.373  1.00  0.00     0.169 HD
BRANCH  27  30
HETATM   30  C2  UNL     1      32.474   4.447  47.702  1.00  0.00     0.098 C 
HETATM   31  C1  UNL     1      31.905   3.499  46.694  1.00  0.00     0.014 C 
ENDBRANCH  27  30
ENDBRANCH   1  26
BRANCH  10  32
HETATM   32  O3  UNL     1      30.618   8.488  48.071  1.00  0.00    -0.354 OA
HETATM   33  C23 UNL     1      30.670   9.854  47.733  1.00  0.00     0.210 C 
ENDBRANCH  10  32
TORSDOF 6
ENDMDL
MODEL 6
REMARK VINA RESULT:      -8.9      2.565      5.414
REMARK  6 active torsions:
REMARK  status: ('A' for Active; 'I' for Inactive)
REMARK    1  A    between atoms: C2_2  and  C3_3 
REMARK       I    between atoms: C3_3  and  N1_5 
REMARK    2  A    between atoms: N1_5  and  C4_6 
REMARK    3  A    between atoms: C7_9  and  N2_10 
REMARK    4  A    between atoms: N2_10  and  C8_11 
REMARK    5  A    between atoms: C11_15  and  C12_16 
REMARK    6  A    between atoms: C22_29  and  O3_30 
ROOT
HETATM    1  C4  UNL     1      20.904   0.913  51.976  1.00  0.00     0.069 A 
HETATM    2  C5  UNL     1      21.701   2.041  52.030  1.00  0.00     0.050 A 
HETATM    3  C6  UNL     1      21.228   3.187  51.427  1.00  0.00     0.041 A 
HETATM    4  C7  UNL     1      22.050   4.293  51.501  1.00  0.00     0.142 A 
HETATM    5  N3  UNL     1      21.606   5.418  50.919  1.00  0.00    -0.224 NA
HETATM    6  C19 UNL     1      20.421   5.491  50.289  1.00  0.00     0.236 A 
HETATM    7  N4  UNL     1      19.598   4.429  50.199  1.00  0.00    -0.241 NA
HETATM    8  C20 UNL     1      20.007   3.264  50.776  1.00  0.00     0.075 A 
HETATM    9  C21 UNL     1      19.246   2.120  50.745  1.00  0.00     0.071 A 
HETATM   10  C22 UNL     1      19.666   0.954  51.328  1.00  0.00     0.097 A 
ENDROOT
BRANCH   4  11
HETATM   11  N2  UNL     1      23.324   4.371  52.130  1.00  0.00    -0.340 N 
HETATM   12  H8  UNL     1      23.593   4.804  53.024  1.00  0.00     0.167 HD
BRANCH  11  13
HETATM   13  C8  UNL     1      24.513   3.818  51.578  1.00  0.00     0.034 A 
HETATM   14  C9  UNL     1      25.012   4.318  50.458  1.00  0.00     0.029 A 
HETATM   15  C10 UNL     1      26.245   3.820  49.795  1.00  0.00     0.205 A 
HETATM   16  O2  UNL     1      26.805   2.758  50.508  1.00  0.00    -0.346 OA
HETATM   17  C11 UNL     1      26.337   2.198  51.668  1.00  0.00     0.081 A 
HETATM   18  C18 UNL     1      25.244   2.705  52.175  1.00  0.00     0.066 A 
BRANCH  17  19
HETATM   19  C12 UNL     1      27.066   1.087  52.263  1.00  0.00     0.000 A 
HETATM   20  C13 UNL     1      28.162   1.224  53.085  1.00  0.00     0.014 A 
HETATM   21  C14 UNL     1      28.818   0.137  53.624  1.00  0.00     0.004 A 
HETATM   22  C15 UNL     1      28.401  -1.152  53.360  1.00  0.00     0.042 A 
HETATM   23  C16 UNL     1      27.309  -1.323  52.544  1.00  0.00     0.117 A 
HETATM   24  F1  UNL     1      26.857  -2.587  52.255  1.00  0.00    -0.206 F 
HETATM   25  C17 UNL     1      26.686  -0.216  52.029  1.00  0.00     0.056 A 
ENDBRANCH  17  19
ENDBRANCH  11  13
ENDBRANCH   4  11
BRANCH   1  26
HETATM   26  N1  UNL     1      21.399  -0.283  52.605  1.00  0.00    -0.325 N 
HETATM   27  C3  UNL     1      21.098  -0.377  54.002  1.00  0.00     0.221 C 
HETATM   28  O1  UNL     1      20.449   0.622  54.414  1.00  0.00    -0.273 OA
HETATM   29  H6  UNL     1      21.929  -0.970  51.992  1.00  0.00     0.169 HD
BRANCH  27  30
HETATM   30  C2  UNL     1      21.613  -1.626  54.666  1.00  0.00     0.098 C 
HETATM   31  C1  UNL     1      22.945  -1.345  55.284  1.00  0.00     0.014 C 
ENDBRANCH  27  30
ENDBRANCH   1  26
BRANCH  10  32
HETATM   32  O3  UNL     1      18.911  -0.191  51.300  1.00  0.00    -0.354 OA
HETATM   33  C23 UNL     1      17.762  -0.358  52.096  1.00  0.00     0.210 C 
ENDBRANCH  10  32
TORSDOF 6
ENDMDL
MODEL 7
REMARK VINA RESULT:      -8.9      4.266      7.346
REMARK  6 active torsions:
REMARK  status: ('A' for Active; 'I' for Inactive)
REMARK    1  A    between atoms: C2_2  and  C3_3 
REMARK       I    between atoms: C3_3  and  N1_5 
REMARK    2  A    between atoms: N1_5  and  C4_6 
REMARK    3  A    between atoms: C7_9  and  N2_10 
REMARK    4  A    between atoms: N2_10  and  C8_11 
REMARK    5  A    between atoms: C11_15  and  C12_16 
REMARK    6  A    between atoms: C22_29  and  O3_30 
ROOT
HETATM    1  C4  UNL     1      30.662   6.305  47.592  1.00  0.00     0.069 A 
HETATM    2  C5  UNL     1      29.363   5.953  47.909  1.00  0.00     0.050 A 
HETATM    3  C6  UNL     1      28.561   6.918  48.482  1.00  0.00     0.041 A 
HETATM    4  C7  UNL     1      27.271   6.531  48.784  1.00  0.00     0.142 A 
HETATM    5  N3  UNL     1      26.476   7.456  49.343  1.00  0.00    -0.224 NA
HETATM    6  C19 UNL     1      26.892   8.708  49.605  1.00  0.00     0.236 A 
HETATM    7  N4  UNL     1      28.144   9.115  49.322  1.00  0.00    -0.241 NA
HETATM    8  C20 UNL     1      28.987   8.208  48.753  1.00  0.00     0.075 A 
HETATM    9  C21 UNL     1      30.285   8.516  48.423  1.00  0.00     0.071 A 
HETATM   10  C22 UNL     1      31.126   7.598  47.852  1.00  0.00     0.097 A 
ENDROOT
BRANCH   4  11
HETATM   11  N2  UNL     1      26.690   5.251  48.567  1.00  0.00    -0.340 N 
HETATM   12  H8  UNL     1      26.619   4.696  47.703  1.00  0.00     0.167 HD
BRANCH  11  13
HETATM   13  C8  UNL     1      26.069   4.481  49.591  1.00  0.00     0.034 A 
HETATM   14  C9  UNL     1      24.806   4.712  49.911  1.00  0.00     0.029 A 
HETATM   15  C10 UNL     1      24.059   3.970  50.960  1.00  0.00     0.205 A 
HETATM   16  O2  UNL     1      24.865   3.002  51.561  1.00  0.00    -0.346 OA
HETATM   17  C11 UNL     1      26.175   2.717  51.274  1.00  0.00     0.081 A 
HETATM   18  C18 UNL     1      26.746   3.424  50.335  1.00  0.00     0.066 A 
BRANCH  17  19
HETATM   19  C12 UNL     1      26.850   1.662  52.017  1.00  0.00     0.000 A 
HETATM   20  C13 UNL     1      27.873   1.871  52.914  1.00  0.00     0.014 A 
HETATM   21  C14 UNL     1      28.480   0.834  53.593  1.00  0.00     0.004 A 
HETATM   22  C15 UNL     1      28.085  -0.474  53.399  1.00  0.00     0.042 A 
HETATM   23  C16 UNL     1      27.067  -0.716  52.509  1.00  0.00     0.117 A 
HETATM   24  F1  UNL     1      26.641  -2.002  52.285  1.00  0.00    -0.206 F 
HETATM   25  C17 UNL     1      26.490   0.342  51.856  1.00  0.00     0.056 A 
ENDBRANCH  17  19
ENDBRANCH  11  13
ENDBRANCH   4  11
BRANCH   1  26
HETATM   26  N1  UNL     1      31.497   5.297  46.995  1.00  0.00    -0.325 N 
HETATM   27  C3  UNL     1      32.177   4.464  47.941  1.00  0.00     0.221 C 
HETATM   28  O1  UNL     1      31.909   4.782  49.130  1.00  0.00    -0.273 OA
HETATM   29  H6  UNL     1      31.532   5.263  45.933  1.00  0.00     0.169 HD
BRANCH  27  30
HETATM   30  C2  UNL     1      33.053   3.408  47.321  1.00  0.00     0.098 C 
HETATM   31  C1  UNL     1      32.193   2.384  46.651  1.00  0.00     0.014 C 
ENDBRANCH  27  30
ENDBRANCH   1  26
BRANCH  10  32
HETATM   32  O3  UNL     1      32.422   7.899  47.520  1.00  0.00    -0.354 OA
HETATM   33  C23 UNL     1      33.452   7.960  48.478  1.00  0.00     0.210 C 
ENDBRANCH  10  32
TORSDOF 6
ENDMDL
MODEL 8
REMARK VINA RESULT:      -8.5      2.811      7.607
REMARK  6 active torsions:
REMARK  status: ('A' for Active; 'I' for Inactive)
REMARK    1  A    between atoms: C2_2  and  C3_3 
REMARK       I    between atoms: C3_3  and  N1_5 
REMARK    2  A    between atoms: N1_5  and  C4_6 
REMARK    3  A    between atoms: C7_9  and  N2_10 
REMARK    4  A    between atoms: N2_10  and  C8_11 
REMARK    5  A    between atoms: C11_15  and  C12_16 
REMARK    6  A    between atoms: C22_29  and  O3_30 
ROOT
HETATM    1  C4  UNL     1      22.339   0.439  51.848  1.00  0.00     0.069 A 
HETATM    2  C5  UNL     1      23.186   1.347  51.241  1.00  0.00     0.050 A 
HETATM    3  C6  UNL     1      24.460   1.473  51.753  1.00  0.00     0.041 A 
HETATM    4  C7  UNL     1      25.277   2.389  51.122  1.00  0.00     0.142 A 
HETATM    5  N3  UNL     1      26.521   2.526  51.607  1.00  0.00    -0.224 NA
HETATM    6  C19 UNL     1      26.974   1.817  52.656  1.00  0.00     0.236 A 
HETATM    7  N4  UNL     1      26.200   0.917  53.292  1.00  0.00    -0.241 NA
HETATM    8  C20 UNL     1      24.929   0.745  52.834  1.00  0.00     0.075 A 
HETATM    9  C21 UNL     1      24.054  -0.147  53.408  1.00  0.00     0.071 A 
HETATM   10  C22 UNL     1      22.778  -0.314  52.941  1.00  0.00     0.097 A 
ENDROOT
BRANCH   4  11
HETATM   11  N2  UNL     1      24.943   3.207  50.007  1.00  0.00    -0.340 N 
HETATM   12  H8  UNL     1      24.345   3.004  49.195  1.00  0.00     0.167 HD
BRANCH  11  13
HETATM   13  C8  UNL     1      25.422   4.535  49.830  1.00  0.00     0.034 A 
HETATM   14  C9  UNL     1      24.765   5.548  50.373  1.00  0.00     0.029 A 
HETATM   15  C10 UNL     1      25.174   6.972  50.253  1.00  0.00     0.205 A 
HETATM   16  O2  UNL     1      26.338   7.098  49.493  1.00  0.00    -0.346 OA
HETATM   17  C11 UNL     1      27.060   6.092  48.906  1.00  0.00     0.081 A 
HETATM   18  C18 UNL     1      26.621   4.871  49.069  1.00  0.00     0.066 A 
BRANCH  17  19
HETATM   19  C12 UNL     1      28.256   6.427  48.147  1.00  0.00     0.000 A 
HETATM   20  C13 UNL     1      28.343   7.462  47.244  1.00  0.00     0.014 A 
HETATM   21  C14 UNL     1      29.502   7.737  46.549  1.00  0.00     0.004 A 
HETATM   22  C15 UNL     1      30.640   6.977  46.728  1.00  0.00     0.042 A 
HETATM   23  C16 UNL     1      30.586   5.936  47.622  1.00  0.00     0.117 A 
HETATM   24  F1  UNL     1      31.695   5.153  47.834  1.00  0.00    -0.206 F 
HETATM   25  C17 UNL     1      29.415   5.697  48.293  1.00  0.00     0.056 A 
ENDBRANCH  17  19
ENDBRANCH  11  13
ENDBRANCH   4  11
BRANCH   1  26
HETATM   26  N1  UNL     1      21.010   0.307  51.313  1.00  0.00    -0.325 N 
HETATM   27  C3  UNL     1      20.030   1.115  51.975  1.00  0.00     0.221 C 
HETATM   28  O1  UNL     1      20.529   1.791  52.912  1.00  0.00    -0.273 OA
HETATM   29  H6  UNL     1      20.880  -0.358  50.494  1.00  0.00     0.169 HD
BRANCH  27  30
HETATM   30  C2  UNL     1      18.637   0.981  51.418  1.00  0.00     0.098 C 
HETATM   31  C1  UNL     1      18.027  -0.293  51.909  1.00  0.00     0.014 C 
ENDBRANCH  27  30
ENDBRANCH   1  26
BRANCH  10  32
HETATM   32  O3  UNL     1      21.901  -1.202  53.510  1.00  0.00    -0.354 OA
HETATM   33  C23 UNL     1      21.656  -1.240  54.895  1.00  0.00     0.210 C 
ENDBRANCH  10  32
TORSDOF 6
ENDMDL
MODEL 9
REMARK VINA RESULT:      -8.5      3.000      7.192
REMARK  6 active torsions:
REMARK  status: ('A' for Active; 'I' for Inactive)
REMARK    1  A    between atoms: C2_2  and  C3_3 
REMARK       I    between atoms: C3_3  and  N1_5 
REMARK    2  A    between atoms: N1_5  and  C4_6 
REMARK    3  A    between atoms: C7_9  and  N2_10 
REMARK    4  A    between atoms: N2_10  and  C8_11 
REMARK    5  A    between atoms: C11_15  and  C12_16 
REMARK    6  A    between atoms: C22_29  and  O3_30 
ROOT
HETATM    1  C4  UNL     1      24.819   0.424  52.821  1.00  0.00     0.069 A 
HETATM    2  C5  UNL     1      24.860   1.318  51.767  1.00  0.00     0.050 A 
HETATM    3  C6  UNL     1      23.667   1.867  51.347  1.00  0.00     0.041 A 
HETATM    4  C7  UNL     1      23.747   2.754  50.293  1.00  0.00     0.142 A 
HETATM    5  N3  UNL     1      22.595   3.297  49.870  1.00  0.00    -0.224 NA
HETATM    6  C19 UNL     1      21.407   3.009  50.430  1.00  0.00     0.236 A 
HETATM    7  N4  UNL     1      21.297   2.147  51.459  1.00  0.00    -0.241 NA
HETATM    8  C20 UNL     1      22.441   1.570  51.922  1.00  0.00     0.075 A 
HETATM    9  C21 UNL     1      22.444   0.677  52.966  1.00  0.00     0.071 A 
HETATM   10  C22 UNL     1      23.600   0.102  53.426  1.00  0.00     0.097 A 
ENDROOT
BRANCH   4  11
HETATM   11  N2  UNL     1      24.924   3.156  49.602  1.00  0.00    -0.340 N 
HETATM   12  H8  UNL     1      25.570   2.604  49.022  1.00  0.00     0.167 HD
BRANCH  11  13
HETATM   13  C8  UNL     1      25.427   4.487  49.608  1.00  0.00     0.034 A 
HETATM   14  C9  UNL     1      24.812   5.419  50.320  1.00  0.00     0.029 A 
HETATM   15  C10 UNL     1      25.249   6.837  50.398  1.00  0.00     0.205 A 
HETATM   16  O2  UNL     1      26.390   7.055  49.624  1.00  0.00    -0.346 OA
HETATM   17  C11 UNL     1      27.069   6.135  48.867  1.00  0.00     0.081 A 
HETATM   18  C18 UNL     1      26.607   4.912  48.862  1.00  0.00     0.066 A 
BRANCH  17  19
HETATM   19  C12 UNL     1      28.246   6.558  48.123  1.00  0.00     0.000 A 
HETATM   20  C13 UNL     1      29.492   5.986  48.241  1.00  0.00     0.014 A 
HETATM   21  C14 UNL     1      30.577   6.426  47.511  1.00  0.00     0.004 A 
HETATM   22  C15 UNL     1      30.460   7.474  46.621  1.00  0.00     0.042 A 
HETATM   23  C16 UNL     1      29.229   8.067  46.479  1.00  0.00     0.117 A 
HETATM   24  F1  UNL     1      29.066   9.113  45.604  1.00  0.00    -0.206 F 
HETATM   25  C17 UNL     1      28.178   7.599  47.223  1.00  0.00     0.056 A 
ENDBRANCH  17  19
ENDBRANCH  11  13
ENDBRANCH   4  11
BRANCH   1  26
HETATM   26  N1  UNL     1      26.064  -0.148  53.259  1.00  0.00    -0.325 N 
HETATM   27  C3  UNL     1      26.838   0.711  54.104  1.00  0.00     0.221 C 
HETATM   28  O1  UNL     1      26.269   1.817  54.302  1.00  0.00    -0.273 OA
HETATM   29  H6  UNL     1      26.291  -1.130  52.924  1.00  0.00     0.169 HD
BRANCH  27  30
HETATM   30  C2  UNL     1      28.142   0.117  54.565  1.00  0.00     0.098 C 
HETATM   31  C1  UNL     1      29.201   1.174  54.549  1.00  0.00     0.014 C 
ENDBRANCH  27  30
ENDBRANCH   1  26
BRANCH  10  32
HETATM   32  O3  UNL     1      23.609  -0.789  54.467  1.00  0.00    -0.354 OA
HETATM   33  C23 UNL     1      22.429  -1.233  55.094  1.00  0.00     0.210 C 
ENDBRANCH  10  32
TORSDOF 6
ENDMDL
