MODEL 1
REMARK VINA RESULT:      -9.2      0.000      0.000
REMARK  0 active torsions:
REMARK  status: ('A' for Active; 'I' for Inactive)
ROOT
HETATM    1  O1  UNL     1      22.142   5.223  50.782  1.00  0.00     0.000 OA
HETATM    2  C1  UNL     1      23.163   5.276  51.424  1.00  0.00     0.421 A 
HETATM    3  N1  UNL     1      22.178   5.883  50.535  1.00  0.00     0.147 N 
HETATM    4  C2  UNL     1      20.956   5.317  49.972  1.00  0.00     0.313 A 
HETATM    5  C3  UNL     1      20.177   4.521  51.050  1.00  0.00    -0.001 C 
HETATM    6  C4  UNL     1      20.065   3.525  51.974  1.00  0.00     0.041 C 
HETATM    7  C5  UNL     1      20.893   2.445  52.526  1.00  0.00    -0.004 C 
HETATM    8  C6  UNL     1      21.999   1.771  52.673  1.00  0.00    -0.007 C 
HETATM    9  C7  UNL     1      22.180   0.637  53.416  1.00  0.00     0.025 C 
HETATM   10  C8  UNL     1      21.423  -0.161  52.671  1.00  0.00    -0.029 C 
HETATM   11  C9  UNL     1      21.562  -0.006  51.370  1.00  0.00    -0.014 C 
HETATM   12  C10 UNL     1      21.915   0.936  50.378  1.00  0.00     0.028 C 
HETATM   13  C11 UNL     1      20.717   1.488  49.579  1.00  0.00     0.011 C 
HETATM   14  C12 UNL     1      20.929   2.704  48.786  1.00  0.00     0.081 C 
HETATM   15  C13 UNL     1      21.475   3.964  49.313  1.00  0.00     0.163 C 
HETATM   16  O2  UNL     1      22.676   3.641  49.084  1.00  0.00    -0.295 OA
HETATM   17  C14 UNL     1      23.451   1.906  52.615  1.00  0.00     0.104 C 
HETATM   18  C15 UNL     1      24.682   1.225  52.682  1.00  0.00    -0.004 A 
HETATM   19  C16 UNL     1      25.752   2.121  52.579  1.00  0.00     0.014 A 
HETATM   20  C17 UNL     1      27.061   1.665  52.596  1.00  0.00     0.001 A 
HETATM   21  C18 UNL     1      27.205   0.286  52.718  1.00  0.00     0.000 A 
HETATM   22  C19 UNL     1      26.193  -0.684  52.826  1.00  0.00     0.001 A 
HETATM   23  C20 UNL     1      24.970  -0.077  52.794  1.00  0.00     0.014 A 
HETATM   24  N2  UNL     1      23.353   3.095  52.443  1.00  0.00    -0.130 NA
HETATM   25  O3  UNL     1      23.828   4.319  52.251  1.00  0.00    -0.202 OA
HETATM   26  H1  UNL     1      22.518   6.934  50.332  1.00  0.00     0.321 HD
ENDROOT
TORSDOF 0
ENDMDL
MODEL 2
REMARK VINA RESULT:      -9.1      1.798      4.010
REMARK  0 active torsions:
REMARK  status: ('A' for Active; 'I' for Inactive)
ROOT
HETATM    1  O1  UNL     1      20.986   3.512  49.147  1.00  0.00     0.000 OA
HETATM    2  C1  UNL     1      20.566   2.387  49.275  1.00  0.00     0.421 A 
HETATM    3  N1  UNL     1      20.480   3.727  48.705  1.00  0.00     0.147 N 
HETATM    4  C2  UNL     1      21.357   4.879  48.893  1.00  0.00     0.313 A 
HETATM    5  C3  UNL     1      22.845   4.446  48.832  1.00  0.00    -0.001 C 
HETATM    6  C4  UNL     1      23.912   3.718  49.268  1.00  0.00     0.041 C 
HETATM    7  C5  UNL     1      24.204   2.710  50.295  1.00  0.00    -0.004 C 
HETATM    8  C6  UNL     1      23.889   1.880  51.250  1.00  0.00    -0.007 C 
HETATM    9  C7  UNL     1      24.745   1.110  51.988  1.00  0.00     0.025 C 
HETATM   10  C8  UNL     1      25.346   2.108  52.625  1.00  0.00    -0.029 C 
HETATM   11  C9  UNL     1      24.543   3.065  53.044  1.00  0.00    -0.014 C 
HETATM   12  C10 UNL     1      23.307   3.697  52.776  1.00  0.00     0.028 C 
HETATM   13  C11 UNL     1      23.440   5.092  52.131  1.00  0.00     0.011 C 
HETATM   14  C12 UNL     1      22.246   5.670  51.504  1.00  0.00     0.081 C 
HETATM   15  C13 UNL     1      21.432   5.000  50.479  1.00  0.00     0.163 C 
HETATM   16  O2  UNL     1      20.678   4.434  51.321  1.00  0.00    -0.295 OA
HETATM   17  C14 UNL     1      22.794   1.055  51.749  1.00  0.00     0.104 C 
HETATM   18  C15 UNL     1      22.359   0.213  52.790  1.00  0.00    -0.004 A 
HETATM   19  C16 UNL     1      21.085  -0.298  52.518  1.00  0.00     0.014 A 
HETATM   20  C17 UNL     1      20.449  -1.134  53.423  1.00  0.00     0.001 A 
HETATM   21  C18 UNL     1      21.167  -1.405  54.583  1.00  0.00     0.000 A 
HETATM   22  C19 UNL     1      22.446  -0.939  54.939  1.00  0.00     0.001 A 
HETATM   23  C20 UNL     1      22.932  -0.134  53.949  1.00  0.00     0.014 A 
HETATM   24  N2  UNL     1      22.125   1.326  50.784  1.00  0.00    -0.130 NA
HETATM   25  O3  UNL     1      21.034   1.268  50.031  1.00  0.00    -0.202 OA
HETATM   26  H1  UNL     1      19.571   3.749  48.045  1.00  0.00     0.321 HD
ENDROOT
TORSDOF 0
ENDMDL
MODEL 3
REMARK VINA RESULT:      -8.5      2.025      3.872
REMARK  0 active torsions:
REMARK  status: ('A' for Active; 'I' for Inactive)
ROOT
HETATM    1  O1  UNL     1      20.717   2.716  50.780  1.00  0.00     0.000 OA
HETATM    2  C1  UNL     1      21.221   1.696  51.184  1.00  0.00     0.421 A 
HETATM    3  N1  UNL     1      20.052   2.528  50.921  1.00  0.00     0.147 N 
HETATM    4  C2  UNL     1      19.971   3.865  50.340  1.00  0.00     0.313 A 
HETATM    5  C3  UNL     1      20.908   3.983  49.112  1.00  0.00    -0.001 C 
HETATM    6  C4  UNL     1      22.133   3.933  48.515  1.00  0.00     0.041 C 
HETATM    7  C5  UNL     1      23.524   3.648  48.890  1.00  0.00    -0.004 C 
HETATM    8  C6  UNL     1      24.466   3.274  49.710  1.00  0.00    -0.007 C 
HETATM    9  C7  UNL     1      25.811   3.250  49.463  1.00  0.00     0.025 C 
HETATM   10  C8  UNL     1      25.978   4.565  49.373  1.00  0.00    -0.029 C 
HETATM   11  C9  UNL     1      25.326   5.272  50.273  1.00  0.00    -0.014 C 
HETATM   12  C10 UNL     1      24.183   5.260  51.105  1.00  0.00     0.028 C 
HETATM   13  C11 UNL     1      23.043   6.179  50.621  1.00  0.00     0.011 C 
HETATM   14  C12 UNL     1      21.711   5.977  51.204  1.00  0.00     0.081 C 
HETATM   15  C13 UNL     1      20.997   4.691  51.234  1.00  0.00     0.163 C 
HETATM   16  O2  UNL     1      21.500   4.337  52.338  1.00  0.00    -0.295 OA
HETATM   17  C14 UNL     1      24.716   2.438  50.879  1.00  0.00     0.104 C 
HETATM   18  C15 UNL     1      25.664   2.051  51.846  1.00  0.00    -0.004 A 
HETATM   19  C16 UNL     1      25.134   1.074  52.697  1.00  0.00     0.014 A 
HETATM   20  C17 UNL     1      25.888   0.563  53.743  1.00  0.00     0.001 A 
HETATM   21  C18 UNL     1      27.168   1.094  53.863  1.00  0.00     0.000 A 
HETATM   22  C19 UNL     1      27.779   2.072  53.059  1.00  0.00     0.001 A 
HETATM   23  C20 UNL     1      26.912   2.469  52.081  1.00  0.00     0.014 A 
HETATM   24  N2  UNL     1      23.590   2.010  50.837  1.00  0.00    -0.130 NA
HETATM   25  O3  UNL     1      22.580   1.259  51.256  1.00  0.00    -0.202 OA
HETATM   26  H1  UNL     1      19.149   1.946  51.251  1.00  0.00     0.321 HD
ENDROOT
TORSDOF 0
ENDMDL
MODEL 4
REMARK VINA RESULT:      -8.2      2.186      3.397
REMARK  0 active torsions:
REMARK  status: ('A' for Active; 'I' for Inactive)
ROOT
HETATM    1  O1  UNL     1      19.800   5.047  50.150  1.00  0.00     0.000 OA
HETATM    2  C1  UNL     1      20.595   5.946  50.022  1.00  0.00     0.421 A 
HETATM    3  N1  UNL     1      19.241   5.414  49.924  1.00  0.00     0.147 N 
HETATM    4  C2  UNL     1      18.736   4.083  50.245  1.00  0.00     0.313 A 
HETATM    5  C3  UNL     1      19.333   3.582  51.585  1.00  0.00    -0.001 C 
HETATM    6  C4  UNL     1      20.378   3.246  52.394  1.00  0.00     0.041 C 
HETATM    7  C5  UNL     1      21.844   3.209  52.331  1.00  0.00    -0.004 C 
HETATM    8  C6  UNL     1      23.002   3.426  51.771  1.00  0.00    -0.007 C 
HETATM    9  C7  UNL     1      24.231   3.076  52.259  1.00  0.00     0.025 C 
HETATM   10  C8  UNL     1      24.073   1.761  52.153  1.00  0.00    -0.029 C 
HETATM   11  C9  UNL     1      23.490   1.358  51.043  1.00  0.00    -0.014 C 
HETATM   12  C10 UNL     1      22.588   1.761  50.032  1.00  0.00     0.028 C 
HETATM   13  C11 UNL     1      21.193   1.112  50.138  1.00  0.00     0.011 C 
HETATM   14  C12 UNL     1      20.101   1.716  49.366  1.00  0.00     0.081 C 
HETATM   15  C13 UNL     1      19.718   3.135  49.425  1.00  0.00     0.163 C 
HETATM   16  O2  UNL     1      20.516   3.479  48.507  1.00  0.00    -0.295 OA
HETATM   17  C14 UNL     1      23.681   4.306  50.826  1.00  0.00     0.104 C 
HETATM   18  C15 UNL     1      24.879   4.551  50.127  1.00  0.00    -0.004 A 
HETATM   19  C16 UNL     1      24.781   5.726  49.372  1.00  0.00     0.014 A 
HETATM   20  C17 UNL     1      25.839   6.149  48.582  1.00  0.00     0.001 A 
HETATM   21  C18 UNL     1      26.962   5.328  48.608  1.00  0.00     0.000 A 
HETATM   22  C19 UNL     1      27.147   4.136  49.333  1.00  0.00     0.001 A 
HETATM   23  C20 UNL     1      26.022   3.860  50.055  1.00  0.00     0.014 A 
HETATM   24  N2  UNL     1      22.700   4.999  50.736  1.00  0.00    -0.130 NA
HETATM   25  O3  UNL     1      22.000   6.027  50.274  1.00  0.00    -0.202 OA
HETATM   26  H1  UNL     1      18.586   6.243  49.539  1.00  0.00     0.321 HD
ENDROOT
TORSDOF 0
ENDMDL
MODEL 5
REMARK VINA RESULT:      -8.1      1.227      1.493
REMARK  0 active torsions:
REMARK  status: ('A' for Active; 'I' for Inactive)
ROOT
HETATM    1  O1  UNL     1      22.631   5.989  49.931  1.00  0.00     0.000 OA
HETATM    2  C1  UNL     1      23.315   6.049  50.924  1.00  0.00     0.421 A 
HETATM    3  N1  UNL     1      22.833   6.612  49.668  1.00  0.00     0.147 N 
HETATM    4  C2  UNL     1      21.879   6.067  48.706  1.00  0.00     0.313 A 
HETATM    5  C3  UNL     1      20.656   5.458  49.438  1.00  0.00    -0.001 C 
HETATM    6  C4  UNL     1      20.081   4.587  50.316  1.00  0.00     0.041 C 
HETATM    7  C5  UNL     1      20.501   3.527  51.241  1.00  0.00    -0.004 C 
HETATM    8  C6  UNL     1      21.379   2.802  51.876  1.00  0.00    -0.007 C 
HETATM    9  C7  UNL     1      21.127   1.753  52.717  1.00  0.00     0.025 C 
HETATM   10  C8  UNL     1      20.643   0.926  51.797  1.00  0.00    -0.029 C 
HETATM   11  C9  UNL     1      21.300   0.917  50.656  1.00  0.00    -0.014 C 
HETATM   12  C10 UNL     1      22.117   1.710  49.818  1.00  0.00     0.028 C 
HETATM   13  C11 UNL     1      21.399   2.244  48.562  1.00  0.00     0.011 C 
HETATM   14  C12 UNL     1      22.038   3.341  47.826  1.00  0.00     0.081 C 
HETATM   15  C13 UNL     1      22.465   4.614  48.426  1.00  0.00     0.163 C 
HETATM   16  O2  UNL     1      23.616   4.187  48.727  1.00  0.00    -0.295 OA
HETATM   17  C14 UNL     1      22.740   2.831  52.398  1.00  0.00     0.104 C 
HETATM   18  C15 UNL     1      23.763   2.081  53.011  1.00  0.00    -0.004 A 
HETATM   19  C16 UNL     1      24.877   2.884  53.277  1.00  0.00     0.014 A 
HETATM   20  C17 UNL     1      26.016   2.346  53.858  1.00  0.00     0.001 A 
HETATM   21  C18 UNL     1      25.948   0.985  54.139  1.00  0.00     0.000 A 
HETATM   22  C19 UNL     1      24.876   0.105  53.907  1.00  0.00     0.001 A 
HETATM   23  C20 UNL     1      23.840   0.785  53.335  1.00  0.00     0.014 A 
HETATM   24  N2  UNL     1      22.848   3.995  52.106  1.00  0.00    -0.130 NA
HETATM   25  O3  UNL     1      23.491   5.153  52.023  1.00  0.00    -0.202 OA
HETATM   26  H1  UNL     1      23.339   7.607  49.535  1.00  0.00     0.321 HD
ENDROOT
TORSDOF 0
ENDMDL
MODEL 6
REMARK VINA RESULT:      -7.8      2.092      4.088
REMARK  0 active torsions:
REMARK  status: ('A' for Active; 'I' for Inactive)
ROOT
HETATM    1  O1  UNL     1      19.836   3.796  48.655  1.00  0.00     0.000 OA
HETATM    2  C1  UNL     1      19.871   2.618  48.916  1.00  0.00     0.421 A 
HETATM    3  N1  UNL     1      19.165   3.801  48.437  1.00  0.00     0.147 N 
HETATM    4  C2  UNL     1      19.636   5.175  48.297  1.00  0.00     0.313 A 
HETATM    5  C3  UNL     1      21.058   5.204  47.680  1.00  0.00    -0.001 C 
HETATM    6  C4  UNL     1      22.382   4.881  47.677  1.00  0.00     0.041 C 
HETATM    7  C5  UNL     1      23.327   4.123  48.507  1.00  0.00    -0.004 C 
HETATM    8  C6  UNL     1      23.656   3.346  49.501  1.00  0.00    -0.007 C 
HETATM    9  C7  UNL     1      24.917   2.951  49.855  1.00  0.00     0.025 C 
HETATM   10  C8  UNL     1      25.355   4.147  50.235  1.00  0.00    -0.029 C 
HETATM   11  C9  UNL     1      24.495   4.858  50.935  1.00  0.00    -0.014 C 
HETATM   12  C10 UNL     1      23.113   5.058  51.156  1.00  0.00     0.028 C 
HETATM   13  C11 UNL     1      22.556   6.351  50.526  1.00  0.00     0.011 C 
HETATM   14  C12 UNL     1      21.099   6.473  50.398  1.00  0.00     0.081 C 
HETATM   15  C13 UNL     1      20.230   5.484  49.742  1.00  0.00     0.163 C 
HETATM   16  O2  UNL     1      20.050   4.812  50.798  1.00  0.00    -0.295 OA
HETATM   17  C14 UNL     1      23.136   2.289  50.362  1.00  0.00     0.104 C 
HETATM   18  C15 UNL     1      23.395   1.473  51.480  1.00  0.00    -0.004 A 
HETATM   19  C16 UNL     1      22.342   0.578  51.696  1.00  0.00     0.014 A 
HETATM   20  C17 UNL     1      22.373  -0.308  52.763  1.00  0.00     0.001 A 
HETATM   21  C18 UNL     1      23.505  -0.225  53.567  1.00  0.00     0.000 A 
HETATM   22  C19 UNL     1      24.606   0.639  53.426  1.00  0.00     0.001 A 
HETATM   23  C20 UNL     1      24.423   1.441  52.336  1.00  0.00     0.014 A 
HETATM   24  N2  UNL     1      22.117   2.241  49.721  1.00  0.00    -0.130 NA
HETATM   25  O3  UNL     1      20.908   1.778  49.429  1.00  0.00    -0.202 OA
HETATM   26  H1  UNL     1      18.124   3.478  48.164  1.00  0.00     0.321 HD
ENDROOT
TORSDOF 0
ENDMDL
MODEL 7
REMARK VINA RESULT:      -7.8      2.179      5.027
REMARK  0 active torsions:
REMARK  status: ('A' for Active; 'I' for Inactive)
ROOT
HETATM    1  O1  UNL     1      22.626   1.287  52.425  1.00  0.00     0.000 OA
HETATM    2  C1  UNL     1      23.734   1.715  52.211  1.00  0.00     0.421 A 
HETATM    3  N1  UNL     1      22.779   1.005  53.053  1.00  0.00     0.147 N 
HETATM    4  C2  UNL     1      21.366   0.719  52.825  1.00  0.00     0.313 A 
HETATM    5  C3  UNL     1      21.134   0.249  51.366  1.00  0.00    -0.001 C 
HETATM    6  C4  UNL     1      21.190   0.424  50.015  1.00  0.00     0.041 C 
HETATM    7  C5  UNL     1      21.642   1.444  49.060  1.00  0.00    -0.004 C 
HETATM    8  C6  UNL     1      22.215   2.565  48.722  1.00  0.00    -0.007 C 
HETATM    9  C7  UNL     1      22.309   3.096  47.465  1.00  0.00     0.025 C 
HETATM   10  C8  UNL     1      21.014   3.344  47.302  1.00  0.00    -0.029 C 
HETATM   11  C9  UNL     1      20.406   3.846  48.357  1.00  0.00    -0.014 C 
HETATM   12  C10 UNL     1      20.455   3.898  49.768  1.00  0.00     0.028 C 
HETATM   13  C11 UNL     1      19.382   3.038  50.467  1.00  0.00     0.011 C 
HETATM   14  C12 UNL     1      19.563   2.749  51.894  1.00  0.00     0.081 C 
HETATM   15  C13 UNL     1      20.775   2.157  52.481  1.00  0.00     0.163 C 
HETATM   16  O2  UNL     1      21.337   3.274  52.667  1.00  0.00    -0.295 OA
HETATM   17  C14 UNL     1      23.241   3.511  49.146  1.00  0.00     0.104 C 
HETATM   18  C15 UNL     1      23.850   4.754  48.886  1.00  0.00    -0.004 A 
HETATM   19  C16 UNL     1      24.901   4.990  49.779  1.00  0.00     0.014 A 
HETATM   20  C17 UNL     1      25.628   6.169  49.722  1.00  0.00     0.001 A 
HETATM   21  C18 UNL     1      25.229   7.062  48.733  1.00  0.00     0.000 A 
HETATM   22  C19 UNL     1      24.190   6.910  47.797  1.00  0.00     0.001 A 
HETATM   23  C20 UNL     1      23.576   5.705  47.985  1.00  0.00     0.014 A 
HETATM   24  N2  UNL     1      23.564   2.785  50.052  1.00  0.00    -0.130 NA
HETATM   25  O3  UNL     1      24.287   2.443  51.111  1.00  0.00    -0.202 OA
HETATM   26  H1  UNL     1      23.330   0.678  53.976  1.00  0.00     0.321 HD
ENDROOT
TORSDOF 0
ENDMDL
MODEL 8
REMARK VINA RESULT:      -7.6      2.769      5.635
REMARK  0 active torsions:
REMARK  status: ('A' for Active; 'I' for Inactive)
ROOT
HETATM    1  O1  UNL     1      24.499   2.025  51.603  1.00  0.00     0.000 OA
HETATM    2  C1  UNL     1      25.509   2.420  51.073  1.00  0.00     0.421 A 
HETATM    3  N1  UNL     1      24.822   1.605  52.069  1.00  0.00     0.147 N 
HETATM    4  C2  UNL     1      23.393   1.464  52.334  1.00  0.00     0.313 A 
HETATM    5  C3  UNL     1      22.603   1.335  51.007  1.00  0.00    -0.001 C 
HETATM    6  C4  UNL     1      22.205   1.794  49.786  1.00  0.00     0.041 C 
HETATM    7  C5  UNL     1      22.429   2.965  48.929  1.00  0.00    -0.004 C 
HETATM    8  C6  UNL     1      22.995   4.095  48.608  1.00  0.00    -0.007 C 
HETATM    9  C7  UNL     1      22.714   4.877  47.522  1.00  0.00     0.025 C 
HETATM   10  C8  UNL     1      21.491   5.235  47.898  1.00  0.00    -0.029 C 
HETATM   11  C9  UNL     1      21.366   5.535  49.174  1.00  0.00    -0.014 C 
HETATM   12  C10 UNL     1      21.913   5.278  50.452  1.00  0.00     0.028 C 
HETATM   13  C11 UNL     1      21.046   4.356  51.334  1.00  0.00     0.011 C 
HETATM   14  C12 UNL     1      21.675   3.755  52.516  1.00  0.00     0.081 C 
HETATM   15  C13 UNL     1      22.923   2.976  52.496  1.00  0.00     0.163 C 
HETATM   16  O2  UNL     1      23.661   3.990  52.656  1.00  0.00    -0.295 OA
HETATM   17  C14 UNL     1      24.223   4.861  48.782  1.00  0.00     0.104 C 
HETATM   18  C15 UNL     1      24.866   6.091  48.540  1.00  0.00    -0.004 A 
HETATM   19  C16 UNL     1      26.186   6.062  49.006  1.00  0.00     0.014 A 
HETATM   20  C17 UNL     1      27.001   7.178  48.894  1.00  0.00     0.001 A 
HETATM   21  C18 UNL     1      26.406   8.287  48.299  1.00  0.00     0.000 A 
HETATM   22  C19 UNL     1      25.095   8.405  47.805  1.00  0.00     0.001 A 
HETATM   23  C20 UNL     1      24.427   7.228  47.989  1.00  0.00     0.014 A 
HETATM   24  N2  UNL     1      24.741   3.938  49.358  1.00  0.00    -0.130 NA
HETATM   25  O3  UNL     1      25.735   3.331  49.995  1.00  0.00    -0.202 OA
HETATM   26  H1  UNL     1      25.611   1.054  52.647  1.00  0.00     0.321 HD
ENDROOT
TORSDOF 0
ENDMDL
MODEL 9
REMARK VINA RESULT:      -7.6      8.679     10.985
REMARK  0 active torsions:
REMARK  status: ('A' for Active; 'I' for Inactive)
ROOT
HETATM    1  O1  UNL     1      27.383  12.345  47.109  1.00  0.00     0.000 OA
HETATM    2  C1  UNL     1      26.536  11.502  46.936  1.00  0.00     0.421 A 
HETATM    3  N1  UNL     1      26.935  12.888  47.153  1.00  0.00     0.147 N 
HETATM    4  C2  UNL     1      28.267  13.460  47.323  1.00  0.00     0.313 A 
HETATM    5  C3  UNL     1      29.256  12.850  46.297  1.00  0.00    -0.001 C 
HETATM    6  C4  UNL     1      29.914  11.800  45.726  1.00  0.00     0.041 C 
HETATM    7  C5  UNL     1      29.986  10.341  45.875  1.00  0.00    -0.004 C 
HETATM    8  C6  UNL     1      29.626   9.192  46.373  1.00  0.00    -0.007 C 
HETATM    9  C7  UNL     1      30.184   7.971  46.115  1.00  0.00     0.025 C 
HETATM   10  C8  UNL     1      31.357   8.209  46.693  1.00  0.00    -0.029 C 
HETATM   11  C9  UNL     1      31.292   8.850  47.841  1.00  0.00    -0.014 C 
HETATM   12  C10 UNL     1      30.503   9.759  48.582  1.00  0.00     0.028 C 
HETATM   13  C11 UNL     1      31.084  11.186  48.652  1.00  0.00     0.011 C 
HETATM   14  C12 UNL     1      30.190  12.266  49.086  1.00  0.00     0.081 C 
HETATM   15  C13 UNL     1      28.881  12.562  48.485  1.00  0.00     0.163 C 
HETATM   16  O2  UNL     1      28.254  11.775  49.251  1.00  0.00    -0.295 OA
HETATM   17  C14 UNL     1      28.487   8.494  46.959  1.00  0.00     0.104 C 
HETATM   18  C15 UNL     1      28.049   7.307  47.579  1.00  0.00    -0.004 A 
HETATM   19  C16 UNL     1      26.675   7.360  47.839  1.00  0.00     0.014 A 
HETATM   20  C17 UNL     1      26.033   6.305  48.470  1.00  0.00     0.001 A 
HETATM   21  C18 UNL     1      26.851   5.232  48.808  1.00  0.00     0.000 A 
HETATM   22  C19 UNL     1      28.234   5.094  48.588  1.00  0.00     0.001 A 
HETATM   23  C20 UNL     1      28.712   6.210  47.962  1.00  0.00     0.014 A 
HETATM   24  N2  UNL     1      27.769   9.435  46.735  1.00  0.00    -0.130 NA
HETATM   25  O3  UNL     1      26.614  10.087  46.746  1.00  0.00    -0.202 OA
HETATM   26  H1  UNL     1      25.996  13.505  47.169  1.00  0.00     0.321 HD
ENDROOT
TORSDOF 0
ENDMDL
