MODEL 1
REMARK VINA RESULT:      -9.6      0.000      0.000
REMARK  8 active torsions:
REMARK  status: ('A' for Active; 'I' for Inactive)
REMARK    1  A    between atoms: C2_2  and  N1_3 
REMARK    2  A    between atoms: C2_2  and  C19_25 
REMARK    3  A    between atoms: N1_3  and  C3_4 
REMARK    4  A    between atoms: C3_4  and  C4_5 
REMARK    5  A    between atoms: C3_4  and  C17_23 
REMARK    6  A    between atoms: C4_5  and  C5_6 
REMARK    7  A    between atoms: C14_17  and  N4_18 
REMARK    8  A    between atoms: C23_29  and  C24_30 
ROOT
HETATM    1  C5  UNL     1      27.054   4.835  48.926  1.00  0.00    -0.018 C 
HETATM    2  C6  UNL     1      25.731   5.422  48.889  1.00  0.00     0.125 C 
HETATM    3  N2  UNL     1      24.462   5.384  49.086  1.00  0.00    -0.273 NA
HETATM    4  C7  UNL     1      23.878   4.239  49.611  1.00  0.00     0.116 C 
HETATM    5  C8  UNL     1      23.456   3.089  50.191  1.00  0.00     0.022 C 
HETATM    6  C9  UNL     1      24.676   2.682  50.832  1.00  0.00     0.040 C 
HETATM    7  C10 UNL     1      25.829   2.404  51.371  1.00  0.00     0.098 C 
HETATM    8  C11 UNL     1      26.158   1.265  52.188  1.00  0.00     0.110 A 
HETATM    9  C12 UNL     1      25.276   0.297  52.540  1.00  0.00     0.055 A 
HETATM   10  C13 UNL     1      25.839  -0.684  53.316  1.00  0.00     0.139 A 
HETATM   11  N3  UNL     1      27.138  -0.716  53.712  1.00  0.00    -0.075 NA
HETATM   12  C14 UNL     1      27.956   0.286  53.321  1.00  0.00     0.722 A 
HETATM   13  N5  UNL     1      27.463   1.290  52.550  1.00  0.00    -0.060 NA
HETATM   14  O1  UNL     1      26.080   3.578  50.722  1.00  0.00    -0.344 OA
HETATM   15  C16 UNL     1      26.713   3.539  49.448  1.00  0.00     0.215 C 
ENDROOT
BRANCH   1  16
HETATM   16  C4  UNL     1      27.796   5.742  48.495  1.00  0.00     0.009 C 
BRANCH  16  17
HETATM   17  C3  UNL     1      28.621   6.856  48.175  1.00  0.00     0.104 C 
BRANCH  17  18
HETATM   18  N1  UNL     1      30.022   6.484  47.913  1.00  0.00    -0.385 N 
HETATM   19  H3  UNL     1      30.315   5.889  47.080  1.00  0.00     0.160 HD
BRANCH  18  20
HETATM   20  C2  UNL     1      31.274   6.732  48.534  1.00  0.00     0.016 C 
HETATM   21  C1  UNL     1      31.143   7.826  49.268  1.00  0.00     0.063 C 
BRANCH  20  22
HETATM   22  C19 UNL     1      32.422   5.856  48.344  1.00  0.00    -0.013 A 
HETATM   23  C20 UNL     1      33.711   6.238  48.636  1.00  0.00     0.013 A 
HETATM   24  C21 UNL     1      34.708   5.313  48.422  1.00  0.00     0.002 A 
HETATM   25  C22 UNL     1      34.489   4.052  47.941  1.00  0.00     0.016 A 
HETATM   26  C23 UNL     1      33.183   3.720  47.663  1.00  0.00     0.048 A 
HETATM   27  C25 UNL     1      32.171   4.604  47.861  1.00  0.00     0.029 A 
BRANCH  26  28
HETATM   28  C24 UNL     1      32.942   2.365  47.138  1.00  0.00     0.417 C 
HETATM   29  F1  UNL     1      33.989   2.057  46.292  1.00  0.00    -0.166 F 
HETATM   30  F2  UNL     1      32.927   1.445  48.157  1.00  0.00    -0.166 F 
HETATM   31  F3  UNL     1      31.765   2.392  46.431  1.00  0.00    -0.166 F 
ENDBRANCH  26  28
ENDBRANCH  20  22
ENDBRANCH  18  20
ENDBRANCH  17  18
BRANCH  17  32
HETATM   32  C17 UNL     1      28.166   7.671  46.978  1.00  0.00     0.024 C 
HETATM   33  C18 UNL     1      29.233   7.942  45.969  1.00  0.00     0.007 C 
ENDBRANCH  17  32
ENDBRANCH  16  17
ENDBRANCH   1  16
BRANCH  12  34
HETATM   34  N4  UNL     1      29.318   0.256  53.728  1.00  0.00    -0.227 N 
HETATM   35  C15 UNL     1      30.028  -1.006  53.728  1.00  0.00     0.165 C 
HETATM   36  H12 UNL     1      29.803   1.154  54.031  1.00  0.00     0.177 HD
ENDBRANCH  12  34
TORSDOF 8
ENDMDL
MODEL 2
REMARK VINA RESULT:      -9.6      5.494      9.113
REMARK  8 active torsions:
REMARK  status: ('A' for Active; 'I' for Inactive)
REMARK    1  A    between atoms: C2_2  and  N1_3 
REMARK    2  A    between atoms: C2_2  and  C19_25 
REMARK    3  A    between atoms: N1_3  and  C3_4 
REMARK    4  A    between atoms: C3_4  and  C4_5 
REMARK    5  A    between atoms: C3_4  and  C17_23 
REMARK    6  A    between atoms: C4_5  and  C5_6 
REMARK    7  A    between atoms: C14_17  and  N4_18 
REMARK    8  A    between atoms: C23_29  and  C24_30 
ROOT
HETATM    1  C5  UNL     1      24.417   1.307  52.823  1.00  0.00    -0.018 C 
HETATM    2  C6  UNL     1      24.718   0.163  53.659  1.00  0.00     0.125 C 
HETATM    3  N2  UNL     1      24.373  -0.827  54.401  1.00  0.00    -0.273 NA
HETATM    4  C7  UNL     1      23.028  -1.082  54.633  1.00  0.00     0.116 C 
HETATM    5  C8  UNL     1      21.686  -1.254  54.715  1.00  0.00     0.022 C 
HETATM    6  C9  UNL     1      21.287  -0.610  53.494  1.00  0.00     0.040 C 
HETATM    7  C10 UNL     1      21.032  -0.006  52.368  1.00  0.00     0.098 C 
HETATM    8  C11 UNL     1      19.743   0.204  51.763  1.00  0.00     0.110 A 
HETATM    9  C12 UNL     1      18.571  -0.229  52.291  1.00  0.00     0.055 A 
HETATM   10  C13 UNL     1      17.482   0.106  51.527  1.00  0.00     0.139 A 
HETATM   11  N3  UNL     1      17.533   0.798  50.358  1.00  0.00    -0.075 NA
HETATM   12  C14 UNL     1      18.739   1.196  49.896  1.00  0.00     0.722 A 
HETATM   13  N5  UNL     1      19.859   0.897  50.605  1.00  0.00    -0.060 NA
HETATM   14  O1  UNL     1      22.392   0.077  52.448  1.00  0.00    -0.344 OA
HETATM   15  C16 UNL     1      22.982   1.285  52.915  1.00  0.00     0.215 C 
ENDROOT
BRANCH   1  16
HETATM   16  C4  UNL     1      25.540   1.713  52.458  1.00  0.00     0.009 C 
BRANCH  16  17
HETATM   17  C3  UNL     1      26.804   2.053  51.899  1.00  0.00     0.104 C 
BRANCH  17  18
HETATM   18  N1  UNL     1      26.782   3.312  51.137  1.00  0.00    -0.385 N 
HETATM   19  H3  UNL     1      27.386   4.152  51.392  1.00  0.00     0.160 HD
BRANCH  18  20
HETATM   20  C2  UNL     1      26.097   3.798  49.993  1.00  0.00     0.016 C 
HETATM   21  C1  UNL     1      27.010   4.250  49.146  1.00  0.00     0.063 C 
BRANCH  20  22
HETATM   22  C19 UNL     1      24.647   3.737  49.871  1.00  0.00    -0.013 A 
HETATM   23  C20 UNL     1      24.010   3.082  48.842  1.00  0.00     0.013 A 
HETATM   24  C21 UNL     1      22.633   3.088  48.846  1.00  0.00     0.002 A 
HETATM   25  C22 UNL     1      21.876   3.702  49.805  1.00  0.00     0.016 A 
HETATM   26  C23 UNL     1      22.560   4.343  50.810  1.00  0.00     0.048 A 
HETATM   27  C25 UNL     1      23.918   4.360  50.842  1.00  0.00     0.029 A 
BRANCH  26  28
HETATM   28  C24 UNL     1      21.748   5.012  51.842  1.00  0.00     0.417 C 
HETATM   29  F1  UNL     1      22.493   5.033  53.004  1.00  0.00    -0.166 F 
HETATM   30  F2  UNL     1      21.475   6.307  51.481  1.00  0.00    -0.166 F 
HETATM   31  F3  UNL     1      20.611   4.263  52.032  1.00  0.00    -0.166 F 
ENDBRANCH  26  28
ENDBRANCH  20  22
ENDBRANCH  18  20
ENDBRANCH  17  18
BRANCH  17  32
HETATM   32  C17 UNL     1      27.937   2.180  52.900  1.00  0.00     0.024 C 
HETATM   33  C18 UNL     1      28.392   0.886  53.490  1.00  0.00     0.007 C 
ENDBRANCH  17  32
ENDBRANCH  16  17
ENDBRANCH   1  16
BRANCH  12  34
HETATM   34  N4  UNL     1      18.798   1.924  48.677  1.00  0.00    -0.227 N 
HETATM   35  C15 UNL     1      17.905   3.047  48.480  1.00  0.00     0.165 C 
HETATM   36  H12 UNL     1      19.491   1.639  47.919  1.00  0.00     0.177 HD
ENDBRANCH  12  34
TORSDOF 8
ENDMDL
MODEL 3
REMARK VINA RESULT:      -9.4      4.405      6.485
REMARK  8 active torsions:
REMARK  status: ('A' for Active; 'I' for Inactive)
REMARK    1  A    between atoms: C2_2  and  N1_3 
REMARK    2  A    between atoms: C2_2  and  C19_25 
REMARK    3  A    between atoms: N1_3  and  C3_4 
REMARK    4  A    between atoms: C3_4  and  C4_5 
REMARK    5  A    between atoms: C3_4  and  C17_23 
REMARK    6  A    between atoms: C4_5  and  C5_6 
REMARK    7  A    between atoms: C14_17  and  N4_18 
REMARK    8  A    between atoms: C23_29  and  C24_30 
ROOT
HETATM    1  C5  UNL     1      26.111   4.134  49.379  1.00  0.00    -0.018 C 
HETATM    2  C6  UNL     1      24.730   4.446  49.073  1.00  0.00     0.125 C 
HETATM    3  N2  UNL     1      23.471   4.195  49.110  1.00  0.00    -0.273 NA
HETATM    4  C7  UNL     1      23.012   3.048  49.745  1.00  0.00     0.116 C 
HETATM    5  C8  UNL     1      22.704   1.937  50.456  1.00  0.00     0.022 C 
HETATM    6  C9  UNL     1      23.859   1.868  51.308  1.00  0.00     0.040 C 
HETATM    7  C10 UNL     1      24.944   1.897  52.029  1.00  0.00     0.098 C 
HETATM    8  C11 UNL     1      25.327   0.975  53.066  1.00  0.00     0.110 A 
HETATM    9  C12 UNL     1      24.577  -0.082  53.463  1.00  0.00     0.055 A 
HETATM   10  C13 UNL     1      25.168  -0.814  54.462  1.00  0.00     0.139 A 
HETATM   11  N3  UNL     1      26.376  -0.538  55.020  1.00  0.00    -0.075 NA
HETATM   12  C14 UNL     1      27.065   0.534  54.570  1.00  0.00     0.722 A 
HETATM   13  N5  UNL     1      26.536   1.302  53.581  1.00  0.00    -0.060 NA
HETATM   14  O1  UNL     1      25.093   2.990  51.226  1.00  0.00    -0.344 OA
HETATM   15  C16 UNL     1      25.915   2.887  50.068  1.00  0.00     0.215 C 
ENDROOT
BRANCH   1  16
HETATM   16  C4  UNL     1      26.747   5.094  48.896  1.00  0.00     0.009 C 
BRANCH  16  17
HETATM   17  C3  UNL     1      27.375   6.296  48.467  1.00  0.00     0.104 C 
BRANCH  17  18
HETATM   18  N1  UNL     1      27.394   7.343  49.501  1.00  0.00    -0.385 N 
HETATM   19  H3  UNL     1      28.134   7.387  50.266  1.00  0.00     0.160 HD
BRANCH  18  20
HETATM   20  C2  UNL     1      26.603   8.479  49.814  1.00  0.00     0.016 C 
HETATM   21  C1  UNL     1      27.384   9.348  50.437  1.00  0.00     0.063 C 
BRANCH  20  22
HETATM   22  C19 UNL     1      25.197   8.573  49.445  1.00  0.00    -0.013 A 
HETATM   23  C20 UNL     1      24.744   9.374  48.421  1.00  0.00     0.013 A 
HETATM   24  C21 UNL     1      23.391   9.365  48.164  1.00  0.00     0.002 A 
HETATM   25  C22 UNL     1      22.487   8.614  48.861  1.00  0.00     0.016 A 
HETATM   26  C23 UNL     1      22.990   7.832  49.874  1.00  0.00     0.048 A 
HETATM   27  C25 UNL     1      24.317   7.812  50.159  1.00  0.00     0.029 A 
BRANCH  26  28
HETATM   28  C24 UNL     1      22.018   7.026  50.633  1.00  0.00     0.417 C 
HETATM   29  F1  UNL     1      21.223   7.900  51.347  1.00  0.00    -0.166 F 
HETATM   30  F2  UNL     1      21.213   6.309  49.784  1.00  0.00    -0.166 F 
HETATM   31  F3  UNL     1      22.722   6.224  51.499  1.00  0.00    -0.166 F 
ENDBRANCH  26  28
ENDBRANCH  20  22
ENDBRANCH  18  20
ENDBRANCH  17  18
BRANCH  17  32
HETATM   32  C17 UNL     1      28.808   6.140  47.993  1.00  0.00     0.024 C 
HETATM   33  C18 UNL     1      29.532   7.427  47.770  1.00  0.00     0.007 C 
ENDBRANCH  17  32
ENDBRANCH  16  17
ENDBRANCH   1  16
BRANCH  12  34
HETATM   34  N4  UNL     1      28.331   0.824  55.146  1.00  0.00    -0.227 N 
HETATM   35  C15 UNL     1      29.302   1.576  54.379  1.00  0.00     0.165 C 
HETATM   36  H12 UNL     1      28.558   0.487  56.131  1.00  0.00     0.177 HD
ENDBRANCH  12  34
TORSDOF 8
ENDMDL
MODEL 4
REMARK VINA RESULT:      -9.4      4.240      9.874
REMARK  8 active torsions:
REMARK  status: ('A' for Active; 'I' for Inactive)
REMARK    1  A    between atoms: C2_2  and  N1_3 
REMARK    2  A    between atoms: C2_2  and  C19_25 
REMARK    3  A    between atoms: N1_3  and  C3_4 
REMARK    4  A    between atoms: C3_4  and  C4_5 
REMARK    5  A    between atoms: C3_4  and  C17_23 
REMARK    6  A    between atoms: C4_5  and  C5_6 
REMARK    7  A    between atoms: C14_17  and  N4_18 
REMARK    8  A    between atoms: C23_29  and  C24_30 
ROOT
HETATM    1  C5  UNL     1      26.385   2.020  51.618  1.00  0.00    -0.018 C 
HETATM    2  C6  UNL     1      25.005   1.942  51.184  1.00  0.00     0.125 C 
HETATM    3  N2  UNL     1      23.973   2.412  50.580  1.00  0.00    -0.273 NA
HETATM    4  C7  UNL     1      24.043   3.647  49.949  1.00  0.00     0.116 C 
HETATM    5  C8  UNL     1      24.275   4.824  49.320  1.00  0.00     0.022 C 
HETATM    6  C9  UNL     1      25.697   4.726  49.142  1.00  0.00     0.040 C 
HETATM    7  C10 UNL     1      26.982   4.537  49.030  1.00  0.00     0.098 C 
HETATM    8  C11 UNL     1      27.943   5.421  48.426  1.00  0.00     0.110 A 
HETATM    9  C12 UNL     1      27.633   6.610  47.851  1.00  0.00     0.055 A 
HETATM   10  C13 UNL     1      28.730   7.268  47.355  1.00  0.00     0.139 A 
HETATM   11  N3  UNL     1      30.008   6.809  47.414  1.00  0.00    -0.075 NA
HETATM   12  C14 UNL     1      30.237   5.614  48.004  1.00  0.00     0.722 A 
HETATM   13  N5  UNL     1      29.194   4.910  48.516  1.00  0.00    -0.060 NA
HETATM   14  O1  UNL     1      26.569   3.402  49.665  1.00  0.00    -0.344 OA
HETATM   15  C16 UNL     1      26.720   3.310  51.078  1.00  0.00     0.215 C 
ENDROOT
BRANCH   1  16
HETATM   16  C4  UNL     1      26.568   0.944  52.224  1.00  0.00     0.009 C 
BRANCH  16  17
HETATM   17  C3  UNL     1      26.655  -0.217  53.042  1.00  0.00     0.104 C 
BRANCH  17  18
HETATM   18  N1  UNL     1      25.354  -0.872  53.259  1.00  0.00    -0.385 N 
HETATM   19  H3  UNL     1      24.929  -1.557  52.563  1.00  0.00     0.160 HD
BRANCH  18  20
HETATM   20  C2  UNL     1      24.366  -0.861  54.278  1.00  0.00     0.016 C 
HETATM   21  C1  UNL     1      24.996  -0.855  55.443  1.00  0.00     0.063 C 
BRANCH  20  22
HETATM   22  C19 UNL     1      22.941  -0.836  53.977  1.00  0.00    -0.013 A 
HETATM   23  C20 UNL     1      21.998  -1.447  54.772  1.00  0.00     0.013 A 
HETATM   24  C21 UNL     1      20.681  -1.341  54.384  1.00  0.00     0.002 A 
HETATM   25  C22 UNL     1      20.266  -0.671  53.267  1.00  0.00     0.016 A 
HETATM   26  C23 UNL     1      21.247  -0.079  52.506  1.00  0.00     0.048 A 
HETATM   27  C25 UNL     1      22.557  -0.160  52.855  1.00  0.00     0.029 A 
BRANCH  26  28
HETATM   28  C24 UNL     1      20.806   0.638  51.297  1.00  0.00     0.417 C 
HETATM   29  F1  UNL     1      19.484   0.305  51.079  1.00  0.00    -0.166 F 
HETATM   30  F2  UNL     1      20.882   1.996  51.483  1.00  0.00    -0.166 F 
HETATM   31  F3  UNL     1      21.576   0.203  50.246  1.00  0.00    -0.166 F 
ENDBRANCH  26  28
ENDBRANCH  20  22
ENDBRANCH  18  20
ENDBRANCH  17  18
BRANCH  17  32
HETATM   32  C17 UNL     1      27.595  -1.294  52.534  1.00  0.00     0.024 C 
HETATM   33  C18 UNL     1      28.912  -1.349  53.235  1.00  0.00     0.007 C 
ENDBRANCH  17  32
ENDBRANCH  16  17
ENDBRANCH   1  16
BRANCH  12  34
HETATM   34  N4  UNL     1      31.572   5.131  48.073  1.00  0.00    -0.227 N 
HETATM   35  C15 UNL     1      32.088   4.323  46.988  1.00  0.00     0.165 C 
HETATM   36  H12 UNL     1      32.179   5.363  48.917  1.00  0.00     0.177 HD
ENDBRANCH  12  34
TORSDOF 8
ENDMDL
MODEL 5
REMARK VINA RESULT:      -9.3      4.233      5.639
REMARK  8 active torsions:
REMARK  status: ('A' for Active; 'I' for Inactive)
REMARK    1  A    between atoms: C2_2  and  N1_3 
REMARK    2  A    between atoms: C2_2  and  C19_25 
REMARK    3  A    between atoms: N1_3  and  C3_4 
REMARK    4  A    between atoms: C3_4  and  C4_5 
REMARK    5  A    between atoms: C3_4  and  C17_23 
REMARK    6  A    between atoms: C4_5  and  C5_6 
REMARK    7  A    between atoms: C14_17  and  N4_18 
REMARK    8  A    between atoms: C23_29  and  C24_30 
ROOT
HETATM    1  C5  UNL     1      26.758   4.545  49.060  1.00  0.00    -0.018 C 
HETATM    2  C6  UNL     1      25.420   5.097  48.985  1.00  0.00     0.125 C 
HETATM    3  N2  UNL     1      24.152   5.036  49.176  1.00  0.00    -0.273 NA
HETATM    4  C7  UNL     1      23.592   3.906  49.757  1.00  0.00     0.116 C 
HETATM    5  C8  UNL     1      23.195   2.777  50.393  1.00  0.00     0.022 C 
HETATM    6  C9  UNL     1      24.420   2.435  51.061  1.00  0.00     0.040 C 
HETATM    7  C10 UNL     1      25.577   2.214  51.621  1.00  0.00     0.098 C 
HETATM    8  C11 UNL     1      25.928   1.128  52.498  1.00  0.00     0.110 A 
HETATM    9  C12 UNL     1      25.068   0.157  52.894  1.00  0.00     0.055 A 
HETATM   10  C13 UNL     1      25.650  -0.768  53.724  1.00  0.00     0.139 A 
HETATM   11  N3  UNL     1      26.947  -0.746  54.128  1.00  0.00    -0.075 NA
HETATM   12  C14 UNL     1      27.742   0.255  53.690  1.00  0.00     0.722 A 
HETATM   13  N5  UNL     1      27.229   1.205  52.865  1.00  0.00    -0.060 NA
HETATM   14  O1  UNL     1      25.803   3.359  50.913  1.00  0.00    -0.344 OA
HETATM   15  C16 UNL     1      26.445   3.270  49.646  1.00  0.00     0.215 C 
ENDROOT
BRANCH   1  16
HETATM   16  C4  UNL     1      27.479   5.448  48.587  1.00  0.00     0.009 C 
BRANCH  16  17
HETATM   17  C3  UNL     1      28.216   6.592  48.171  1.00  0.00     0.104 C 
BRANCH  17  18
HETATM   18  N1  UNL     1      28.381   7.595  49.235  1.00  0.00    -0.385 N 
HETATM   19  H3  UNL     1      28.970   7.422  50.106  1.00  0.00     0.160 HD
BRANCH  18  20
HETATM   20  C2  UNL     1      27.924   8.919  49.467  1.00  0.00     0.016 C 
HETATM   21  C1  UNL     1      26.699   8.834  49.964  1.00  0.00     0.063 C 
BRANCH  20  22
HETATM   22  C19 UNL     1      28.751  10.085  49.192  1.00  0.00    -0.013 A 
HETATM   23  C20 UNL     1      30.117  10.091  49.360  1.00  0.00     0.013 A 
HETATM   24  C21 UNL     1      30.786  11.254  49.054  1.00  0.00     0.002 A 
HETATM   25  C22 UNL     1      30.175  12.390  48.601  1.00  0.00     0.016 A 
HETATM   26  C23 UNL     1      28.809  12.333  48.452  1.00  0.00     0.048 A 
HETATM   27  C25 UNL     1      28.112  11.204  48.741  1.00  0.00     0.029 A 
BRANCH  26  28
HETATM   28  C24 UNL     1      28.144  13.557  47.969  1.00  0.00     0.417 C 
HETATM   29  F1  UNL     1      29.133  14.467  47.652  1.00  0.00    -0.166 F 
HETATM   30  F2  UNL     1      27.416  13.299  46.835  1.00  0.00    -0.166 F 
HETATM   31  F3  UNL     1      27.372  14.048  48.995  1.00  0.00    -0.166 F 
ENDBRANCH  26  28
ENDBRANCH  20  22
ENDBRANCH  18  20
ENDBRANCH  17  18
BRANCH  17  32
HETATM   32  C17 UNL     1      29.608   6.302  47.639  1.00  0.00     0.024 C 
HETATM   33  C18 UNL     1      30.696   6.408  48.656  1.00  0.00     0.007 C 
ENDBRANCH  17  32
ENDBRANCH  16  17
ENDBRANCH   1  16
BRANCH  12  34
HETATM   34  N4  UNL     1      29.101   0.280  54.106  1.00  0.00    -0.227 N 
HETATM   35  C15 UNL     1      30.021  -0.704  53.575  1.00  0.00     0.165 C 
HETATM   36  H12 UNL     1      29.431   1.016  54.802  1.00  0.00     0.177 HD
ENDBRANCH  12  34
TORSDOF 8
ENDMDL
MODEL 6
REMARK VINA RESULT:      -9.1      3.570      5.727
REMARK  8 active torsions:
REMARK  status: ('A' for Active; 'I' for Inactive)
REMARK    1  A    between atoms: C2_2  and  N1_3 
REMARK    2  A    between atoms: C2_2  and  C19_25 
REMARK    3  A    between atoms: N1_3  and  C3_4 
REMARK    4  A    between atoms: C3_4  and  C4_5 
REMARK    5  A    between atoms: C3_4  and  C17_23 
REMARK    6  A    between atoms: C4_5  and  C5_6 
REMARK    7  A    between atoms: C14_17  and  N4_18 
REMARK    8  A    between atoms: C23_29  and  C24_30 
ROOT
HETATM    1  C5  UNL     1      26.764   4.164  49.278  1.00  0.00    -0.018 C 
HETATM    2  C6  UNL     1      25.484   4.823  49.121  1.00  0.00     0.125 C 
HETATM    3  N2  UNL     1      24.211   4.890  49.275  1.00  0.00    -0.273 NA
HETATM    4  C7  UNL     1      23.537   3.860  49.918  1.00  0.00     0.116 C 
HETATM    5  C8  UNL     1      23.024   2.822  50.623  1.00  0.00     0.022 C 
HETATM    6  C9  UNL     1      24.196   2.424  51.352  1.00  0.00     0.040 C 
HETATM    7  C10 UNL     1      25.313   2.145  51.963  1.00  0.00     0.098 C 
HETATM    8  C11 UNL     1      25.542   1.102  52.928  1.00  0.00     0.110 A 
HETATM    9  C12 UNL     1      24.589   0.243  53.366  1.00  0.00     0.055 A 
HETATM   10  C13 UNL     1      25.063  -0.664  54.279  1.00  0.00     0.139 A 
HETATM   11  N3  UNL     1      26.346  -0.727  54.722  1.00  0.00    -0.075 NA
HETATM   12  C14 UNL     1      27.240   0.165  54.237  1.00  0.00     0.722 A 
HETATM   13  N5  UNL     1      26.835   1.091  53.330  1.00  0.00    -0.060 NA
HETATM   14  O1  UNL     1      25.660   3.209  51.182  1.00  0.00    -0.344 OA
HETATM   15  C16 UNL     1      26.323   2.969  49.946  1.00  0.00     0.215 C 
ENDROOT
BRANCH   1  16
HETATM   16  C4  UNL     1      27.576   4.961  48.764  1.00  0.00     0.009 C 
BRANCH  16  17
HETATM   17  C3  UNL     1      28.385   6.006  48.236  1.00  0.00     0.104 C 
BRANCH  17  18
HETATM   18  N1  UNL     1      28.396   7.213  49.079  1.00  0.00    -0.385 N 
HETATM   19  H3  UNL     1      29.129   7.383  49.834  1.00  0.00     0.160 HD
BRANCH  18  20
HETATM   20  C2  UNL     1      27.607   8.387  49.187  1.00  0.00     0.016 C 
HETATM   21  C1  UNL     1      28.425   9.391  49.465  1.00  0.00     0.063 C 
BRANCH  20  22
HETATM   22  C19 UNL     1      26.165   8.375  48.984  1.00  0.00    -0.013 A 
HETATM   23  C20 UNL     1      25.262   8.441  50.021  1.00  0.00     0.013 A 
HETATM   24  C21 UNL     1      23.925   8.433  49.695  1.00  0.00     0.002 A 
HETATM   25  C22 UNL     1      23.451   8.363  48.415  1.00  0.00     0.016 A 
HETATM   26  C23 UNL     1      24.393   8.297  47.415  1.00  0.00     0.048 A 
HETATM   27  C25 UNL     1      25.722   8.304  47.694  1.00  0.00     0.029 A 
BRANCH  26  28
HETATM   28  C24 UNL     1      23.888   8.215  46.033  1.00  0.00     0.417 C 
HETATM   29  F1  UNL     1      23.567   9.497  45.634  1.00  0.00    -0.166 F 
HETATM   30  F2  UNL     1      24.856   7.731  45.190  1.00  0.00    -0.166 F 
HETATM   31  F3  UNL     1      22.757   7.434  46.046  1.00  0.00    -0.166 F 
ENDBRANCH  26  28
ENDBRANCH  20  22
ENDBRANCH  18  20
ENDBRANCH  17  18
BRANCH  17  32
HETATM   32  C17 UNL     1      29.837   5.638  47.998  1.00  0.00     0.024 C 
HETATM   33  C18 UNL     1      30.819   6.457  48.768  1.00  0.00     0.007 C 
ENDBRANCH  17  32
ENDBRANCH  16  17
ENDBRANCH   1  16
BRANCH  12  34
HETATM   34  N4  UNL     1      28.584   0.101  54.694  1.00  0.00    -0.227 N 
HETATM   35  C15 UNL     1      29.544  -0.696  53.958  1.00  0.00     0.165 C 
HETATM   36  H12 UNL     1      28.876   0.634  55.569  1.00  0.00     0.177 HD
ENDBRANCH  12  34
TORSDOF 8
ENDMDL
MODEL 7
REMARK VINA RESULT:      -9.0      3.018      4.330
REMARK  8 active torsions:
REMARK  status: ('A' for Active; 'I' for Inactive)
REMARK    1  A    between atoms: C2_2  and  N1_3 
REMARK    2  A    between atoms: C2_2  and  C19_25 
REMARK    3  A    between atoms: N1_3  and  C3_4 
REMARK    4  A    between atoms: C3_4  and  C4_5 
REMARK    5  A    between atoms: C3_4  and  C17_23 
REMARK    6  A    between atoms: C4_5  and  C5_6 
REMARK    7  A    between atoms: C14_17  and  N4_18 
REMARK    8  A    between atoms: C23_29  and  C24_30 
ROOT
HETATM    1  C5  UNL     1      27.122   4.373  49.052  1.00  0.00    -0.018 C 
HETATM    2  C6  UNL     1      25.866   5.090  48.960  1.00  0.00     0.125 C 
HETATM    3  N2  UNL     1      24.600   5.197  49.148  1.00  0.00    -0.273 NA
HETATM    4  C7  UNL     1      23.900   4.160  49.749  1.00  0.00     0.116 C 
HETATM    5  C8  UNL     1      23.360   3.106  50.408  1.00  0.00     0.022 C 
HETATM    6  C9  UNL     1      24.530   2.623  51.087  1.00  0.00     0.040 C 
HETATM    7  C10 UNL     1      25.648   2.267  51.656  1.00  0.00     0.098 C 
HETATM    8  C11 UNL     1      25.856   1.164  52.557  1.00  0.00     0.110 A 
HETATM    9  C12 UNL     1      24.878   0.320  52.970  1.00  0.00     0.055 A 
HETATM   10  C13 UNL     1      25.335  -0.654  53.821  1.00  0.00     0.139 A 
HETATM   11  N3  UNL     1      26.624  -0.790  54.230  1.00  0.00    -0.075 NA
HETATM   12  C14 UNL     1      27.542   0.091  53.774  1.00  0.00     0.722 A 
HETATM   13  N5  UNL     1      27.156   1.081  52.928  1.00  0.00    -0.060 NA
HETATM   14  O1  UNL     1      26.020   3.359  50.926  1.00  0.00    -0.344 OA
HETATM   15  C16 UNL     1      26.648   3.161  49.664  1.00  0.00     0.215 C 
ENDROOT
BRANCH   1  16
HETATM   16  C4  UNL     1      27.954   5.166  48.563  1.00  0.00     0.009 C 
BRANCH  16  17
HETATM   17  C3  UNL     1      28.926   6.133  48.182  1.00  0.00     0.104 C 
BRANCH  17  18
HETATM   18  N1  UNL     1      28.915   7.333  49.034  1.00  0.00    -0.385 N 
HETATM   19  H3  UNL     1      29.381   7.366  49.991  1.00  0.00     0.160 HD
BRANCH  18  20
HETATM   20  C2  UNL     1      28.397   8.651  48.930  1.00  0.00     0.016 C 
HETATM   21  C1  UNL     1      27.085   8.575  49.092  1.00  0.00     0.063 C 
BRANCH  20  22
HETATM   22  C19 UNL     1      29.254   9.807  48.708  1.00  0.00    -0.013 A 
HETATM   23  C20 UNL     1      28.906  11.082  49.093  1.00  0.00     0.013 A 
HETATM   24  C21 UNL     1      29.809  12.088  48.835  1.00  0.00     0.002 A 
HETATM   25  C22 UNL     1      31.017  11.892  48.225  1.00  0.00     0.016 A 
HETATM   26  C23 UNL     1      31.317  10.601  47.859  1.00  0.00     0.048 A 
HETATM   27  C25 UNL     1      30.453   9.580  48.096  1.00  0.00     0.029 A 
BRANCH  26  28
HETATM   28  C24 UNL     1      32.614  10.385  47.195  1.00  0.00     0.417 C 
HETATM   29  F1  UNL     1      33.193   9.272  47.772  1.00  0.00    -0.166 F 
HETATM   30  F2  UNL     1      32.440  10.136  45.857  1.00  0.00    -0.166 F 
HETATM   31  F3  UNL     1      33.395  11.491  47.431  1.00  0.00    -0.166 F 
ENDBRANCH  26  28
ENDBRANCH  20  22
ENDBRANCH  18  20
ENDBRANCH  17  18
BRANCH  17  32
HETATM   32  C17 UNL     1      30.359   5.634  48.166  1.00  0.00     0.024 C 
HETATM   33  C18 UNL     1      31.238   6.302  47.161  1.00  0.00     0.007 C 
ENDBRANCH  17  32
ENDBRANCH  16  17
ENDBRANCH   1  16
BRANCH  12  34
HETATM   34  N4  UNL     1      28.892  -0.050  54.195  1.00  0.00    -0.227 N 
HETATM   35  C15 UNL     1      29.737  -1.030  53.546  1.00  0.00     0.165 C 
HETATM   36  H12 UNL     1      29.271   0.561  54.982  1.00  0.00     0.177 HD
ENDBRANCH  12  34
TORSDOF 8
ENDMDL
MODEL 8
REMARK VINA RESULT:      -9.0      4.424      7.887
REMARK  8 active torsions:
REMARK  status: ('A' for Active; 'I' for Inactive)
REMARK    1  A    between atoms: C2_2  and  N1_3 
REMARK    2  A    between atoms: C2_2  and  C19_25 
REMARK    3  A    between atoms: N1_3  and  C3_4 
REMARK    4  A    between atoms: C3_4  and  C4_5 
REMARK    5  A    between atoms: C3_4  and  C17_23 
REMARK    6  A    between atoms: C4_5  and  C5_6 
REMARK    7  A    between atoms: C14_17  and  N4_18 
REMARK    8  A    between atoms: C23_29  and  C24_30 
ROOT
HETATM    1  C5  UNL     1      25.861   2.859  51.171  1.00  0.00    -0.018 C 
HETATM    2  C6  UNL     1      27.087   2.249  51.642  1.00  0.00     0.125 C 
HETATM    3  N2  UNL     1      27.750   1.505  52.453  1.00  0.00    -0.273 NA
HETATM    4  C7  UNL     1      27.097   0.867  53.499  1.00  0.00     0.116 C 
HETATM    5  C8  UNL     1      26.321   0.254  54.426  1.00  0.00     0.022 C 
HETATM    6  C9  UNL     1      25.063   0.267  53.733  1.00  0.00     0.040 C 
HETATM    7  C10 UNL     1      23.973   0.330  53.021  1.00  0.00     0.098 C 
HETATM    8  C11 UNL     1      22.667  -0.157  53.380  1.00  0.00     0.110 A 
HETATM    9  C12 UNL     1      22.381  -0.789  54.546  1.00  0.00     0.055 A 
HETATM   10  C13 UNL     1      21.061  -1.147  54.652  1.00  0.00     0.139 A 
HETATM   11  N3  UNL     1      20.111  -0.911  53.710  1.00  0.00    -0.075 NA
HETATM   12  C14 UNL     1      20.474  -0.275  52.573  1.00  0.00     0.722 A 
HETATM   13  N5  UNL     1      21.767   0.107  52.404  1.00  0.00    -0.060 NA
HETATM   14  O1  UNL     1      24.893   0.925  52.208  1.00  0.00    -0.344 OA
HETATM   15  C16 UNL     1      24.955   2.346  52.162  1.00  0.00     0.215 C 
ENDROOT
BRANCH   1  16
HETATM   16  C4  UNL     1      26.217   3.503  50.162  1.00  0.00     0.009 C 
BRANCH  16  17
HETATM   17  C3  UNL     1      26.451   4.312  49.015  1.00  0.00     0.104 C 
BRANCH  17  18
HETATM   18  N1  UNL     1      25.493   5.423  48.883  1.00  0.00    -0.385 N 
HETATM   19  H3  UNL     1      25.605   6.199  48.163  1.00  0.00     0.160 HD
BRANCH  18  20
HETATM   20  C2  UNL     1      24.287   5.808  49.524  1.00  0.00     0.016 C 
HETATM   21  C1  UNL     1      24.331   7.121  49.696  1.00  0.00     0.063 C 
BRANCH  20  22
HETATM   22  C19 UNL     1      23.246   4.848  49.863  1.00  0.00    -0.013 A 
HETATM   23  C20 UNL     1      22.528   4.905  51.036  1.00  0.00     0.013 A 
HETATM   24  C21 UNL     1      21.562   3.944  51.233  1.00  0.00     0.002 A 
HETATM   25  C22 UNL     1      21.283   2.948  50.339  1.00  0.00     0.016 A 
HETATM   26  C23 UNL     1      22.030   2.933  49.184  1.00  0.00     0.048 A 
HETATM   27  C25 UNL     1      22.990   3.864  48.951  1.00  0.00     0.029 A 
BRANCH  26  28
HETATM   28  C24 UNL     1      21.737   1.858  48.220  1.00  0.00     0.417 C 
HETATM   29  F1  UNL     1      20.560   2.188  47.577  1.00  0.00    -0.166 F 
HETATM   30  F2  UNL     1      22.731   1.766  47.278  1.00  0.00    -0.166 F 
HETATM   31  F3  UNL     1      21.569   0.693  48.929  1.00  0.00    -0.166 F 
ENDBRANCH  26  28
ENDBRANCH  20  22
ENDBRANCH  18  20
ENDBRANCH  17  18
BRANCH  17  32
HETATM   32  C17 UNL     1      27.834   4.931  48.934  1.00  0.00     0.024 C 
HETATM   33  C18 UNL     1      27.890   6.233  48.206  1.00  0.00     0.007 C 
ENDBRANCH  17  32
ENDBRANCH  16  17
ENDBRANCH   1  16
BRANCH  12  34
HETATM   34  N4  UNL     1      19.483  -0.022  51.586  1.00  0.00    -0.227 N 
HETATM   35  C15 UNL     1      18.110  -0.399  51.849  1.00  0.00     0.165 C 
HETATM   36  H12 UNL     1      19.755   0.439  50.664  1.00  0.00     0.177 HD
ENDBRANCH  12  34
TORSDOF 8
ENDMDL
MODEL 9
REMARK VINA RESULT:      -8.8      3.579      5.498
REMARK  8 active torsions:
REMARK  status: ('A' for Active; 'I' for Inactive)
REMARK    1  A    between atoms: C2_2  and  N1_3 
REMARK    2  A    between atoms: C2_2  and  C19_25 
REMARK    3  A    between atoms: N1_3  and  C3_4 
REMARK    4  A    between atoms: C3_4  and  C4_5 
REMARK    5  A    between atoms: C3_4  and  C17_23 
REMARK    6  A    between atoms: C4_5  and  C5_6 
REMARK    7  A    between atoms: C14_17  and  N4_18 
REMARK    8  A    between atoms: C23_29  and  C24_30 
ROOT
HETATM    1  C5  UNL     1      22.387   3.200  49.700  1.00  0.00    -0.018 C 
HETATM    2  C6  UNL     1      20.994   2.933  49.993  1.00  0.00     0.125 C 
HETATM    3  N2  UNL     1      20.059   2.251  50.549  1.00  0.00    -0.273 NA
HETATM    4  C7  UNL     1      20.376   1.140  51.320  1.00  0.00     0.116 C 
HETATM    5  C8  UNL     1      20.833   0.128  52.096  1.00  0.00     0.022 C 
HETATM    6  C9  UNL     1      22.147   0.628  52.392  1.00  0.00     0.040 C 
HETATM    7  C10 UNL     1      23.314   1.170  52.599  1.00  0.00     0.098 C 
HETATM    8  C11 UNL     1      24.396   0.637  53.385  1.00  0.00     0.110 A 
HETATM    9  C12 UNL     1      24.344  -0.538  54.060  1.00  0.00     0.055 A 
HETATM   10  C13 UNL     1      25.509  -0.826  54.725  1.00  0.00     0.139 A 
HETATM   11  N3  UNL     1      26.618  -0.041  54.732  1.00  0.00    -0.075 NA
HETATM   12  C14 UNL     1      26.593   1.117  54.034  1.00  0.00     0.722 A 
HETATM   13  N5  UNL     1      25.469   1.463  53.352  1.00  0.00    -0.060 NA
HETATM   14  O1  UNL     1      22.696   2.091  51.804  1.00  0.00    -0.344 OA
HETATM   15  C16 UNL     1      22.984   2.102  50.411  1.00  0.00     0.215 C 
ENDROOT
BRANCH   1  16
HETATM   16  C4  UNL     1      22.351   4.231  48.996  1.00  0.00     0.009 C 
BRANCH  16  17
HETATM   17  C3  UNL     1      22.193   5.475  48.324  1.00  0.00     0.104 C 
BRANCH  17  18
HETATM   18  N1  UNL     1      23.140   6.506  48.779  1.00  0.00    -0.385 N 
HETATM   19  H3  UNL     1      23.086   7.521  48.462  1.00  0.00     0.160 HD
BRANCH  18  20
HETATM   20  C2  UNL     1      24.259   6.546  49.651  1.00  0.00     0.016 C 
HETATM   21  C1  UNL     1      23.879   7.166  50.758  1.00  0.00     0.063 C 
BRANCH  20  22
HETATM   22  C19 UNL     1      25.542   5.955  49.295  1.00  0.00    -0.013 A 
HETATM   23  C20 UNL     1      25.850   4.634  49.533  1.00  0.00     0.013 A 
HETATM   24  C21 UNL     1      27.093   4.195  49.139  1.00  0.00     0.002 A 
HETATM   25  C22 UNL     1      28.027   4.989  48.533  1.00  0.00     0.016 A 
HETATM   26  C23 UNL     1      27.671   6.300  48.319  1.00  0.00     0.048 A 
HETATM   27  C25 UNL     1      26.454   6.772  48.692  1.00  0.00     0.029 A 
BRANCH  26  28
HETATM   28  C24 UNL     1      28.676   7.161  47.672  1.00  0.00     0.417 C 
HETATM   29  F1  UNL     1      28.782   8.312  48.428  1.00  0.00    -0.166 F 
HETATM   30  F2  UNL     1      29.903   6.546  47.651  1.00  0.00    -0.166 F 
HETATM   31  F3  UNL     1      28.217   7.471  46.414  1.00  0.00    -0.166 F 
ENDBRANCH  26  28
ENDBRANCH  20  22
ENDBRANCH  18  20
ENDBRANCH  17  18
BRANCH  17  32
HETATM   32  C17 UNL     1      22.325   5.412  46.813  1.00  0.00     0.024 C 
HETATM   33  C18 UNL     1      21.398   6.317  46.071  1.00  0.00     0.007 C 
ENDBRANCH  17  32
ENDBRANCH  16  17
ENDBRANCH   1  16
BRANCH  12  34
HETATM   34  N4  UNL     1      27.751   1.940  54.034  1.00  0.00    -0.227 N 
HETATM   35  C15 UNL     1      29.042   1.344  54.306  1.00  0.00     0.165 C 
HETATM   36  H12 UNL     1      27.664   2.984  53.838  1.00  0.00     0.177 HD
ENDBRANCH  12  34
TORSDOF 8
ENDMDL
