MODEL 1
REMARK VINA RESULT:      -7.7      0.000      0.000
REMARK  6 active torsions:
REMARK  status: ('A' for Active; 'I' for Inactive)
REMARK    1  A    between atoms: O1_2  and  C2_3 
REMARK    2  A    between atoms: C5_6  and  C6_7 
REMARK       I    between atoms: C6_7  and  N1_9 
REMARK    3  A    between atoms: N1_9  and  C7_10 
REMARK    4  A    between atoms: C7_10  and  C8_11 
REMARK    5  A    between atoms: C8_11  and  O3_13 
REMARK    6  A    between atoms: C12_17  and  C13_18 
ROOT
HETATM    1  C2  UNL     1      24.268   2.789  50.457  1.00  0.00     0.076 C 
HETATM    2  C3  UNL     1      25.559   2.936  50.217  1.00  0.00     0.040 C 
HETATM    3  C4  UNL     1      26.508   2.550  51.254  1.00  0.00     0.045 C 
HETATM    4  C5  UNL     1      26.429   2.405  52.566  1.00  0.00     0.136 C 
HETATM    5  O4  UNL     1      25.198   2.656  53.172  1.00  0.00    -0.341 OA
HETATM    6  C10 UNL     1      23.891   2.210  52.951  1.00  0.00     0.217 C 
HETATM    7  C11 UNL     1      23.412   2.305  51.563  1.00  0.00     0.000 C 
HETATM    8  C12 UNL     1      22.197   1.960  51.217  1.00  0.00     0.024 C 
ENDROOT
BRANCH   1   9
HETATM    9  O1  UNL     1      23.559   3.222  49.328  1.00  0.00    -0.355 OA
HETATM   10  C1  UNL     1      23.669   4.569  48.970  1.00  0.00     0.210 C 
ENDBRANCH   1   9
BRANCH   8  11
HETATM   11  C13 UNL     1      20.890   1.455  51.596  1.00  0.00    -0.029 C 
HETATM   12  C14 UNL     1      20.837   0.408  52.400  1.00  0.00     0.014 C 
HETATM   13  C15 UNL     1      19.737  -0.377  52.992  1.00  0.00     0.024 C 
HETATM   14  C16 UNL     1      18.552  -0.593  52.436  1.00  0.00     0.034 C 
HETATM   15 CL1  UNL     1      17.462  -1.590  53.437  1.00  0.00    -0.084 Cl
HETATM   16  C17 UNL     1      17.957  -0.182  51.170  1.00  0.00     0.025 C 
HETATM   17  C18 UNL     1      18.200   0.930  50.501  1.00  0.00     0.010 C 
HETATM   18  P1  UNL     1      19.349   2.271  50.972  1.00  0.00    -0.072 P 
HETATM   19  H21 UNL     1      18.768   2.949  52.137  1.00  0.00     0.066 HD
ENDBRANCH   8  11
BRANCH   4  20
HETATM   20  C6  UNL     1      27.635   1.993  53.277  1.00  0.00     0.274 C 
HETATM   21  O2  UNL     1      28.664   2.630  53.000  1.00  0.00    -0.265 OA
HETATM   22  N1  UNL     1      27.571   0.929  54.210  1.00  0.00    -0.353 N 
HETATM   23  H6  UNL     1      26.619   0.475  54.345  1.00  0.00     0.162 HD
BRANCH  22  24
HETATM   24  C7  UNL     1      28.731   0.478  54.942  1.00  0.00     0.154 C 
BRANCH  24  25
HETATM   25  C8  UNL     1      29.468  -0.538  54.096  1.00  0.00     0.132 C 
HETATM   26  C9  UNL     1      28.495  -1.291  53.203  1.00  0.00     0.041 C 
BRANCH  25  27
HETATM   27  O3  UNL     1      30.391   0.125  53.279  1.00  0.00    -0.394 OA
HETATM   28  H13 UNL     1      30.107   1.062  53.163  1.00  0.00     0.210 HD
ENDBRANCH  25  27
ENDBRANCH  24  25
ENDBRANCH  22  24
ENDBRANCH   4  20
TORSDOF 6
ENDMDL
MODEL 2
REMARK VINA RESULT:      -7.6      3.275      5.128
REMARK  6 active torsions:
REMARK  status: ('A' for Active; 'I' for Inactive)
REMARK    1  A    between atoms: O1_2  and  C2_3 
REMARK    2  A    between atoms: C5_6  and  C6_7 
REMARK       I    between atoms: C6_7  and  N1_9 
REMARK    3  A    between atoms: N1_9  and  C7_10 
REMARK    4  A    between atoms: C7_10  and  C8_11 
REMARK    5  A    between atoms: C8_11  and  O3_13 
REMARK    6  A    between atoms: C12_17  and  C13_18 
ROOT
HETATM    1  C2  UNL     1      22.251   0.516  52.217  1.00  0.00     0.076 C 
HETATM    2  C3  UNL     1      22.477  -0.391  53.152  1.00  0.00     0.040 C 
HETATM    3  C4  UNL     1      23.787  -0.419  53.791  1.00  0.00     0.045 C 
HETATM    4  C5  UNL     1      24.990   0.009  53.445  1.00  0.00     0.136 C 
HETATM    5  O4  UNL     1      25.121   0.640  52.209  1.00  0.00    -0.341 OA
HETATM    6  C10 UNL     1      24.461   1.700  51.577  1.00  0.00     0.217 C 
HETATM    7  C11 UNL     1      22.992   1.617  51.563  1.00  0.00     0.000 C 
HETATM    8  C12 UNL     1      22.247   2.518  50.974  1.00  0.00     0.024 C 
ENDROOT
BRANCH   1   9
HETATM    9  O1  UNL     1      20.939   0.350  51.752  1.00  0.00    -0.355 OA
HETATM   10  C1  UNL     1      19.955   0.019  52.689  1.00  0.00     0.210 C 
ENDBRANCH   1   9
BRANCH   8  11
HETATM   11  C13 UNL     1      22.149   3.746  50.207  1.00  0.00    -0.029 C 
HETATM   12  C14 UNL     1      22.892   3.861  49.120  1.00  0.00     0.014 C 
HETATM   13  C15 UNL     1      23.073   4.918  48.107  1.00  0.00     0.024 C 
HETATM   14  C16 UNL     1      22.975   6.224  48.323  1.00  0.00     0.034 C 
HETATM   15 CL1  UNL     1      23.256   7.214  46.866  1.00  0.00    -0.084 Cl
HETATM   16  C17 UNL     1      22.684   7.017  49.512  1.00  0.00     0.025 C 
HETATM   17  C18 UNL     1      21.919   6.671  50.530  1.00  0.00     0.010 C 
HETATM   18  P1  UNL     1      21.006   5.102  50.741  1.00  0.00    -0.072 P 
HETATM   19  H21 UNL     1      19.916   5.101  49.760  1.00  0.00     0.066 HD
ENDBRANCH   8  11
BRANCH   4  20
HETATM   20  C6  UNL     1      26.085  -0.213  54.384  1.00  0.00     0.274 C 
HETATM   21  O2  UNL     1      25.781  -0.808  55.431  1.00  0.00    -0.265 OA
HETATM   22  N1  UNL     1      27.386   0.247  54.065  1.00  0.00    -0.353 N 
HETATM   23  H6  UNL     1      27.498   0.742  53.131  1.00  0.00     0.162 HD
BRANCH  22  24
HETATM   24  C7  UNL     1      28.507   0.057  54.955  1.00  0.00     0.154 C 
BRANCH  24  25
HETATM   25  C8  UNL     1      29.697  -0.402  54.139  1.00  0.00     0.132 C 
HETATM   26  C9  UNL     1      29.307  -1.565  53.241  1.00  0.00     0.041 C 
BRANCH  25  27
HETATM   27  O3  UNL     1      30.135   0.652  53.329  1.00  0.00    -0.394 OA
HETATM   28  H13 UNL     1      29.397   0.937  52.740  1.00  0.00     0.210 HD
ENDBRANCH  25  27
ENDBRANCH  24  25
ENDBRANCH  22  24
ENDBRANCH   4  20
TORSDOF 6
ENDMDL
MODEL 3
REMARK VINA RESULT:      -7.6      5.132      7.645
REMARK  6 active torsions:
REMARK  status: ('A' for Active; 'I' for Inactive)
REMARK    1  A    between atoms: O1_2  and  C2_3 
REMARK    2  A    between atoms: C5_6  and  C6_7 
REMARK       I    between atoms: C6_7  and  N1_9 
REMARK    3  A    between atoms: N1_9  and  C7_10 
REMARK    4  A    between atoms: C7_10  and  C8_11 
REMARK    5  A    between atoms: C8_11  and  O3_13 
REMARK    6  A    between atoms: C12_17  and  C13_18 
ROOT
HETATM    1  C2  UNL     1      24.284   3.749  49.584  1.00  0.00     0.076 C 
HETATM    2  C3  UNL     1      23.542   2.860  50.221  1.00  0.00     0.040 C 
HETATM    3  C4  UNL     1      24.150   2.095  51.303  1.00  0.00     0.045 C 
HETATM    4  C5  UNL     1      25.394   1.779  51.623  1.00  0.00     0.136 C 
HETATM    5  O4  UNL     1      26.412   2.243  50.790  1.00  0.00    -0.341 OA
HETATM    6  C10 UNL     1      26.764   3.498  50.281  1.00  0.00     0.217 C 
HETATM    7  C11 UNL     1      25.675   4.253  49.642  1.00  0.00     0.000 C 
HETATM    8  C12 UNL     1      25.866   5.424  49.088  1.00  0.00     0.024 C 
ENDROOT
BRANCH   1   9
HETATM    9  O1  UNL     1      23.494   4.352  48.595  1.00  0.00    -0.355 OA
HETATM   10  C1  UNL     1      22.455   3.597  48.044  1.00  0.00     0.210 C 
ENDBRANCH   1   9
BRANCH   8  11
HETATM   11  C13 UNL     1      26.771   6.504  48.741  1.00  0.00    -0.029 C 
HETATM   12  C14 UNL     1      27.941   6.190  48.214  1.00  0.00     0.014 C 
HETATM   13  C15 UNL     1      29.099   6.975  47.745  1.00  0.00     0.024 C 
HETATM   14  C16 UNL     1      29.500   8.138  48.242  1.00  0.00     0.034 C 
HETATM   15 CL1  UNL     1      30.942   8.805  47.430  1.00  0.00    -0.084 Cl
HETATM   16  C17 UNL     1      29.003   8.984  49.320  1.00  0.00     0.025 C 
HETATM   17  C18 UNL     1      27.751   9.113  49.716  1.00  0.00     0.010 C 
HETATM   18  P1  UNL     1      26.284   8.268  49.026  1.00  0.00    -0.072 P 
HETATM   19  H21 UNL     1      26.051   8.828  47.691  1.00  0.00     0.066 HD
ENDBRANCH   8  11
BRANCH   4  20
HETATM   20  C6  UNL     1      25.604   0.971  52.819  1.00  0.00     0.274 C 
HETATM   21  O2  UNL     1      24.591   0.415  53.275  1.00  0.00    -0.265 OA
HETATM   22  N1  UNL     1      26.901   0.868  53.378  1.00  0.00    -0.353 N 
HETATM   23  H6  UNL     1      27.675   1.401  52.880  1.00  0.00     0.162 HD
BRANCH  22  24
HETATM   24  C7  UNL     1      27.168   0.085  54.561  1.00  0.00     0.154 C 
BRANCH  24  25
HETATM   25  C8  UNL     1      28.649   0.164  54.866  1.00  0.00     0.132 C 
HETATM   26  C9  UNL     1      29.452  -0.535  53.781  1.00  0.00     0.041 C 
BRANCH  25  27
HETATM   27  O3  UNL     1      29.040   1.507  54.907  1.00  0.00    -0.394 OA
HETATM   28  H13 UNL     1      29.550   1.672  55.735  1.00  0.00     0.210 HD
ENDBRANCH  25  27
ENDBRANCH  24  25
ENDBRANCH  22  24
ENDBRANCH   4  20
TORSDOF 6
ENDMDL
MODEL 4
REMARK VINA RESULT:      -7.6      2.919      4.624
REMARK  6 active torsions:
REMARK  status: ('A' for Active; 'I' for Inactive)
REMARK    1  A    between atoms: O1_2  and  C2_3 
REMARK    2  A    between atoms: C5_6  and  C6_7 
REMARK       I    between atoms: C6_7  and  N1_9 
REMARK    3  A    between atoms: N1_9  and  C7_10 
REMARK    4  A    between atoms: C7_10  and  C8_11 
REMARK    5  A    between atoms: C8_11  and  O3_13 
REMARK    6  A    between atoms: C12_17  and  C13_18 
ROOT
HETATM    1  C2  UNL     1      25.269   1.278  51.812  1.00  0.00     0.076 C 
HETATM    2  C3  UNL     1      26.475   1.782  51.614  1.00  0.00     0.040 C 
HETATM    3  C4  UNL     1      26.598   2.998  50.820  1.00  0.00     0.045 C 
HETATM    4  C5  UNL     1      25.840   3.584  49.908  1.00  0.00     0.136 C 
HETATM    5  O4  UNL     1      24.635   2.966  49.576  1.00  0.00    -0.341 OA
HETATM    6  C10 UNL     1      23.544   2.490  50.311  1.00  0.00     0.217 C 
HETATM    7  C11 UNL     1      23.874   1.606  51.440  1.00  0.00     0.000 C 
HETATM    8  C12 UNL     1      22.953   1.056  52.191  1.00  0.00     0.024 C 
ENDROOT
BRANCH   1   9
HETATM    9  O1  UNL     1      25.399   0.121  52.593  1.00  0.00    -0.355 OA
HETATM   10  C1  UNL     1      26.627  -0.101  53.224  1.00  0.00     0.210 C 
ENDBRANCH   1   9
BRANCH   8  11
HETATM   11  C13 UNL     1      21.549   0.863  52.497  1.00  0.00    -0.029 C 
HETATM   12  C14 UNL     1      21.166  -0.323  52.937  1.00  0.00     0.014 C 
HETATM   13  C15 UNL     1      19.869  -0.897  53.342  1.00  0.00     0.024 C 
HETATM   14  C16 UNL     1      18.684  -0.567  52.842  1.00  0.00     0.034 C 
HETATM   15 CL1  UNL     1      17.325  -1.467  53.567  1.00  0.00    -0.084 Cl
HETATM   16  C17 UNL     1      18.266   0.382  51.817  1.00  0.00     0.025 C 
HETATM   17  C18 UNL     1      18.847   1.527  51.510  1.00  0.00     0.010 C 
HETATM   18  P1  UNL     1      20.338   2.249  52.282  1.00  0.00    -0.072 P 
HETATM   19  H21 UNL     1      19.968   2.656  53.641  1.00  0.00     0.066 HD
ENDBRANCH   8  11
BRANCH   4  20
HETATM   20  C6  UNL     1      26.322   4.831  49.323  1.00  0.00     0.274 C 
HETATM   21  O2  UNL     1      25.500   5.760  49.289  1.00  0.00    -0.265 OA
HETATM   22  N1  UNL     1      27.652   4.911  48.842  1.00  0.00    -0.353 N 
HETATM   23  H6  UNL     1      28.244   4.033  48.937  1.00  0.00     0.162 HD
BRANCH  22  24
HETATM   24  C7  UNL     1      28.184   6.117  48.252  1.00  0.00     0.154 C 
BRANCH  24  25
HETATM   25  C8  UNL     1      29.684   5.967  48.120  1.00  0.00     0.132 C 
HETATM   26  C9  UNL     1      30.309   7.272  47.654  1.00  0.00     0.041 C 
BRANCH  25  27
HETATM   27  O3  UNL     1      30.227   5.641  49.368  1.00  0.00    -0.394 OA
HETATM   28  H13 UNL     1      31.057   5.126  49.238  1.00  0.00     0.210 HD
ENDBRANCH  25  27
ENDBRANCH  24  25
ENDBRANCH  22  24
ENDBRANCH   4  20
TORSDOF 6
ENDMDL
MODEL 5
REMARK VINA RESULT:      -7.5      2.939      4.127
REMARK  6 active torsions:
REMARK  status: ('A' for Active; 'I' for Inactive)
REMARK    1  A    between atoms: O1_2  and  C2_3 
REMARK    2  A    between atoms: C5_6  and  C6_7 
REMARK       I    between atoms: C6_7  and  N1_9 
REMARK    3  A    between atoms: N1_9  and  C7_10 
REMARK    4  A    between atoms: C7_10  and  C8_11 
REMARK    5  A    between atoms: C8_11  and  O3_13 
REMARK    6  A    between atoms: C12_17  and  C13_18 
ROOT
HETATM    1  C2  UNL     1      20.873   0.944  52.630  1.00  0.00     0.076 C 
HETATM    2  C3  UNL     1      22.079   1.428  52.387  1.00  0.00     0.040 C 
HETATM    3  C4  UNL     1      23.236   0.682  52.864  1.00  0.00     0.045 C 
HETATM    4  C5  UNL     1      23.425  -0.216  53.817  1.00  0.00     0.136 C 
HETATM    5  O4  UNL     1      22.319  -0.588  54.582  1.00  0.00    -0.341 OA
HETATM    6  C10 UNL     1      21.030  -1.041  54.281  1.00  0.00     0.217 C 
HETATM    7  C11 UNL     1      20.286  -0.237  53.300  1.00  0.00     0.000 C 
HETATM    8  C12 UNL     1      19.055  -0.521  52.952  1.00  0.00     0.024 C 
ENDROOT
BRANCH   1   9
HETATM    9  O1  UNL     1      19.928   1.824  52.082  1.00  0.00    -0.355 OA
HETATM   10  C1  UNL     1      20.254   2.460  50.881  1.00  0.00     0.210 C 
ENDBRANCH   1   9
BRANCH   8  11
HETATM   11  C13 UNL     1      17.888  -1.372  53.088  1.00  0.00    -0.029 C 
HETATM   12  C14 UNL     1      18.065  -2.607  53.521  1.00  0.00     0.014 C 
HETATM   13  C15 UNL     1      17.161  -3.743  53.782  1.00  0.00     0.024 C 
HETATM   14  C16 UNL     1      16.038  -4.007  53.127  1.00  0.00     0.034 C 
HETATM   15 CL1  UNL     1      15.194  -5.467  53.710  1.00  0.00    -0.084 Cl
HETATM   16  C17 UNL     1      15.351  -3.347  52.023  1.00  0.00     0.025 C 
HETATM   17  C18 UNL     1      15.348  -2.056  51.748  1.00  0.00     0.010 C 
HETATM   18  P1  UNL     1      16.201  -0.729  52.671  1.00  0.00    -0.072 P 
HETATM   19  H21 UNL     1      15.511  -0.585  53.958  1.00  0.00     0.066 HD
ENDBRANCH   8  11
BRANCH   4  20
HETATM   20  C6  UNL     1      24.772  -0.747  53.994  1.00  0.00     0.274 C 
HETATM   21  O2  UNL     1      25.011  -1.243  55.106  1.00  0.00    -0.265 OA
HETATM   22  N1  UNL     1      25.702  -0.669  52.927  1.00  0.00    -0.353 N 
HETATM   23  H6  UNL     1      25.356  -0.216  52.030  1.00  0.00     0.162 HD
BRANCH  22  24
HETATM   24  C7  UNL     1      27.049  -1.176  53.044  1.00  0.00     0.154 C 
BRANCH  24  25
HETATM   25  C8  UNL     1      27.929  -0.079  53.604  1.00  0.00     0.132 C 
HETATM   26  C9  UNL     1      29.389  -0.498  53.561  1.00  0.00     0.041 C 
BRANCH  25  27
HETATM   27  O3  UNL     1      27.779   1.074  52.826  1.00  0.00    -0.394 OA
HETATM   28  H13 UNL     1      27.203   0.871  52.052  1.00  0.00     0.210 HD
ENDBRANCH  25  27
ENDBRANCH  24  25
ENDBRANCH  22  24
ENDBRANCH   4  20
TORSDOF 6
ENDMDL
MODEL 6
REMARK VINA RESULT:      -7.4      4.663      8.989
REMARK  6 active torsions:
REMARK  status: ('A' for Active; 'I' for Inactive)
REMARK    1  A    between atoms: O1_2  and  C2_3 
REMARK    2  A    between atoms: C5_6  and  C6_7 
REMARK       I    between atoms: C6_7  and  N1_9 
REMARK    3  A    between atoms: N1_9  and  C7_10 
REMARK    4  A    between atoms: C7_10  and  C8_11 
REMARK    5  A    between atoms: C8_11  and  O3_13 
REMARK    6  A    between atoms: C12_17  and  C13_18 
ROOT
HETATM    1  C2  UNL     1      21.885  -0.187  52.970  1.00  0.00     0.076 C 
HETATM    2  C3  UNL     1      20.586  -0.206  52.724  1.00  0.00     0.040 C 
HETATM    3  C4  UNL     1      19.985   0.953  52.075  1.00  0.00     0.045 C 
HETATM    4  C5  UNL     1      20.326   2.226  51.962  1.00  0.00     0.136 C 
HETATM    5  O4  UNL     1      21.513   2.633  52.570  1.00  0.00    -0.341 OA
HETATM    6  C10 UNL     1      22.836   2.179  52.534  1.00  0.00     0.217 C 
HETATM    7  C11 UNL     1      23.021   0.738  52.764  1.00  0.00     0.000 C 
HETATM    8  C12 UNL     1      24.206   0.181  52.796  1.00  0.00     0.024 C 
ENDROOT
BRANCH   1   9
HETATM    9  O1  UNL     1      22.231  -1.395  53.592  1.00  0.00    -0.355 OA
HETATM   10  C1  UNL     1      21.369  -1.888  54.576  1.00  0.00     0.210 C 
ENDBRANCH   1   9
BRANCH   8  11
HETATM   11  C13 UNL     1      25.648   0.316  52.704  1.00  0.00    -0.029 C 
HETATM   12  C14 UNL     1      26.395  -0.659  53.190  1.00  0.00     0.014 C 
HETATM   13  C15 UNL     1      27.850  -0.887  53.285  1.00  0.00     0.024 C 
HETATM   14  C16 UNL     1      28.775   0.054  53.427  1.00  0.00     0.034 C 
HETATM   15 CL1  UNL     1      30.439  -0.584  53.509  1.00  0.00    -0.084 Cl
HETATM   16  C17 UNL     1      28.708   1.507  53.531  1.00  0.00     0.025 C 
HETATM   17  C18 UNL     1      27.814   2.303  52.976  1.00  0.00     0.010 C 
HETATM   18  P1  UNL     1      26.406   1.813  51.919  1.00  0.00    -0.072 P 
HETATM   19  H21 UNL     1      26.963   1.344  50.646  1.00  0.00     0.066 HD
ENDBRANCH   8  11
BRANCH   4  20
HETATM   20  C6  UNL     1      19.434   3.103  51.211  1.00  0.00     0.274 C 
HETATM   21  O2  UNL     1      19.878   3.519  50.129  1.00  0.00    -0.265 OA
HETATM   22  N1  UNL     1      18.159   3.424  51.738  1.00  0.00    -0.353 N 
HETATM   23  H6  UNL     1      17.913   2.995  52.679  1.00  0.00     0.162 HD
BRANCH  22  24
HETATM   24  C7  UNL     1      17.235   4.288  51.040  1.00  0.00     0.154 C 
BRANCH  24  25
HETATM   25  C8  UNL     1      15.895   4.226  51.742  1.00  0.00     0.132 C 
HETATM   26  C9  UNL     1      15.353   2.806  51.726  1.00  0.00     0.041 C 
BRANCH  25  27
HETATM   27  O3  UNL     1      16.055   4.621  53.075  1.00  0.00    -0.394 OA
HETATM   28  H13 UNL     1      16.902   4.256  53.423  1.00  0.00     0.210 HD
ENDBRANCH  25  27
ENDBRANCH  24  25
ENDBRANCH  22  24
ENDBRANCH   4  20
TORSDOF 6
ENDMDL
MODEL 7
REMARK VINA RESULT:      -7.4      4.554      8.469
REMARK  6 active torsions:
REMARK  status: ('A' for Active; 'I' for Inactive)
REMARK    1  A    between atoms: O1_2  and  C2_3 
REMARK    2  A    between atoms: C5_6  and  C6_7 
REMARK       I    between atoms: C6_7  and  N1_9 
REMARK    3  A    between atoms: N1_9  and  C7_10 
REMARK    4  A    between atoms: C7_10  and  C8_11 
REMARK    5  A    between atoms: C8_11  and  O3_13 
REMARK    6  A    between atoms: C12_17  and  C13_18 
ROOT
HETATM    1  C2  UNL     1      21.961   0.434  52.687  1.00  0.00     0.076 C 
HETATM    2  C3  UNL     1      20.689   0.599  52.370  1.00  0.00     0.040 C 
HETATM    3  C4  UNL     1      20.270   1.881  51.817  1.00  0.00     0.045 C 
HETATM    4  C5  UNL     1      20.763   3.108  51.861  1.00  0.00     0.136 C 
HETATM    5  O4  UNL     1      21.945   3.304  52.573  1.00  0.00    -0.341 OA
HETATM    6  C10 UNL     1      23.206   2.699  52.561  1.00  0.00     0.217 C 
HETATM    7  C11 UNL     1      23.208   1.230  52.645  1.00  0.00     0.000 C 
HETATM    8  C12 UNL     1      24.316   0.533  52.682  1.00  0.00     0.024 C 
ENDROOT
BRANCH   1   9
HETATM    9  O1  UNL     1      22.123  -0.863  53.194  1.00  0.00    -0.355 OA
HETATM   10  C1  UNL     1      21.203  -1.306  54.149  1.00  0.00     0.210 C 
ENDBRANCH   1   9
BRANCH   8  11
HETATM   11  C13 UNL     1      25.766   0.499  52.685  1.00  0.00    -0.029 C 
HETATM   12  C14 UNL     1      26.362  -0.596  53.121  1.00  0.00     0.014 C 
HETATM   13  C15 UNL     1      27.771  -1.006  53.278  1.00  0.00     0.024 C 
HETATM   14  C16 UNL     1      28.787  -0.198  53.557  1.00  0.00     0.034 C 
HETATM   15 CL1  UNL     1      30.357  -1.038  53.675  1.00  0.00    -0.084 Cl
HETATM   16  C17 UNL     1      28.882   1.238  53.788  1.00  0.00     0.025 C 
HETATM   17  C18 UNL     1      28.125   2.180  53.257  1.00  0.00     0.010 C 
HETATM   18  P1  UNL     1      26.743   1.953  52.082  1.00  0.00    -0.072 P 
HETATM   19  H21 UNL     1      27.327   1.528  50.806  1.00  0.00     0.066 HD
ENDBRANCH   8  11
BRANCH   4  20
HETATM   20  C6  UNL     1      20.031   4.158  51.161  1.00  0.00     0.274 C 
HETATM   21  O2  UNL     1      18.794   4.055  51.181  1.00  0.00    -0.265 OA
HETATM   22  N1  UNL     1      20.744   5.200  50.518  1.00  0.00    -0.353 N 
HETATM   23  H6  UNL     1      21.805   5.159  50.583  1.00  0.00     0.162 HD
BRANCH  22  24
HETATM   24  C7  UNL     1      20.074   6.266  49.809  1.00  0.00     0.154 C 
BRANCH  24  25
HETATM   25  C8  UNL     1      20.900   7.527  49.945  1.00  0.00     0.132 C 
HETATM   26  C9  UNL     1      20.001   8.752  49.939  1.00  0.00     0.041 C 
BRANCH  25  27
HETATM   27  O3  UNL     1      21.593   7.496  51.161  1.00  0.00    -0.394 OA
HETATM   28  H13 UNL     1      21.969   8.389  51.344  1.00  0.00     0.210 HD
ENDBRANCH  25  27
ENDBRANCH  24  25
ENDBRANCH  22  24
ENDBRANCH   4  20
TORSDOF 6
ENDMDL
MODEL 8
REMARK VINA RESULT:      -7.3      4.460      8.019
REMARK  6 active torsions:
REMARK  status: ('A' for Active; 'I' for Inactive)
REMARK    1  A    between atoms: O1_2  and  C2_3 
REMARK    2  A    between atoms: C5_6  and  C6_7 
REMARK       I    between atoms: C6_7  and  N1_9 
REMARK    3  A    between atoms: N1_9  and  C7_10 
REMARK    4  A    between atoms: C7_10  and  C8_11 
REMARK    5  A    between atoms: C8_11  and  O3_13 
REMARK    6  A    between atoms: C12_17  and  C13_18 
ROOT
HETATM    1  C2  UNL     1      25.640   0.600  52.426  1.00  0.00     0.076 C 
HETATM    2  C3  UNL     1      25.286  -0.510  53.049  1.00  0.00     0.040 C 
HETATM    3  C4  UNL     1      23.882  -0.698  53.391  1.00  0.00     0.045 C 
HETATM    4  C5  UNL     1      22.859   0.122  53.569  1.00  0.00     0.136 C 
HETATM    5  O4  UNL     1      23.091   1.488  53.409  1.00  0.00    -0.341 OA
HETATM    6  C10 UNL     1      23.664   2.271  52.402  1.00  0.00     0.217 C 
HETATM    7  C11 UNL     1      24.981   1.826  51.921  1.00  0.00     0.000 C 
HETATM    8  C12 UNL     1      25.652   2.483  51.009  1.00  0.00     0.024 C 
ENDROOT
BRANCH   1   9
HETATM    9  O1  UNL     1      27.023   0.558  52.204  1.00  0.00    -0.355 OA
HETATM   10  C1  UNL     1      27.859   0.504  53.324  1.00  0.00     0.210 C 
ENDBRANCH   1   9
BRANCH   8  11
HETATM   11  C13 UNL     1      25.745   3.615  50.105  1.00  0.00    -0.029 C 
HETATM   12  C14 UNL     1      26.931   3.920  49.610  1.00  0.00     0.014 C 
HETATM   13  C15 UNL     1      27.422   4.964  48.691  1.00  0.00     0.024 C 
HETATM   14  C16 UNL     1      26.925   6.189  48.572  1.00  0.00     0.034 C 
HETATM   15 CL1  UNL     1      27.768   7.190  47.360  1.00  0.00    -0.084 Cl
HETATM   16  C17 UNL     1      25.827   6.886  49.233  1.00  0.00     0.025 C 
HETATM   17  C18 UNL     1      24.715   6.352  49.703  1.00  0.00     0.010 C 
HETATM   18  P1  UNL     1      24.234   4.589  49.659  1.00  0.00    -0.072 P 
HETATM   19  H21 UNL     1      23.953   4.253  48.259  1.00  0.00     0.066 HD
ENDBRANCH   8  11
BRANCH   4  20
HETATM   20  C6  UNL     1      21.569  -0.465  53.916  1.00  0.00     0.274 C 
HETATM   21  O2  UNL     1      21.528  -1.061  55.005  1.00  0.00    -0.265 OA
HETATM   22  N1  UNL     1      20.475  -0.331  53.027  1.00  0.00    -0.353 N 
HETATM   23  H6  UNL     1      20.658   0.207  52.128  1.00  0.00     0.162 HD
BRANCH  22  24
HETATM   24  C7  UNL     1      19.176  -0.892  53.317  1.00  0.00     0.154 C 
BRANCH  24  25
HETATM   25  C8  UNL     1      18.158  -0.247  52.401  1.00  0.00     0.132 C 
HETATM   26  C9  UNL     1      18.815   0.193  51.103  1.00  0.00     0.041 C 
BRANCH  25  27
HETATM   27  O3  UNL     1      17.158  -1.177  52.095  1.00  0.00    -0.394 OA
HETATM   28  H13 UNL     1      17.439  -1.711  51.316  1.00  0.00     0.210 HD
ENDBRANCH  25  27
ENDBRANCH  24  25
ENDBRANCH  22  24
ENDBRANCH   4  20
TORSDOF 6
ENDMDL
MODEL 9
REMARK VINA RESULT:      -7.2      4.763      8.415
REMARK  6 active torsions:
REMARK  status: ('A' for Active; 'I' for Inactive)
REMARK    1  A    between atoms: O1_2  and  C2_3 
REMARK    2  A    between atoms: C5_6  and  C6_7 
REMARK       I    between atoms: C6_7  and  N1_9 
REMARK    3  A    between atoms: N1_9  and  C7_10 
REMARK    4  A    between atoms: C7_10  and  C8_11 
REMARK    5  A    between atoms: C8_11  and  O3_13 
REMARK    6  A    between atoms: C12_17  and  C13_18 
ROOT
HETATM    1  C2  UNL     1      24.854   1.731  51.965  1.00  0.00     0.076 C 
HETATM    2  C3  UNL     1      24.170   0.737  52.503  1.00  0.00     0.040 C 
HETATM    3  C4  UNL     1      22.714   0.809  52.492  1.00  0.00     0.045 C 
HETATM    4  C5  UNL     1      21.841   1.798  52.394  1.00  0.00     0.136 C 
HETATM    5  O4  UNL     1      22.343   3.093  52.269  1.00  0.00    -0.341 OA
HETATM    6  C10 UNL     1      23.271   3.704  51.419  1.00  0.00     0.217 C 
HETATM    7  C11 UNL     1      24.564   3.015  51.287  1.00  0.00     0.000 C 
HETATM    8  C12 UNL     1      25.541   3.492  50.557  1.00  0.00     0.024 C 
ENDROOT
BRANCH   1   9
HETATM    9  O1  UNL     1      26.221   1.444  52.093  1.00  0.00    -0.355 OA
HETATM   10  C1  UNL     1      26.609   0.102  52.042  1.00  0.00     0.210 C 
ENDBRANCH   1   9
BRANCH   8  11
HETATM   11  C13 UNL     1      26.047   4.533  49.681  1.00  0.00    -0.029 C 
HETATM   12  C14 UNL     1      27.274   4.406  49.209  1.00  0.00     0.014 C 
HETATM   13  C15 UNL     1      28.121   5.224  48.321  1.00  0.00     0.024 C 
HETATM   14  C16 UNL     1      28.093   6.547  48.224  1.00  0.00     0.034 C 
HETATM   15 CL1  UNL     1      29.261   7.205  47.046  1.00  0.00    -0.084 Cl
HETATM   16  C17 UNL     1      27.302   7.577  48.887  1.00  0.00     0.025 C 
HETATM   17  C18 UNL     1      26.063   7.464  49.330  1.00  0.00     0.010 C 
HETATM   18  P1  UNL     1      24.989   5.988  49.239  1.00  0.00    -0.072 P 
HETATM   19  H21 UNL     1      24.635   5.798  47.828  1.00  0.00     0.066 HD
ENDBRANCH   8  11
BRANCH   4  20
HETATM   20  C6  UNL     1      20.423   1.457  52.423  1.00  0.00     0.274 C 
HETATM   21  O2  UNL     1      19.649   2.401  52.649  1.00  0.00    -0.265 OA
HETATM   22  N1  UNL     1      20.018   0.117  52.201  1.00  0.00    -0.353 N 
HETATM   23  H6  UNL     1      20.794  -0.587  52.020  1.00  0.00     0.162 HD
BRANCH  22  24
HETATM   24  C7  UNL     1      18.630  -0.279  52.220  1.00  0.00     0.154 C 
BRANCH  24  25
HETATM   25  C8  UNL     1      18.367  -1.050  53.496  1.00  0.00     0.132 C 
HETATM   26  C9  UNL     1      17.448  -2.229  53.222  1.00  0.00     0.041 C 
BRANCH  25  27
HETATM   27  O3  UNL     1      19.578  -1.541  53.995  1.00  0.00    -0.394 OA
HETATM   28  H13 UNL     1      20.132  -1.862  53.246  1.00  0.00     0.210 HD
ENDBRANCH  25  27
ENDBRANCH  24  25
ENDBRANCH  22  24
ENDBRANCH   4  20
TORSDOF 6
ENDMDL
