MODEL 1
REMARK VINA RESULT:      -8.5      0.000      0.000
REMARK  8 active torsions:
REMARK  status: ('A' for Active; 'I' for Inactive)
REMARK    1  A    between atoms: C6_9  and  C7_10 
REMARK    2  A    between atoms: C7_10  and  C8_11 
REMARK    3  A    between atoms: C9_12  and  C10_13 
REMARK    4  A    between atoms: C10_13  and  O1_14 
REMARK    5  A    between atoms: O1_14  and  C11_15 
REMARK    6  A    between atoms: C11_15  and  C12_16 
REMARK    7  A    between atoms: C19_24  and  C20_25 
REMARK    8  A    between atoms: C20_25  and  N4_26 
REMARK       I    between atoms: N4_26  and  C21_27 
ROOT
HETATM    1  C1  UNL     1      28.774   2.592  53.737  1.00  0.00     0.071 C 
HETATM    2  C2  UNL     1      28.226   1.497  53.183  1.00  0.00     0.130 C 
HETATM    3  N1  UNL     1      29.165   0.637  53.792  1.00  0.00    -0.353 NA
HETATM    4  C3  UNL     1      29.478  -0.559  53.494  1.00  0.00     0.399 C 
HETATM    5  N2  UNL     1      29.529  -1.864  52.830  1.00  0.00    -0.272 N 
HETATM    6  N3  UNL     1      28.363  -2.555  53.182  1.00  0.00    -0.186 NA
HETATM    7  C4  UNL     1      27.210  -2.009  53.188  1.00  0.00     0.139 C 
HETATM    8  C5  UNL     1      25.898  -1.316  53.173  1.00  0.00     0.031 C 
HETATM    9  C6  UNL     1      25.208  -0.222  52.968  1.00  0.00    -0.020 C 
HETATM   10  C18 UNL     1      25.872   0.994  52.573  1.00  0.00     0.082 C 
HETATM   11  C19 UNL     1      24.981   1.992  52.413  1.00  0.00     0.030 C 
HETATM   12  O3  UNL     1      27.174   1.274  52.351  1.00  0.00    -0.295 OA
HETATM   13  H4  UNL     1      30.428  -1.483  52.482  1.00  0.00     0.190 HD
ENDROOT
BRANCH   9  14
HETATM   14  C7  UNL     1      23.771  -0.411  53.204  1.00  0.00     0.068 C 
BRANCH  14  15
HETATM   15  C8  UNL     1      23.456  -0.821  54.591  1.00  0.00    -0.024 C 
HETATM   16  C9  UNL     1      22.228  -1.282  54.903  1.00  0.00    -0.005 C 
BRANCH  16  17
HETATM   17  C10 UNL     1      20.978  -1.509  54.139  1.00  0.00     0.195 C 
BRANCH  17  18
HETATM   18  O1  UNL     1      20.282  -0.297  54.101  1.00  0.00    -0.383 OA
BRANCH  18  19
HETATM   19  C11 UNL     1      19.603  -0.146  52.886  1.00  0.00     0.206 C 
BRANCH  19  20
HETATM   20  C12 UNL     1      20.449   0.717  52.024  1.00  0.00    -0.032 A 
HETATM   21  C13 UNL     1      21.008   0.361  50.812  1.00  0.00     0.009 A 
HETATM   22  C14 UNL     1      21.773   1.266  50.090  1.00  0.00     0.004 A 
HETATM   23  C15 UNL     1      21.972   2.534  50.593  1.00  0.00     0.042 A 
HETATM   24  C16 UNL     1      21.421   2.885  51.785  1.00  0.00     0.117 A 
HETATM   25  F1  UNL     1      21.678   4.159  52.189  1.00  0.00    -0.206 F 
HETATM   26  C17 UNL     1      20.665   2.008  52.512  1.00  0.00     0.051 A 
ENDBRANCH  19  20
ENDBRANCH  18  19
ENDBRANCH  17  18
ENDBRANCH  16  17
ENDBRANCH  14  15
ENDBRANCH   9  14
BRANCH  11  27
HETATM   27  C20 UNL     1      25.235   3.400  52.016  1.00  0.00     0.152 C 
BRANCH  27  28
HETATM   28  N4  UNL     1      26.180   3.527  50.924  1.00  0.00    -0.358 N 
HETATM   29  C21 UNL     1      26.250   4.498  49.896  1.00  0.00     0.213 C 
HETATM   30  C22 UNL     1      27.336   4.440  48.850  1.00  0.00     0.117 C 
HETATM   31  O2  UNL     1      25.377   5.395  49.900  1.00  0.00    -0.274 OA
HETATM   32  H22 UNL     1      26.955   2.798  50.845  1.00  0.00     0.162 HD
ENDBRANCH  27  28
ENDBRANCH  11  27
TORSDOF 8
ENDMDL
MODEL 2
REMARK VINA RESULT:      -8.1      2.025      4.780
REMARK  8 active torsions:
REMARK  status: ('A' for Active; 'I' for Inactive)
REMARK    1  A    between atoms: C6_9  and  C7_10 
REMARK    2  A    between atoms: C7_10  and  C8_11 
REMARK    3  A    between atoms: C9_12  and  C10_13 
REMARK    4  A    between atoms: C10_13  and  O1_14 
REMARK    5  A    between atoms: O1_14  and  C11_15 
REMARK    6  A    between atoms: C11_15  and  C12_16 
REMARK    7  A    between atoms: C19_24  and  C20_25 
REMARK    8  A    between atoms: C20_25  and  N4_26 
REMARK       I    between atoms: N4_26  and  C21_27 
ROOT
HETATM    1  C1  UNL     1      26.611   3.151  49.687  1.00  0.00     0.071 C 
HETATM    2  C2  UNL     1      25.783   3.246  50.741  1.00  0.00     0.130 C 
HETATM    3  N1  UNL     1      25.161   4.407  50.232  1.00  0.00    -0.353 NA
HETATM    4  C3  UNL     1      24.455   5.276  50.836  1.00  0.00     0.399 C 
HETATM    5  N2  UNL     1      23.733   6.006  51.880  1.00  0.00    -0.272 N 
HETATM    6  N3  UNL     1      22.578   5.272  52.179  1.00  0.00    -0.186 NA
HETATM    7  C4  UNL     1      22.584   4.004  52.327  1.00  0.00     0.139 C 
HETATM    8  C5  UNL     1      22.657   2.532  52.487  1.00  0.00     0.031 C 
HETATM    9  C6  UNL     1      23.374   1.435  52.480  1.00  0.00    -0.020 C 
HETATM   10  C18 UNL     1      24.782   1.488  52.181  1.00  0.00     0.082 C 
HETATM   11  C19 UNL     1      25.326   0.256  52.229  1.00  0.00     0.030 C 
HETATM   12  O3  UNL     1      25.597   2.521  51.876  1.00  0.00    -0.295 OA
HETATM   13  H4  UNL     1      24.536   6.652  51.773  1.00  0.00     0.190 HD
ENDROOT
BRANCH   9  14
HETATM   14  C7  UNL     1      22.576   0.239  52.780  1.00  0.00     0.068 C 
BRANCH  14  15
HETATM   15  C8  UNL     1      21.601   0.447  53.874  1.00  0.00    -0.024 C 
HETATM   16  C9  UNL     1      20.284   0.255  53.659  1.00  0.00    -0.005 C 
BRANCH  16  17
HETATM   17  C10 UNL     1      19.470  -0.150  52.489  1.00  0.00     0.195 C 
BRANCH  17  18
HETATM   18  O1  UNL     1      19.036   1.017  51.853  1.00  0.00    -0.383 OA
BRANCH  18  19
HETATM   19  C11 UNL     1      18.950   0.833  50.468  1.00  0.00     0.206 C 
BRANCH  19  20
HETATM   20  C12 UNL     1      20.098   1.556  49.865  1.00  0.00    -0.032 A 
HETATM   21  C13 UNL     1      21.263   0.985  49.391  1.00  0.00     0.009 A 
HETATM   22  C14 UNL     1      22.262   1.770  48.834  1.00  0.00     0.004 A 
HETATM   23  C15 UNL     1      22.084   3.135  48.754  1.00  0.00     0.042 A 
HETATM   24  C16 UNL     1      20.937   3.696  49.219  1.00  0.00     0.117 A 
HETATM   25  F1  UNL     1      20.861   5.049  49.091  1.00  0.00    -0.206 F 
HETATM   26  C17 UNL     1      19.940   2.940  49.772  1.00  0.00     0.051 A 
ENDBRANCH  19  20
ENDBRANCH  18  19
ENDBRANCH  17  18
ENDBRANCH  16  17
ENDBRANCH  14  15
ENDBRANCH   9  14
BRANCH  11  27
HETATM   27  C20 UNL     1      26.736  -0.141  51.987  1.00  0.00     0.152 C 
BRANCH  27  28
HETATM   28  N4  UNL     1      27.695   0.711  52.662  1.00  0.00    -0.358 N 
HETATM   29  C21 UNL     1      28.261   0.588  53.955  1.00  0.00     0.213 C 
HETATM   30  C22 UNL     1      29.257   1.602  54.462  1.00  0.00     0.117 C 
HETATM   31  O2  UNL     1      27.897  -0.391  54.645  1.00  0.00    -0.274 OA
HETATM   32  H22 UNL     1      28.053   1.572  52.144  1.00  0.00     0.162 HD
ENDBRANCH  27  28
ENDBRANCH  11  27
TORSDOF 8
ENDMDL
MODEL 3
REMARK VINA RESULT:      -8.0      3.737      6.269
REMARK  8 active torsions:
REMARK  status: ('A' for Active; 'I' for Inactive)
REMARK    1  A    between atoms: C6_9  and  C7_10 
REMARK    2  A    between atoms: C7_10  and  C8_11 
REMARK    3  A    between atoms: C9_12  and  C10_13 
REMARK    4  A    between atoms: C10_13  and  O1_14 
REMARK    5  A    between atoms: O1_14  and  C11_15 
REMARK    6  A    between atoms: C11_15  and  C12_16 
REMARK    7  A    between atoms: C19_24  and  C20_25 
REMARK    8  A    between atoms: C20_25  and  N4_26 
REMARK       I    between atoms: N4_26  and  C21_27 
ROOT
HETATM    1  C1  UNL     1      24.169   7.009  47.610  1.00  0.00     0.071 C 
HETATM    2  C2  UNL     1      24.317   6.487  48.840  1.00  0.00     0.130 C 
HETATM    3  N1  UNL     1      22.927   6.495  49.083  1.00  0.00    -0.353 NA
HETATM    4  C3  UNL     1      22.299   6.419  50.187  1.00  0.00     0.399 C 
HETATM    5  N2  UNL     1      21.999   6.313  51.617  1.00  0.00    -0.272 N 
HETATM    6  N3  UNL     1      22.264   4.992  52.001  1.00  0.00    -0.186 NA
HETATM    7  C4  UNL     1      23.310   4.362  51.631  1.00  0.00     0.139 C 
HETATM    8  C5  UNL     1      24.546   3.684  51.169  1.00  0.00     0.031 C 
HETATM    9  C6  UNL     1      25.658   3.725  50.478  1.00  0.00    -0.020 C 
HETATM   10  C18 UNL     1      26.012   4.909  49.738  1.00  0.00     0.082 C 
HETATM   11  C19 UNL     1      27.189   4.741  49.104  1.00  0.00     0.030 C 
HETATM   12  O3  UNL     1      25.383   6.095  49.587  1.00  0.00    -0.295 OA
HETATM   13  H4  UNL     1      21.763   7.314  51.487  1.00  0.00     0.190 HD
ENDROOT
BRANCH   9  14
HETATM   14  C7  UNL     1      26.415   2.470  50.555  1.00  0.00     0.068 C 
BRANCH  14  15
HETATM   15  C8  UNL     1      27.049   2.249  51.875  1.00  0.00    -0.024 C 
HETATM   16  C9  UNL     1      27.061   1.020  52.429  1.00  0.00    -0.005 C 
BRANCH  16  17
HETATM   17  C10 UNL     1      26.550  -0.309  52.019  1.00  0.00     0.195 C 
BRANCH  17  18
HETATM   18  O1  UNL     1      25.891  -0.865  53.120  1.00  0.00    -0.383 OA
BRANCH  18  19
HETATM   19  C11 UNL     1      25.219   0.119  53.854  1.00  0.00     0.206 C 
BRANCH  19  20
HETATM   20  C12 UNL     1      23.780   0.009  53.506  1.00  0.00    -0.032 A 
HETATM   21  C13 UNL     1      23.135   0.675  52.482  1.00  0.00     0.009 A 
HETATM   22  C14 UNL     1      21.782   0.476  52.248  1.00  0.00     0.004 A 
HETATM   23  C15 UNL     1      21.079  -0.397  53.050  1.00  0.00     0.042 A 
HETATM   24  C16 UNL     1      21.714  -1.052  54.057  1.00  0.00     0.117 A 
HETATM   25  F1  UNL     1      20.928  -1.892  54.787  1.00  0.00    -0.206 F 
HETATM   26  C17 UNL     1      23.046  -0.871  54.305  1.00  0.00     0.051 A 
ENDBRANCH  19  20
ENDBRANCH  18  19
ENDBRANCH  17  18
ENDBRANCH  16  17
ENDBRANCH  14  15
ENDBRANCH   9  14
BRANCH  11  27
HETATM   27  C20 UNL     1      27.916   5.702  48.237  1.00  0.00     0.152 C 
BRANCH  27  28
HETATM   28  N4  UNL     1      28.358   6.889  48.941  1.00  0.00    -0.358 N 
HETATM   29  C21 UNL     1      28.054   8.251  48.700  1.00  0.00     0.213 C 
HETATM   30  C22 UNL     1      28.630   9.339  49.572  1.00  0.00     0.117 C 
HETATM   31  O2  UNL     1      27.292   8.502  47.739  1.00  0.00    -0.274 OA
HETATM   32  H22 UNL     1      29.016   6.764  49.772  1.00  0.00     0.162 HD
ENDBRANCH  27  28
ENDBRANCH  11  27
TORSDOF 8
ENDMDL
MODEL 4
REMARK VINA RESULT:      -7.9      3.162      6.376
REMARK  8 active torsions:
REMARK  status: ('A' for Active; 'I' for Inactive)
REMARK    1  A    between atoms: C6_9  and  C7_10 
REMARK    2  A    between atoms: C7_10  and  C8_11 
REMARK    3  A    between atoms: C9_12  and  C10_13 
REMARK    4  A    between atoms: C10_13  and  O1_14 
REMARK    5  A    between atoms: O1_14  and  C11_15 
REMARK    6  A    between atoms: C11_15  and  C12_16 
REMARK    7  A    between atoms: C19_24  and  C20_25 
REMARK    8  A    between atoms: C20_25  and  N4_26 
REMARK       I    between atoms: N4_26  and  C21_27 
ROOT
HETATM    1  C1  UNL     1      22.637  -1.609  55.320  1.00  0.00     0.071 C 
HETATM    2  C2  UNL     1      22.388  -0.936  54.183  1.00  0.00     0.130 C 
HETATM    3  N1  UNL     1      21.014  -0.809  54.480  1.00  0.00    -0.353 NA
HETATM    4  C3  UNL     1      20.041  -0.539  53.706  1.00  0.00     0.399 C 
HETATM    5  N2  UNL     1      19.256  -0.216  52.512  1.00  0.00    -0.272 N 
HETATM    6  N3  UNL     1      19.518   1.122  52.190  1.00  0.00    -0.186 NA
HETATM    7  C4  UNL     1      20.693   1.618  52.201  1.00  0.00     0.139 C 
HETATM    8  C5  UNL     1      22.083   2.135  52.231  1.00  0.00     0.031 C 
HETATM    9  C6  UNL     1      23.357   1.920  52.446  1.00  0.00    -0.020 C 
HETATM   10  C18 UNL     1      23.813   0.623  52.877  1.00  0.00     0.082 C 
HETATM   11  C19 UNL     1      25.151   0.618  53.036  1.00  0.00     0.030 C 
HETATM   12  O3  UNL     1      23.147  -0.524  53.133  1.00  0.00    -0.295 OA
HETATM   13  H4  UNL     1      18.967  -1.206  52.620  1.00  0.00     0.190 HD
ENDROOT
BRANCH   9  14
HETATM   14  C7  UNL     1      24.177   3.116  52.216  1.00  0.00     0.068 C 
BRANCH  14  15
HETATM   15  C8  UNL     1      23.516   4.368  52.647  1.00  0.00    -0.024 C 
HETATM   16  C9  UNL     1      23.694   5.508  51.949  1.00  0.00    -0.005 C 
BRANCH  16  17
HETATM   17  C10 UNL     1      24.460   5.874  50.735  1.00  0.00     0.195 C 
BRANCH  17  18
HETATM   18  O1  UNL     1      23.583   5.806  49.647  1.00  0.00    -0.383 OA
BRANCH  18  19
HETATM   19  C11 UNL     1      23.835   4.669  48.869  1.00  0.00     0.206 C 
BRANCH  19  20
HETATM   20  C12 UNL     1      22.581   3.875  48.846  1.00  0.00    -0.032 A 
HETATM   21  C13 UNL     1      21.304   4.362  49.042  1.00  0.00     0.009 A 
HETATM   22  C14 UNL     1      20.205   3.517  48.982  1.00  0.00     0.004 A 
HETATM   23  C15 UNL     1      20.397   2.176  48.724  1.00  0.00     0.042 A 
HETATM   24  C16 UNL     1      21.654   1.698  48.531  1.00  0.00     0.117 A 
HETATM   25  F1  UNL     1      21.732   0.361  48.282  1.00  0.00    -0.206 F 
HETATM   26  C17 UNL     1      22.750   2.513  48.586  1.00  0.00     0.051 A 
ENDBRANCH  19  20
ENDBRANCH  18  19
ENDBRANCH  17  18
ENDBRANCH  16  17
ENDBRANCH  14  15
ENDBRANCH   9  14
BRANCH  11  27
HETATM   27  C20 UNL     1      26.025  -0.503  53.466  1.00  0.00     0.152 C 
BRANCH  27  28
HETATM   28  N4  UNL     1      27.430  -0.148  53.515  1.00  0.00    -0.358 N 
HETATM   29  C21 UNL     1      28.576  -0.975  53.421  1.00  0.00     0.213 C 
HETATM   30  C22 UNL     1      29.962  -0.386  53.494  1.00  0.00     0.117 C 
HETATM   31  O2  UNL     1      28.381  -2.203  53.277  1.00  0.00    -0.274 OA
HETATM   32  H22 UNL     1      27.683   0.881  53.641  1.00  0.00     0.162 HD
ENDBRANCH  27  28
ENDBRANCH  11  27
TORSDOF 8
ENDMDL
MODEL 5
REMARK VINA RESULT:      -7.9      3.572      7.836
REMARK  8 active torsions:
REMARK  status: ('A' for Active; 'I' for Inactive)
REMARK    1  A    between atoms: C6_9  and  C7_10 
REMARK    2  A    between atoms: C7_10  and  C8_11 
REMARK    3  A    between atoms: C9_12  and  C10_13 
REMARK    4  A    between atoms: C10_13  and  O1_14 
REMARK    5  A    between atoms: O1_14  and  C11_15 
REMARK    6  A    between atoms: C11_15  and  C12_16 
REMARK    7  A    between atoms: C19_24  and  C20_25 
REMARK    8  A    between atoms: C20_25  and  N4_26 
REMARK       I    between atoms: N4_26  and  C21_27 
ROOT
HETATM    1  C1  UNL     1      22.699  -1.634  55.197  1.00  0.00     0.071 C 
HETATM    2  C2  UNL     1      22.441  -0.902  54.100  1.00  0.00     0.130 C 
HETATM    3  N1  UNL     1      21.083  -0.738  54.447  1.00  0.00    -0.353 NA
HETATM    4  C3  UNL     1      20.098  -0.397  53.717  1.00  0.00     0.399 C 
HETATM    5  N2  UNL     1      19.289   0.008  52.565  1.00  0.00    -0.272 N 
HETATM    6  N3  UNL     1      19.593   1.348  52.293  1.00  0.00    -0.186 NA
HETATM    7  C4  UNL     1      20.786   1.799  52.287  1.00  0.00     0.139 C 
HETATM    8  C5  UNL     1      22.195   2.262  52.293  1.00  0.00     0.031 C 
HETATM    9  C6  UNL     1      23.466   1.989  52.457  1.00  0.00    -0.020 C 
HETATM   10  C18 UNL     1      23.885   0.659  52.816  1.00  0.00     0.082 C 
HETATM   11  C19 UNL     1      25.226   0.596  52.931  1.00  0.00     0.030 C 
HETATM   12  O3  UNL     1      23.183  -0.473  53.044  1.00  0.00    -0.295 OA
HETATM   13  H4  UNL     1      18.966  -0.974  52.639  1.00  0.00     0.190 HD
ENDROOT
BRANCH   9  14
HETATM   14  C7  UNL     1      24.324   3.163  52.252  1.00  0.00     0.068 C 
BRANCH  14  15
HETATM   15  C8  UNL     1      24.168   3.775  50.914  1.00  0.00    -0.024 C 
HETATM   16  C9  UNL     1      25.155   3.677  50.000  1.00  0.00    -0.005 C 
BRANCH  16  17
HETATM   17  C10 UNL     1      26.498   3.052  49.984  1.00  0.00     0.195 C 
BRANCH  17  18
HETATM   18  O1  UNL     1      27.267   3.730  49.033  1.00  0.00    -0.383 OA
BRANCH  18  19
HETATM   19  C11 UNL     1      26.825   5.049  48.877  1.00  0.00     0.206 C 
BRANCH  19  20
HETATM   20  C12 UNL     1      27.982   5.836  48.380  1.00  0.00    -0.032 A 
HETATM   21  C13 UNL     1      29.258   5.357  48.156  1.00  0.00     0.009 A 
HETATM   22  C14 UNL     1      30.256   6.194  47.675  1.00  0.00     0.004 A 
HETATM   23  C15 UNL     1      29.962   7.516  47.419  1.00  0.00     0.042 A 
HETATM   24  C16 UNL     1      28.707   7.987  47.639  1.00  0.00     0.117 A 
HETATM   25  F1  UNL     1      28.524   9.305  47.352  1.00  0.00    -0.206 F 
HETATM   26  C17 UNL     1      27.710   7.180  48.113  1.00  0.00     0.051 A 
ENDBRANCH  19  20
ENDBRANCH  18  19
ENDBRANCH  17  18
ENDBRANCH  16  17
ENDBRANCH  14  15
ENDBRANCH   9  14
BRANCH  11  27
HETATM   27  C20 UNL     1      26.069  -0.575  53.283  1.00  0.00     0.152 C 
BRANCH  27  28
HETATM   28  N4  UNL     1      27.477  -0.252  53.401  1.00  0.00    -0.358 N 
HETATM   29  C21 UNL     1      28.605  -1.109  53.395  1.00  0.00     0.213 C 
HETATM   30  C22 UNL     1      30.000  -0.551  53.530  1.00  0.00     0.117 C 
HETATM   31  O2  UNL     1      28.388  -2.335  53.272  1.00  0.00    -0.274 OA
HETATM   32  H22 UNL     1      27.749   0.773  53.514  1.00  0.00     0.162 HD
ENDBRANCH  27  28
ENDBRANCH  11  27
TORSDOF 8
ENDMDL
MODEL 6
REMARK VINA RESULT:      -7.8      2.562      3.893
REMARK  8 active torsions:
REMARK  status: ('A' for Active; 'I' for Inactive)
REMARK    1  A    between atoms: C6_9  and  C7_10 
REMARK    2  A    between atoms: C7_10  and  C8_11 
REMARK    3  A    between atoms: C9_12  and  C10_13 
REMARK    4  A    between atoms: C10_13  and  O1_14 
REMARK    5  A    between atoms: O1_14  and  C11_15 
REMARK    6  A    between atoms: C11_15  and  C12_16 
REMARK    7  A    between atoms: C19_24  and  C20_25 
REMARK    8  A    between atoms: C20_25  and  N4_26 
REMARK       I    between atoms: N4_26  and  C21_27 
ROOT
HETATM    1  C1  UNL     1      28.115   2.382  53.608  1.00  0.00     0.071 C 
HETATM    2  C2  UNL     1      27.062   1.630  53.246  1.00  0.00     0.130 C 
HETATM    3  N1  UNL     1      26.932   1.073  54.537  1.00  0.00    -0.353 NA
HETATM    4  C3  UNL     1      26.319   0.021  54.905  1.00  0.00     0.399 C 
HETATM    5  N2  UNL     1      25.525  -1.210  54.887  1.00  0.00    -0.272 N 
HETATM    6  N3  UNL     1      24.189  -0.840  54.690  1.00  0.00    -0.186 NA
HETATM    7  C4  UNL     1      23.832   0.032  53.830  1.00  0.00     0.139 C 
HETATM    8  C5  UNL     1      23.482   1.053  52.813  1.00  0.00     0.031 C 
HETATM    9  C6  UNL     1      23.870   1.894  51.886  1.00  0.00    -0.020 C 
HETATM   10  C18 UNL     1      25.269   2.045  51.579  1.00  0.00     0.082 C 
HETATM   11  C19 UNL     1      25.447   2.953  50.600  1.00  0.00     0.030 C 
HETATM   12  O3  UNL     1      26.370   1.451  52.090  1.00  0.00    -0.295 OA
HETATM   13  H4  UNL     1      26.459  -1.635  55.034  1.00  0.00     0.190 HD
ENDROOT
BRANCH   9  14
HETATM   14  C7  UNL     1      22.746   2.615  51.275  1.00  0.00     0.068 C 
BRANCH  14  15
HETATM   15  C8  UNL     1      22.317   3.797  52.054  1.00  0.00    -0.024 C 
HETATM   16  C9  UNL     1      21.063   4.277  51.931  1.00  0.00    -0.005 C 
BRANCH  16  17
HETATM   17  C10 UNL     1      19.876   3.889  51.134  1.00  0.00     0.195 C 
BRANCH  17  18
HETATM   18  O1  UNL     1      19.021   3.170  51.974  1.00  0.00    -0.383 OA
BRANCH  18  19
HETATM   19  C11 UNL     1      18.451   2.083  51.300  1.00  0.00     0.206 C 
BRANCH  19  20
HETATM   20  C12 UNL     1      18.781   0.867  52.086  1.00  0.00    -0.032 A 
HETATM   21  C13 UNL     1      19.943   0.647  52.799  1.00  0.00     0.009 A 
HETATM   22  C14 UNL     1      20.128  -0.531  53.508  1.00  0.00     0.004 A 
HETATM   23  C15 UNL     1      19.137  -1.489  53.497  1.00  0.00     0.042 A 
HETATM   24  C16 UNL     1      17.993  -1.272  52.797  1.00  0.00     0.117 A 
HETATM   25  F1  UNL     1      17.079  -2.279  52.854  1.00  0.00    -0.206 F 
HETATM   26  C17 UNL     1      17.791  -0.118  52.091  1.00  0.00     0.051 A 
ENDBRANCH  19  20
ENDBRANCH  18  19
ENDBRANCH  17  18
ENDBRANCH  16  17
ENDBRANCH  14  15
ENDBRANCH   9  14
BRANCH  11  27
HETATM   27  C20 UNL     1      26.718   3.411  49.984  1.00  0.00     0.152 C 
BRANCH  27  28
HETATM   28  N4  UNL     1      26.639   4.748  49.431  1.00  0.00    -0.358 N 
HETATM   29  C21 UNL     1      27.560   5.444  48.611  1.00  0.00     0.213 C 
HETATM   30  C22 UNL     1      27.269   6.848  48.142  1.00  0.00     0.117 C 
HETATM   31  O2  UNL     1      28.612   4.843  48.299  1.00  0.00    -0.274 OA
HETATM   32  H22 UNL     1      25.774   5.332  49.653  1.00  0.00     0.162 HD
ENDBRANCH  27  28
ENDBRANCH  11  27
TORSDOF 8
ENDMDL
MODEL 7
REMARK VINA RESULT:      -7.6      5.337      9.361
REMARK  8 active torsions:
REMARK  status: ('A' for Active; 'I' for Inactive)
REMARK    1  A    between atoms: C6_9  and  C7_10 
REMARK    2  A    between atoms: C7_10  and  C8_11 
REMARK    3  A    between atoms: C9_12  and  C10_13 
REMARK    4  A    between atoms: C10_13  and  O1_14 
REMARK    5  A    between atoms: O1_14  and  C11_15 
REMARK    6  A    between atoms: C11_15  and  C12_16 
REMARK    7  A    between atoms: C19_24  and  C20_25 
REMARK    8  A    between atoms: C20_25  and  N4_26 
REMARK       I    between atoms: N4_26  and  C21_27 
ROOT
HETATM    1  C1  UNL     1      32.566   9.595  47.398  1.00  0.00     0.071 C 
HETATM    2  C2  UNL     1      31.461   9.417  48.142  1.00  0.00     0.130 C 
HETATM    3  N1  UNL     1      30.997  10.725  47.885  1.00  0.00    -0.353 NA
HETATM    4  C3  UNL     1      30.128  11.411  48.511  1.00  0.00     0.399 C 
HETATM    5  N2  UNL     1      29.115  11.828  49.484  1.00  0.00    -0.272 N 
HETATM    6  N3  UNL     1      27.938  11.132  49.182  1.00  0.00    -0.186 NA
HETATM    7  C4  UNL     1      27.922   9.888  48.903  1.00  0.00     0.139 C 
HETATM    8  C5  UNL     1      27.971   8.439  48.586  1.00  0.00     0.031 C 
HETATM    9  C6  UNL     1      28.678   7.348  48.426  1.00  0.00    -0.020 C 
HETATM   10  C18 UNL     1      30.110   7.379  48.577  1.00  0.00     0.082 C 
HETATM   11  C19 UNL     1      30.637   6.156  48.373  1.00  0.00     0.030 C 
HETATM   12  O3  UNL     1      30.960   8.386  48.873  1.00  0.00    -0.295 OA
HETATM   13  H4  UNL     1      29.902  12.408  49.829  1.00  0.00     0.190 HD
ENDROOT
BRANCH   9  14
HETATM   14  C7  UNL     1      27.849   6.187  48.077  1.00  0.00     0.068 C 
BRANCH  14  15
HETATM   15  C8  UNL     1      26.580   6.126  48.836  1.00  0.00    -0.024 C 
HETATM   16  C9  UNL     1      26.162   4.961  49.372  1.00  0.00    -0.005 C 
BRANCH  16  17
HETATM   17  C10 UNL     1      26.697   3.580  49.403  1.00  0.00     0.195 C 
BRANCH  17  18
HETATM   18  O1  UNL     1      27.049   3.294  50.725  1.00  0.00    -0.383 OA
BRANCH  18  19
HETATM   19  C11 UNL     1      26.161   2.374  51.295  1.00  0.00     0.206 C 
BRANCH  19  20
HETATM   20  C12 UNL     1      26.963   1.491  52.179  1.00  0.00    -0.032 A 
HETATM   21  C13 UNL     1      26.877   0.115  52.253  1.00  0.00     0.009 A 
HETATM   22  C14 UNL     1      27.695  -0.602  53.115  1.00  0.00     0.004 A 
HETATM   23  C15 UNL     1      28.602   0.074  53.904  1.00  0.00     0.042 A 
HETATM   24  C16 UNL     1      28.687   1.428  53.830  1.00  0.00     0.117 A 
HETATM   25  F1  UNL     1      29.615   1.995  54.649  1.00  0.00    -0.206 F 
HETATM   26  C17 UNL     1      27.890   2.153  52.988  1.00  0.00     0.051 A 
ENDBRANCH  19  20
ENDBRANCH  18  19
ENDBRANCH  17  18
ENDBRANCH  16  17
ENDBRANCH  14  15
ENDBRANCH   9  14
BRANCH  11  27
HETATM   27  C20 UNL     1      32.063   5.744  48.429  1.00  0.00     0.152 C 
BRANCH  27  28
HETATM   28  N4  UNL     1      32.662   5.575  47.120  1.00  0.00    -0.358 N 
HETATM   29  C21 UNL     1      32.600   4.473  46.232  1.00  0.00     0.213 C 
HETATM   30  C22 UNL     1      33.307   4.513  44.900  1.00  0.00     0.117 C 
HETATM   31  O2  UNL     1      31.938   3.478  46.604  1.00  0.00    -0.274 OA
HETATM   32  H22 UNL     1      33.248   6.376  46.729  1.00  0.00     0.162 HD
ENDBRANCH  27  28
ENDBRANCH  11  27
TORSDOF 8
ENDMDL
MODEL 8
REMARK VINA RESULT:      -7.5      3.473      7.500
REMARK  8 active torsions:
REMARK  status: ('A' for Active; 'I' for Inactive)
REMARK    1  A    between atoms: C6_9  and  C7_10 
REMARK    2  A    between atoms: C7_10  and  C8_11 
REMARK    3  A    between atoms: C9_12  and  C10_13 
REMARK    4  A    between atoms: C10_13  and  O1_14 
REMARK    5  A    between atoms: O1_14  and  C11_15 
REMARK    6  A    between atoms: C11_15  and  C12_16 
REMARK    7  A    between atoms: C19_24  and  C20_25 
REMARK    8  A    between atoms: C20_25  and  N4_26 
REMARK       I    between atoms: N4_26  and  C21_27 
ROOT
HETATM    1  C1  UNL     1      18.880  -0.873  53.291  1.00  0.00     0.071 C 
HETATM    2  C2  UNL     1      20.049  -0.248  53.517  1.00  0.00     0.130 C 
HETATM    3  N1  UNL     1      20.683  -1.441  53.927  1.00  0.00    -0.353 NA
HETATM    4  C3  UNL     1      21.754  -1.598  54.596  1.00  0.00     0.399 C 
HETATM    5  N2  UNL     1      22.977  -1.329  55.356  1.00  0.00    -0.272 N 
HETATM    6  N3  UNL     1      23.944  -0.887  54.445  1.00  0.00    -0.186 NA
HETATM    7  C4  UNL     1      23.693  -0.037  53.527  1.00  0.00     0.139 C 
HETATM    8  C5  UNL     1      23.338   0.955  52.483  1.00  0.00     0.031 C 
HETATM    9  C6  UNL     1      22.434   1.719  51.920  1.00  0.00    -0.020 C 
HETATM   10  C18 UNL     1      21.078   1.719  52.404  1.00  0.00     0.082 C 
HETATM   11  C19 UNL     1      20.317   2.572  51.691  1.00  0.00     0.030 C 
HETATM   12  O3  UNL     1      20.481   1.035  53.405  1.00  0.00    -0.295 OA
HETATM   13  H4  UNL     1      22.374  -1.634  56.142  1.00  0.00     0.190 HD
ENDROOT
BRANCH   9  14
HETATM   14  C7  UNL     1      22.975   2.495  50.797  1.00  0.00     0.068 C 
BRANCH  14  15
HETATM   15  C8  UNL     1      23.634   3.752  51.219  1.00  0.00    -0.024 C 
HETATM   16  C9  UNL     1      24.932   3.971  50.928  1.00  0.00    -0.005 C 
BRANCH  16  17
HETATM   17  C10 UNL     1      25.984   3.202  50.223  1.00  0.00     0.195 C 
BRANCH  17  18
HETATM   18  O1  UNL     1      26.252   2.060  50.985  1.00  0.00    -0.383 OA
BRANCH  18  19
HETATM   19  C11 UNL     1      26.997   2.380  52.126  1.00  0.00     0.206 C 
BRANCH  19  20
HETATM   20  C12 UNL     1      27.617   1.119  52.605  1.00  0.00    -0.032 A 
HETATM   21  C13 UNL     1      28.746   1.013  53.393  1.00  0.00     0.009 A 
HETATM   22  C14 UNL     1      29.221  -0.230  53.788  1.00  0.00     0.004 A 
HETATM   23  C15 UNL     1      28.554  -1.367  53.386  1.00  0.00     0.042 A 
HETATM   24  C16 UNL     1      27.442  -1.262  52.612  1.00  0.00     0.117 A 
HETATM   25  F1  UNL     1      26.858  -2.445  52.273  1.00  0.00    -0.206 F 
HETATM   26  C17 UNL     1      26.957  -0.048  52.211  1.00  0.00     0.051 A 
ENDBRANCH  19  20
ENDBRANCH  18  19
ENDBRANCH  17  18
ENDBRANCH  16  17
ENDBRANCH  14  15
ENDBRANCH   9  14
BRANCH  11  27
HETATM   27  C20 UNL     1      18.873   2.878  51.851  1.00  0.00     0.152 C 
BRANCH  27  28
HETATM   28  N4  UNL     1      18.006   1.835  51.338  1.00  0.00    -0.358 N 
HETATM   29  C21 UNL     1      16.596   1.718  51.404  1.00  0.00     0.213 C 
HETATM   30  C22 UNL     1      15.891   0.534  50.791  1.00  0.00     0.117 C 
HETATM   31  O2  UNL     1      15.975   2.634  51.988  1.00  0.00    -0.274 OA
HETATM   32  H22 UNL     1      18.457   1.013  50.830  1.00  0.00     0.162 HD
ENDBRANCH  27  28
ENDBRANCH  11  27
TORSDOF 8
ENDMDL
MODEL 9
REMARK VINA RESULT:      -7.5      3.276      6.077
REMARK  8 active torsions:
REMARK  status: ('A' for Active; 'I' for Inactive)
REMARK    1  A    between atoms: C6_9  and  C7_10 
REMARK    2  A    between atoms: C7_10  and  C8_11 
REMARK    3  A    between atoms: C9_12  and  C10_13 
REMARK    4  A    between atoms: C10_13  and  O1_14 
REMARK    5  A    between atoms: O1_14  and  C11_15 
REMARK    6  A    between atoms: C11_15  and  C12_16 
REMARK    7  A    between atoms: C19_24  and  C20_25 
REMARK    8  A    between atoms: C20_25  and  N4_26 
REMARK       I    between atoms: N4_26  and  C21_27 
ROOT
HETATM    1  C1  UNL     1      24.139   7.945  50.673  1.00  0.00     0.071 C 
HETATM    2  C2  UNL     1      24.617   6.854  50.051  1.00  0.00     0.130 C 
HETATM    3  N1  UNL     1      25.859   7.468  49.783  1.00  0.00    -0.353 NA
HETATM    4  C3  UNL     1      26.754   7.147  48.938  1.00  0.00     0.399 C 
HETATM    5  N2  UNL     1      27.485   6.450  47.877  1.00  0.00    -0.272 N 
HETATM    6  N3  UNL     1      27.966   5.252  48.420  1.00  0.00    -0.186 NA
HETATM    7  C4  UNL     1      27.254   4.493  49.158  1.00  0.00     0.139 C 
HETATM    8  C5  UNL     1      26.375   3.653  50.008  1.00  0.00     0.031 C 
HETATM    9  C6  UNL     1      25.211   3.466  50.579  1.00  0.00    -0.020 C 
HETATM   10  C18 UNL     1      24.162   4.442  50.432  1.00  0.00     0.082 C 
HETATM   11  C19 UNL     1      23.054   4.054  51.093  1.00  0.00     0.030 C 
HETATM   12  O3  UNL     1      24.118   5.620  49.773  1.00  0.00    -0.295 OA
HETATM   13  H4  UNL     1      27.199   7.288  47.338  1.00  0.00     0.190 HD
ENDROOT
BRANCH   9  14
HETATM   14  C7  UNL     1      25.156   2.215  51.346  1.00  0.00     0.068 C 
BRANCH  14  15
HETATM   15  C8  UNL     1      26.461   1.523  51.431  1.00  0.00    -0.024 C 
HETATM   16  C9  UNL     1      26.791   0.821  52.534  1.00  0.00    -0.005 C 
BRANCH  16  17
HETATM   17  C10 UNL     1      26.117   0.532  53.821  1.00  0.00     0.195 C 
BRANCH  17  18
HETATM   18  O1  UNL     1      25.353  -0.626  53.645  1.00  0.00    -0.383 OA
BRANCH  18  19
HETATM   19  C11 UNL     1      24.469  -0.812  54.715  1.00  0.00     0.206 C 
BRANCH  19  20
HETATM   20  C12 UNL     1      23.095  -0.723  54.160  1.00  0.00    -0.032 A 
HETATM   21  C13 UNL     1      21.928  -1.077  54.809  1.00  0.00     0.009 A 
HETATM   22  C14 UNL     1      20.697  -0.933  54.185  1.00  0.00     0.004 A 
HETATM   23  C15 UNL     1      20.645  -0.430  52.903  1.00  0.00     0.042 A 
HETATM   24  C16 UNL     1      21.793  -0.081  52.265  1.00  0.00     0.117 A 
HETATM   25  F1  UNL     1      21.629   0.406  51.004  1.00  0.00    -0.206 F 
HETATM   26  C17 UNL     1      23.016  -0.215  52.861  1.00  0.00     0.051 A 
ENDBRANCH  19  20
ENDBRANCH  18  19
ENDBRANCH  17  18
ENDBRANCH  16  17
ENDBRANCH  14  15
ENDBRANCH   9  14
BRANCH  11  27
HETATM   27  C20 UNL     1      21.752   4.758  51.205  1.00  0.00     0.152 C 
BRANCH  27  28
HETATM   28  N4  UNL     1      20.615   3.914  50.893  1.00  0.00    -0.358 N 
HETATM   29  C21 UNL     1      19.845   3.083  51.743  1.00  0.00     0.213 C 
HETATM   30  C22 UNL     1      18.687   2.283  51.199  1.00  0.00     0.117 C 
HETATM   31  O2  UNL     1      20.169   3.048  52.951  1.00  0.00    -0.274 OA
HETATM   32  H22 UNL     1      20.276   3.883  49.882  1.00  0.00     0.162 HD
ENDBRANCH  27  28
ENDBRANCH  11  27
TORSDOF 8
ENDMDL
