MODEL 1
REMARK VINA RESULT:      -9.9      0.000      0.000
REMARK  5 active torsions:
REMARK  status: ('A' for Active; 'I' for Inactive)
REMARK    1  A    between atoms: O1_1  and  S1_2 
REMARK    2  A    between atoms: S1_2  and  C1_3 
REMARK    3  A    between atoms: C7_9  and  C8_10 
REMARK    4  A    between atoms: C10_12  and  C11_13 
REMARK    5  A    between atoms: N2_24  and  C19_25 
ROOT
HETATM    1  C8  UNL     1      25.294   2.193  52.855  1.00  0.00     0.139 A 
HETATM    2  C9  UNL     1      23.790   2.027  52.988  1.00  0.00     0.093 A 
HETATM    3  C10 UNL     1      23.608   0.583  53.224  1.00  0.00     0.067 A 
HETATM    4  N1  UNL     1      24.722  -0.034  53.301  1.00  0.00    -0.175 NA
HETATM    5  N2  UNL     1      25.796   0.849  53.136  1.00  0.00    -0.261 N 
ENDROOT
BRANCH   1   6
HETATM    6  C7  UNL     1      25.576   2.617  51.468  1.00  0.00     0.009 C 
HETATM    7  C6  UNL     1      25.024   3.627  50.774  1.00  0.00    -0.040 A 
HETATM    8  C1  UNL     1      25.429   3.916  49.372  1.00  0.00     0.131 A 
HETATM    9  C5  UNL     1      24.008   4.433  51.443  1.00  0.00     0.008 A 
HETATM   10  C2  UNL     1      24.640   5.079  48.894  1.00  0.00    -0.005 A 
HETATM   11  C3  UNL     1      23.718   5.812  49.494  1.00  0.00    -0.002 A 
HETATM   12  C4  UNL     1      23.382   5.453  50.880  1.00  0.00     0.000 A 
BRANCH   8  13
HETATM   13  S1  UNL     1      27.182   4.352  49.265  1.00  0.00    -0.002 SA
BRANCH  13  14
HETATM   14  O1  UNL     1      27.406   6.053  49.283  1.00  0.00    -0.329 OA
HETATM   15  H1  UNL     1      28.386   6.199  49.216  1.00  0.00     0.227 HD
ENDBRANCH  13  14
ENDBRANCH   8  13
ENDBRANCH   1   6
BRANCH   5  16
HETATM   16  C19 UNL     1      27.128   0.364  53.254  1.00  0.00     0.053 A 
HETATM   17  C20 UNL     1      28.203   1.140  53.631  1.00  0.00     0.031 A 
HETATM   18  C21 UNL     1      29.491   0.630  53.733  1.00  0.00     0.002 A 
HETATM   19  C22 UNL     1      29.670  -0.725  53.432  1.00  0.00     0.000 A 
HETATM   20  C23 UNL     1      28.644  -1.559  53.048  1.00  0.00     0.002 A 
HETATM   21  C24 UNL     1      27.403  -0.961  52.977  1.00  0.00     0.031 A 
ENDBRANCH   5  16
BRANCH   3  22
HETATM   22  C11 UNL     1      22.308  -0.088  53.359  1.00  0.00    -0.007 A 
HETATM   23  C12 UNL     1      22.170  -1.107  54.307  1.00  0.00     0.016 A 
HETATM   24  C13 UNL     1      20.949  -1.740  54.441  1.00  0.00     0.040 A 
HETATM   25  C14 UNL     1      19.879  -1.396  53.674  1.00  0.00     0.102 A 
HETATM   26  C15 UNL     1      20.036  -0.390  52.747  1.00  0.00     0.103 A 
HETATM   27  O3  UNL     1      18.601  -1.929  53.686  1.00  0.00    -0.346 OA
HETATM   28  C16 UNL     1      21.230   0.274  52.574  1.00  0.00     0.053 A 
HETATM   29  O2  UNL     1      19.009   0.047  51.906  1.00  0.00    -0.346 OA
HETATM   30  C17 UNL     1      17.727  -0.516  51.926  1.00  0.00     0.202 C 
HETATM   31  C18 UNL     1      17.519  -1.130  53.306  1.00  0.00     0.202 C 
ENDBRANCH   3  22
TORSDOF 5
ENDMDL
MODEL 2
REMARK VINA RESULT:      -9.9      3.344      7.051
REMARK  5 active torsions:
REMARK  status: ('A' for Active; 'I' for Inactive)
REMARK    1  A    between atoms: O1_1  and  S1_2 
REMARK    2  A    between atoms: S1_2  and  C1_3 
REMARK    3  A    between atoms: C7_9  and  C8_10 
REMARK    4  A    between atoms: C10_12  and  C11_13 
REMARK    5  A    between atoms: N2_24  and  C19_25 
ROOT
HETATM    1  C8  UNL     1      24.879   1.632  52.618  1.00  0.00     0.139 A 
HETATM    2  C9  UNL     1      25.002   2.710  51.553  1.00  0.00     0.093 A 
HETATM    3  C10 UNL     1      23.717   2.648  50.832  1.00  0.00     0.067 A 
HETATM    4  N1  UNL     1      22.921   1.795  51.344  1.00  0.00    -0.175 NA
HETATM    5  N2  UNL     1      23.506   1.161  52.447  1.00  0.00    -0.261 N 
ENDROOT
BRANCH   1   6
HETATM    6  C7  UNL     1      25.874   0.584  52.309  1.00  0.00     0.009 C 
HETATM    7  C6  UNL     1      27.086   0.395  52.856  1.00  0.00    -0.040 A 
HETATM    8  C1  UNL     1      27.966  -0.723  52.421  1.00  0.00     0.131 A 
HETATM    9  C5  UNL     1      27.514   1.326  53.894  1.00  0.00     0.008 A 
HETATM   10  C2  UNL     1      29.222  -0.655  53.209  1.00  0.00    -0.005 A 
HETATM   11  C3  UNL     1      29.616   0.186  54.150  1.00  0.00    -0.002 A 
HETATM   12  C4  UNL     1      28.680   1.260  54.515  1.00  0.00     0.000 A 
BRANCH   8  13
HETATM   13  S1  UNL     1      27.199  -2.332  52.736  1.00  0.00    -0.002 SA
BRANCH  13  14
HETATM   14  O1  UNL     1      28.357  -3.486  53.259  1.00  0.00    -0.329 OA
HETATM   15  H1  UNL     1      28.160  -4.317  52.752  1.00  0.00     0.227 HD
ENDBRANCH  13  14
ENDBRANCH   8  13
ENDBRANCH   1   6
BRANCH   5  16
HETATM   16  C19 UNL     1      22.751   0.218  53.198  1.00  0.00     0.053 A 
HETATM   17  C20 UNL     1      23.282  -0.593  54.178  1.00  0.00     0.031 A 
HETATM   18  C21 UNL     1      22.513  -1.505  54.889  1.00  0.00     0.002 A 
HETATM   19  C22 UNL     1      21.151  -1.579  54.573  1.00  0.00     0.000 A 
HETATM   20  C23 UNL     1      20.553  -0.801  53.608  1.00  0.00     0.002 A 
HETATM   21  C24 UNL     1      21.399   0.073  52.957  1.00  0.00     0.031 A 
ENDBRANCH   5  16
BRANCH   3  22
HETATM   22  C11 UNL     1      23.373   3.467  49.661  1.00  0.00    -0.007 A 
HETATM   23  C12 UNL     1      23.930   4.744  49.544  1.00  0.00     0.016 A 
HETATM   24  C13 UNL     1      23.612   5.517  48.443  1.00  0.00     0.040 A 
HETATM   25  C14 UNL     1      22.769   5.067  47.474  1.00  0.00     0.102 A 
HETATM   26  C15 UNL     1      22.232   3.807  47.610  1.00  0.00     0.103 A 
HETATM   27  O3  UNL     1      22.355   5.714  46.322  1.00  0.00    -0.346 OA
HETATM   28  C16 UNL     1      22.517   2.995  48.684  1.00  0.00     0.053 A 
HETATM   29  O2  UNL     1      21.358   3.240  46.678  1.00  0.00    -0.346 OA
HETATM   30  C17 UNL     1      20.940   3.918  45.526  1.00  0.00     0.202 C 
HETATM   31  C18 UNL     1      22.004   4.961  45.198  1.00  0.00     0.202 C 
ENDBRANCH   3  22
TORSDOF 5
ENDMDL
MODEL 3
REMARK VINA RESULT:      -9.6      2.538      7.655
REMARK  5 active torsions:
REMARK  status: ('A' for Active; 'I' for Inactive)
REMARK    1  A    between atoms: O1_1  and  S1_2 
REMARK    2  A    between atoms: S1_2  and  C1_3 
REMARK    3  A    between atoms: C7_9  and  C8_10 
REMARK    4  A    between atoms: C10_12  and  C11_13 
REMARK    5  A    between atoms: N2_24  and  C19_25 
ROOT
HETATM    1  C8  UNL     1      24.405   1.365  51.260  1.00  0.00     0.139 A 
HETATM    2  C9  UNL     1      23.994   2.652  50.564  1.00  0.00     0.093 A 
HETATM    3  C10 UNL     1      25.152   3.545  50.752  1.00  0.00     0.067 A 
HETATM    4  N1  UNL     1      26.113   2.964  51.356  1.00  0.00    -0.175 NA
HETATM    5  N2  UNL     1      25.782   1.639  51.667  1.00  0.00    -0.261 N 
ENDROOT
BRANCH   1   6
HETATM    6  C7  UNL     1      23.506   1.178  52.418  1.00  0.00     0.009 C 
HETATM    7  C6  UNL     1      22.203   0.849  52.420  1.00  0.00    -0.040 A 
HETATM    8  C1  UNL     1      21.443   0.701  53.690  1.00  0.00     0.131 A 
HETATM    9  C5  UNL     1      21.554   0.641  51.130  1.00  0.00     0.008 A 
HETATM   10  C2  UNL     1      20.044   0.338  53.352  1.00  0.00    -0.005 A 
HETATM   11  C3  UNL     1      19.451   0.149  52.186  1.00  0.00    -0.002 A 
HETATM   12  C4  UNL     1      20.280   0.317  50.984  1.00  0.00     0.000 A 
BRANCH   8  13
HETATM   13  S1  UNL     1      22.127  -0.621  54.722  1.00  0.00    -0.002 SA
BRANCH  13  14
HETATM   14  O1  UNL     1      20.976  -1.866  54.988  1.00  0.00    -0.329 OA
HETATM   15  H1  UNL     1      21.234  -2.608  54.381  1.00  0.00     0.227 HD
ENDBRANCH  13  14
ENDBRANCH   8  13
ENDBRANCH   1   6
BRANCH   5  16
HETATM   16  C19 UNL     1      26.748   0.800  52.287  1.00  0.00     0.053 A 
HETATM   17  C20 UNL     1      26.704  -0.577  52.267  1.00  0.00     0.031 A 
HETATM   18  C21 UNL     1      27.667  -1.364  52.887  1.00  0.00     0.002 A 
HETATM   19  C22 UNL     1      28.706  -0.701  53.550  1.00  0.00     0.000 A 
HETATM   20  C23 UNL     1      28.814   0.670  53.612  1.00  0.00     0.002 A 
HETATM   21  C24 UNL     1      27.811   1.363  52.966  1.00  0.00     0.031 A 
ENDBRANCH   5  16
BRANCH   3  22
HETATM   22  C11 UNL     1      25.215   4.942  50.302  1.00  0.00    -0.007 A 
HETATM   23  C12 UNL     1      24.373   5.883  50.903  1.00  0.00     0.016 A 
HETATM   24  C13 UNL     1      24.429   7.199  50.486  1.00  0.00     0.040 A 
HETATM   25  C14 UNL     1      25.283   7.601  49.505  1.00  0.00     0.102 A 
HETATM   26  C15 UNL     1      26.103   6.659  48.927  1.00  0.00     0.103 A 
HETATM   27  O3  UNL     1      25.457   8.870  48.979  1.00  0.00    -0.346 OA
HETATM   28  C16 UNL     1      26.089   5.335  49.306  1.00  0.00     0.053 A 
HETATM   29  O2  UNL     1      27.019   6.956  47.913  1.00  0.00    -0.346 OA
HETATM   30  C17 UNL     1      27.169   8.244  47.386  1.00  0.00     0.202 C 
HETATM   31  C18 UNL     1      26.700   9.231  48.451  1.00  0.00     0.202 C 
ENDBRANCH   3  22
TORSDOF 5
ENDMDL
MODEL 4
REMARK VINA RESULT:      -9.5      1.361      1.765
REMARK  5 active torsions:
REMARK  status: ('A' for Active; 'I' for Inactive)
REMARK    1  A    between atoms: O1_1  and  S1_2 
REMARK    2  A    between atoms: S1_2  and  C1_3 
REMARK    3  A    between atoms: C7_9  and  C8_10 
REMARK    4  A    between atoms: C10_12  and  C11_13 
REMARK    5  A    between atoms: N2_24  and  C19_25 
ROOT
HETATM    1  C8  UNL     1      23.831   2.566  52.523  1.00  0.00     0.139 A 
HETATM    2  C9  UNL     1      22.320   2.475  52.385  1.00  0.00     0.093 A 
HETATM    3  C10 UNL     1      22.033   1.036  52.532  1.00  0.00     0.067 A 
HETATM    4  N1  UNL     1      23.086   0.361  52.780  1.00  0.00    -0.175 NA
HETATM    5  N2  UNL     1      24.212   1.190  52.838  1.00  0.00    -0.261 N 
ENDROOT
BRANCH   1   6
HETATM    6  C7  UNL     1      24.371   3.013  51.222  1.00  0.00     0.009 C 
HETATM    7  C6  UNL     1      24.444   4.263  50.732  1.00  0.00    -0.040 A 
HETATM    8  C1  UNL     1      25.025   4.536  49.390  1.00  0.00     0.131 A 
HETATM    9  C5  UNL     1      23.932   5.347  51.563  1.00  0.00     0.008 A 
HETATM   10  C2  UNL     1      24.957   5.998  49.147  1.00  0.00    -0.005 A 
HETATM   11  C3  UNL     1      24.494   6.985  49.894  1.00  0.00    -0.002 A 
HETATM   12  C4  UNL     1      23.939   6.621  51.206  1.00  0.00     0.000 A 
BRANCH   8  13
HETATM   13  S1  UNL     1      26.763   4.037  49.306  1.00  0.00    -0.002 SA
BRANCH  13  14
HETATM   14  O1  UNL     1      27.804   5.402  49.273  1.00  0.00    -0.329 OA
HETATM   15  H1  UNL     1      27.536   5.966  50.044  1.00  0.00     0.227 HD
ENDBRANCH  13  14
ENDBRANCH   8  13
ENDBRANCH   1   6
BRANCH   5  16
HETATM   16  C19 UNL     1      25.479   0.634  53.168  1.00  0.00     0.053 A 
HETATM   17  C20 UNL     1      26.371   1.210  54.047  1.00  0.00     0.031 A 
HETATM   18  C21 UNL     1      27.602   0.637  54.343  1.00  0.00     0.002 A 
HETATM   19  C22 UNL     1      27.916  -0.570  53.706  1.00  0.00     0.000 A 
HETATM   20  C23 UNL     1      27.075  -1.201  52.819  1.00  0.00     0.002 A 
HETATM   21  C24 UNL     1      25.877  -0.555  52.590  1.00  0.00     0.031 A 
ENDBRANCH   5  16
BRANCH   3  22
HETATM   22  C11 UNL     1      20.700   0.430  52.415  1.00  0.00    -0.007 A 
HETATM   23  C12 UNL     1      20.216  -0.347  53.472  1.00  0.00     0.016 A 
HETATM   24  C13 UNL     1      18.962  -0.917  53.368  1.00  0.00     0.040 A 
HETATM   25  C14 UNL     1      18.187  -0.742  52.263  1.00  0.00     0.102 A 
HETATM   26  C15 UNL     1      18.682   0.028  51.234  1.00  0.00     0.103 A 
HETATM   27  O3  UNL     1      16.922  -1.242  52.008  1.00  0.00    -0.346 OA
HETATM   28  C16 UNL     1      19.925   0.620  51.287  1.00  0.00     0.053 A 
HETATM   29  O2  UNL     1      17.977   0.277  50.053  1.00  0.00    -0.346 OA
HETATM   30  C17 UNL     1      16.703  -0.250  49.810  1.00  0.00     0.202 C 
HETATM   31  C18 UNL     1      16.060  -0.535  51.164  1.00  0.00     0.202 C 
ENDBRANCH   3  22
TORSDOF 5
ENDMDL
MODEL 5
REMARK VINA RESULT:      -9.3      4.124      7.405
REMARK  5 active torsions:
REMARK  status: ('A' for Active; 'I' for Inactive)
REMARK    1  A    between atoms: O1_1  and  S1_2 
REMARK    2  A    between atoms: S1_2  and  C1_3 
REMARK    3  A    between atoms: C7_9  and  C8_10 
REMARK    4  A    between atoms: C10_12  and  C11_13 
REMARK    5  A    between atoms: N2_24  and  C19_25 
ROOT
HETATM    1  C8  UNL     1      25.171   5.042  48.962  1.00  0.00     0.139 A 
HETATM    2  C9  UNL     1      26.061   3.913  49.453  1.00  0.00     0.093 A 
HETATM    3  C10 UNL     1      25.372   3.414  50.658  1.00  0.00     0.067 A 
HETATM    4  N1  UNL     1      24.268   4.016  50.863  1.00  0.00    -0.175 NA
HETATM    5  N2  UNL     1      24.032   4.982  49.878  1.00  0.00    -0.261 N 
ENDROOT
BRANCH   1   6
HETATM    6  C7  UNL     1      25.932   6.302  49.097  1.00  0.00     0.009 C 
HETATM    7  C6  UNL     1      25.882   7.396  48.319  1.00  0.00    -0.040 A 
HETATM    8  C1  UNL     1      26.727   8.587  48.602  1.00  0.00     0.131 A 
HETATM    9  C5  UNL     1      24.970   7.377  47.181  1.00  0.00     0.008 A 
HETATM   10  C2  UNL     1      26.441   9.613  47.568  1.00  0.00    -0.005 A 
HETATM   11  C3  UNL     1      25.617   9.602  46.535  1.00  0.00    -0.002 A 
HETATM   12  C4  UNL     1      24.821   8.382  46.333  1.00  0.00     0.000 A 
BRANCH   8  13
HETATM   13  S1  UNL     1      26.341   9.304  50.219  1.00  0.00    -0.002 SA
BRANCH  13  14
HETATM   14  O1  UNL     1      27.758   9.519  51.163  1.00  0.00    -0.329 OA
HETATM   15  H1  UNL     1      28.034  10.464  51.028  1.00  0.00     0.227 HD
ENDBRANCH  13  14
ENDBRANCH   8  13
ENDBRANCH   1   6
BRANCH   5  16
HETATM   16  C19 UNL     1      22.818   5.721  49.893  1.00  0.00     0.053 A 
HETATM   17  C20 UNL     1      22.599   6.835  50.675  1.00  0.00     0.031 A 
HETATM   18  C21 UNL     1      21.396   7.530  50.664  1.00  0.00     0.002 A 
HETATM   19  C22 UNL     1      20.388   7.053  49.817  1.00  0.00     0.000 A 
HETATM   20  C23 UNL     1      20.536   5.949  49.009  1.00  0.00     0.002 A 
HETATM   21  C24 UNL     1      21.765   5.327  49.090  1.00  0.00     0.031 A 
ENDBRANCH   5  16
BRANCH   3  22
HETATM   22  C11 UNL     1      25.880   2.347  51.532  1.00  0.00    -0.007 A 
HETATM   23  C12 UNL     1      25.006   1.331  51.934  1.00  0.00     0.016 A 
HETATM   24  C13 UNL     1      25.478   0.324  52.754  1.00  0.00     0.040 A 
HETATM   25  C14 UNL     1      26.771   0.297  53.180  1.00  0.00     0.102 A 
HETATM   26  C15 UNL     1      27.613   1.306  52.772  1.00  0.00     0.103 A 
HETATM   27  O3  UNL     1      27.391  -0.633  53.996  1.00  0.00    -0.346 OA
HETATM   28  C16 UNL     1      27.195   2.332  51.954  1.00  0.00     0.053 A 
HETATM   29  O2  UNL     1      28.958   1.382  53.145  1.00  0.00    -0.346 OA
HETATM   30  C17 UNL     1      29.563   0.437  53.983  1.00  0.00     0.202 C 
HETATM   31  C18 UNL     1      28.764  -0.858  53.863  1.00  0.00     0.202 C 
ENDBRANCH   3  22
TORSDOF 5
ENDMDL
MODEL 6
REMARK VINA RESULT:      -9.2      4.207      7.245
REMARK  5 active torsions:
REMARK  status: ('A' for Active; 'I' for Inactive)
REMARK    1  A    between atoms: O1_1  and  S1_2 
REMARK    2  A    between atoms: S1_2  and  C1_3 
REMARK    3  A    between atoms: C7_9  and  C8_10 
REMARK    4  A    between atoms: C10_12  and  C11_13 
REMARK    5  A    between atoms: N2_24  and  C19_25 
ROOT
HETATM    1  C8  UNL     1      23.613   4.440  49.745  1.00  0.00     0.139 A 
HETATM    2  C9  UNL     1      23.733   3.289  50.731  1.00  0.00     0.093 A 
HETATM    3  C10 UNL     1      25.187   3.085  50.866  1.00  0.00     0.067 A 
HETATM    4  N1  UNL     1      25.856   3.938  50.195  1.00  0.00    -0.175 NA
HETATM    5  N2  UNL     1      25.006   4.823  49.521  1.00  0.00    -0.261 N 
ENDROOT
BRANCH   1   6
HETATM    6  C7  UNL     1      22.972   3.915  48.522  1.00  0.00     0.009 C 
HETATM    7  C6  UNL     1      21.664   3.855  48.223  1.00  0.00    -0.040 A 
HETATM    8  C1  UNL     1      21.189   3.288  46.932  1.00  0.00     0.131 A 
HETATM    9  C5  UNL     1      20.719   4.364  49.212  1.00  0.00     0.008 A 
HETATM   10  C2  UNL     1      19.706   3.365  46.912  1.00  0.00    -0.005 A 
HETATM   11  C3  UNL     1      18.845   3.823  47.805  1.00  0.00    -0.002 A 
HETATM   12  C4  UNL     1      19.406   4.365  49.052  1.00  0.00     0.000 A 
BRANCH   8  13
HETATM   13  S1  UNL     1      21.813   4.237  45.523  1.00  0.00    -0.002 SA
BRANCH  13  14
HETATM   14  O1  UNL     1      21.251   3.591  44.035  1.00  0.00    -0.329 OA
HETATM   15  H1  UNL     1      21.250   4.349  43.393  1.00  0.00     0.227 HD
ENDBRANCH  13  14
ENDBRANCH   8  13
ENDBRANCH   1   6
BRANCH   5  16
HETATM   16  C19 UNL     1      25.561   5.892  48.766  1.00  0.00     0.053 A 
HETATM   17  C20 UNL     1      24.816   6.890  48.174  1.00  0.00     0.031 A 
HETATM   18  C21 UNL     1      25.395   7.919  47.442  1.00  0.00     0.002 A 
HETATM   19  C22 UNL     1      26.790   7.911  47.318  1.00  0.00     0.000 A 
HETATM   20  C23 UNL     1      27.596   6.948  47.881  1.00  0.00     0.002 A 
HETATM   21  C24 UNL     1      26.929   5.969  48.589  1.00  0.00     0.031 A 
ENDBRANCH   5  16
BRANCH   3  22
HETATM   22  C11 UNL     1      25.814   2.030  51.676  1.00  0.00    -0.007 A 
HETATM   23  C12 UNL     1      25.034   0.948  52.094  1.00  0.00     0.016 A 
HETATM   24  C13 UNL     1      25.618  -0.048  52.854  1.00  0.00     0.040 A 
HETATM   25  C14 UNL     1      26.932   0.000  53.205  1.00  0.00     0.102 A 
HETATM   26  C15 UNL     1      27.682   1.076  52.783  1.00  0.00     0.103 A 
HETATM   27  O3  UNL     1      27.659  -0.908  53.956  1.00  0.00    -0.346 OA
HETATM   28  C16 UNL     1      27.149   2.093  52.024  1.00  0.00     0.053 A 
HETATM   29  O2  UNL     1      29.038   1.231  53.083  1.00  0.00    -0.346 OA
HETATM   30  C17 UNL     1      29.751   0.306  53.855  1.00  0.00     0.202 C 
HETATM   31  C18 UNL     1      29.034  -1.035  53.739  1.00  0.00     0.202 C 
ENDBRANCH   3  22
TORSDOF 5
ENDMDL
MODEL 7
REMARK VINA RESULT:      -9.1      7.149      9.563
REMARK  5 active torsions:
REMARK  status: ('A' for Active; 'I' for Inactive)
REMARK    1  A    between atoms: O1_1  and  S1_2 
REMARK    2  A    between atoms: S1_2  and  C1_3 
REMARK    3  A    between atoms: C7_9  and  C8_10 
REMARK    4  A    between atoms: C10_12  and  C11_13 
REMARK    5  A    between atoms: N2_24  and  C19_25 
ROOT
HETATM    1  C8  UNL     1      31.173   7.037  47.758  1.00  0.00     0.139 A 
HETATM    2  C9  UNL     1      29.731   7.357  48.113  1.00  0.00     0.093 A 
HETATM    3  C10 UNL     1      29.083   6.036  48.203  1.00  0.00     0.067 A 
HETATM    4  N1  UNL     1      29.911   5.083  48.024  1.00  0.00    -0.175 NA
HETATM    5  N2  UNL     1      31.201   5.576  47.793  1.00  0.00    -0.261 N 
ENDROOT
BRANCH   1   6
HETATM    6  C7  UNL     1      31.428   7.570  46.403  1.00  0.00     0.009 C 
HETATM    7  C6  UNL     1      32.525   8.195  45.943  1.00  0.00    -0.040 A 
HETATM    8  C1  UNL     1      32.612   8.671  44.536  1.00  0.00     0.131 A 
HETATM    9  C5  UNL     1      33.632   8.393  46.872  1.00  0.00     0.008 A 
HETATM   10  C2  UNL     1      33.937   9.313  44.348  1.00  0.00    -0.005 A 
HETATM   11  C3  UNL     1      34.944   9.496  45.185  1.00  0.00    -0.002 A 
HETATM   12  C4  UNL     1      34.768   8.992  46.555  1.00  0.00     0.000 A 
BRANCH   8  13
HETATM   13  S1  UNL     1      32.488   7.298  43.362  1.00  0.00    -0.002 SA
BRANCH  13  14
HETATM   14  O1  UNL     1      31.795   7.806  41.876  1.00  0.00    -0.329 OA
HETATM   15  H1  UNL     1      32.560   8.002  41.274  1.00  0.00     0.227 HD
ENDBRANCH  13  14
ENDBRANCH   8  13
ENDBRANCH   1   6
BRANCH   5  16
HETATM   16  C19 UNL     1      32.283   4.667  47.633  1.00  0.00     0.053 A 
HETATM   17  C20 UNL     1      32.175   3.434  47.027  1.00  0.00     0.031 A 
HETATM   18  C21 UNL     1      33.256   2.572  46.891  1.00  0.00     0.002 A 
HETATM   19  C22 UNL     1      34.486   3.002  47.402  1.00  0.00     0.000 A 
HETATM   20  C23 UNL     1      34.668   4.219  48.019  1.00  0.00     0.002 A 
HETATM   21  C24 UNL     1      33.536   5.003  48.106  1.00  0.00     0.031 A 
ENDBRANCH   5  16
BRANCH   3  22
HETATM   22  C11 UNL     1      27.654   5.819  48.469  1.00  0.00    -0.007 A 
HETATM   23  C12 UNL     1      26.749   6.840  48.165  1.00  0.00     0.016 A 
HETATM   24  C13 UNL     1      25.404   6.640  48.410  1.00  0.00     0.040 A 
HETATM   25  C14 UNL     1      24.940   5.476  48.941  1.00  0.00     0.102 A 
HETATM   26  C15 UNL     1      25.848   4.484  49.232  1.00  0.00     0.103 A 
HETATM   27  O3  UNL     1      23.635   5.125  49.244  1.00  0.00    -0.346 OA
HETATM   28  C16 UNL     1      27.199   4.630  49.006  1.00  0.00     0.053 A 
HETATM   29  O2  UNL     1      25.488   3.249  49.779  1.00  0.00    -0.346 OA
HETATM   30  C17 UNL     1      24.163   2.919  50.090  1.00  0.00     0.202 C 
HETATM   31  C18 UNL     1      23.260   3.779  49.211  1.00  0.00     0.202 C 
ENDBRANCH   3  22
TORSDOF 5
ENDMDL
MODEL 8
REMARK VINA RESULT:      -9.0      3.629      7.504
REMARK  5 active torsions:
REMARK  status: ('A' for Active; 'I' for Inactive)
REMARK    1  A    between atoms: O1_1  and  S1_2 
REMARK    2  A    between atoms: S1_2  and  C1_3 
REMARK    3  A    between atoms: C7_9  and  C8_10 
REMARK    4  A    between atoms: C10_12  and  C11_13 
REMARK    5  A    between atoms: N2_24  and  C19_25 
ROOT
HETATM    1  C8  UNL     1      21.614   3.261  52.118  1.00  0.00     0.139 A 
HETATM    2  C9  UNL     1      22.334   2.074  52.736  1.00  0.00     0.093 A 
HETATM    3  C10 UNL     1      23.762   2.424  52.625  1.00  0.00     0.067 A 
HETATM    4  N1  UNL     1      23.934   3.584  52.125  1.00  0.00    -0.175 NA
HETATM    5  N2  UNL     1      22.707   4.188  51.826  1.00  0.00    -0.261 N 
ENDROOT
BRANCH   1   6
HETATM    6  C7  UNL     1      20.941   2.785  50.891  1.00  0.00     0.009 C 
HETATM    7  C6  UNL     1      19.631   2.814  50.592  1.00  0.00    -0.040 A 
HETATM    8  C1  UNL     1      19.121   2.286  49.298  1.00  0.00     0.131 A 
HETATM    9  C5  UNL     1      18.722   3.380  51.583  1.00  0.00     0.008 A 
HETATM   10  C2  UNL     1      17.647   2.461  49.277  1.00  0.00    -0.005 A 
HETATM   11  C3  UNL     1      16.818   2.971  50.171  1.00  0.00    -0.002 A 
HETATM   12  C4  UNL     1      17.412   3.469  51.421  1.00  0.00     0.000 A 
BRANCH   8  13
HETATM   13  S1  UNL     1      19.808   3.198  47.893  1.00  0.00    -0.002 SA
BRANCH  13  14
HETATM   14  O1  UNL     1      18.950   2.858  46.446  1.00  0.00    -0.329 OA
HETATM   15  H1  UNL     1      19.481   3.266  45.713  1.00  0.00     0.227 HD
ENDBRANCH  13  14
ENDBRANCH   8  13
ENDBRANCH   1   6
BRANCH   5  16
HETATM   16  C19 UNL     1      22.682   5.516  51.319  1.00  0.00     0.053 A 
HETATM   17  C20 UNL     1      21.535   6.179  50.938  1.00  0.00     0.031 A 
HETATM   18  C21 UNL     1      21.551   7.477  50.445  1.00  0.00     0.002 A 
HETATM   19  C22 UNL     1      22.797   8.107  50.341  1.00  0.00     0.000 A 
HETATM   20  C23 UNL     1      23.983   7.508  50.702  1.00  0.00     0.002 A 
HETATM   21  C24 UNL     1      23.863   6.220  51.181  1.00  0.00     0.031 A 
ENDBRANCH   5  16
BRANCH   3  22
HETATM   22  C11 UNL     1      24.872   1.554  53.037  1.00  0.00    -0.007 A 
HETATM   23  C12 UNL     1      24.680   0.169  53.037  1.00  0.00     0.016 A 
HETATM   24  C13 UNL     1      25.722  -0.654  53.420  1.00  0.00     0.040 A 
HETATM   25  C14 UNL     1      26.928  -0.149  53.799  1.00  0.00     0.102 A 
HETATM   26  C15 UNL     1      27.096   1.217  53.791  1.00  0.00     0.103 A 
HETATM   27  O3  UNL     1      28.060  -0.834  54.208  1.00  0.00    -0.346 OA
HETATM   28  C16 UNL     1      26.092   2.082  53.416  1.00  0.00     0.053 A 
HETATM   29  O2  UNL     1      28.288   1.847  54.159  1.00  0.00    -0.346 OA
HETATM   30  C17 UNL     1      29.417   1.135  54.582  1.00  0.00     0.202 C 
HETATM   31  C18 UNL     1      29.321  -0.269  53.993  1.00  0.00     0.202 C 
ENDBRANCH   3  22
TORSDOF 5
ENDMDL
MODEL 9
REMARK VINA RESULT:      -9.0      4.007      7.394
REMARK  5 active torsions:
REMARK  status: ('A' for Active; 'I' for Inactive)
REMARK    1  A    between atoms: O1_1  and  S1_2 
REMARK    2  A    between atoms: S1_2  and  C1_3 
REMARK    3  A    between atoms: C7_9  and  C8_10 
REMARK    4  A    between atoms: C10_12  and  C11_13 
REMARK    5  A    between atoms: N2_24  and  C19_25 
ROOT
HETATM    1  C8  UNL     1      26.430   5.913  48.417  1.00  0.00     0.139 A 
HETATM    2  C9  UNL     1      26.803   4.565  49.012  1.00  0.00     0.093 A 
HETATM    3  C10 UNL     1      25.645   4.213  49.854  1.00  0.00     0.067 A 
HETATM    4  N1  UNL     1      24.712   5.078  49.773  1.00  0.00    -0.175 NA
HETATM    5  N2  UNL     1      25.066   6.117  48.903  1.00  0.00    -0.261 N 
ENDROOT
BRANCH   1   6
HETATM    6  C7  UNL     1      27.372   6.915  48.957  1.00  0.00     0.009 C 
HETATM    7  C6  UNL     1      28.332   7.595  48.307  1.00  0.00    -0.040 A 
HETATM    8  C1  UNL     1      29.199   8.576  49.012  1.00  0.00     0.131 A 
HETATM    9  C5  UNL     1      28.498   7.336  46.881  1.00  0.00     0.008 A 
HETATM   10  C2  UNL     1      30.149   9.147  48.025  1.00  0.00    -0.005 A 
HETATM   11  C3  UNL     1      30.305   8.916  46.732  1.00  0.00    -0.002 A 
HETATM   12  C4  UNL     1      29.403   7.930  46.119  1.00  0.00     0.000 A 
BRANCH   8  13
HETATM   13  S1  UNL     1      28.230   9.940  49.704  1.00  0.00    -0.002 SA
BRANCH  13  14
HETATM   14  O1  UNL     1      27.621   9.548  51.261  1.00  0.00    -0.329 OA
HETATM   15  H1  UNL     1      26.651   9.377  51.137  1.00  0.00     0.227 HD
ENDBRANCH  13  14
ENDBRANCH   8  13
ENDBRANCH   1   6
BRANCH   5  16
HETATM   16  C19 UNL     1      24.130   7.151  48.627  1.00  0.00     0.053 A 
HETATM   17  C20 UNL     1      24.010   7.780  47.406  1.00  0.00     0.031 A 
HETATM   18  C21 UNL     1      23.084   8.790  47.174  1.00  0.00     0.002 A 
HETATM   19  C22 UNL     1      22.259   9.160  48.243  1.00  0.00     0.000 A 
HETATM   20  C23 UNL     1      22.323   8.576  49.488  1.00  0.00     0.002 A 
HETATM   21  C24 UNL     1      23.273   7.584  49.619  1.00  0.00     0.031 A 
ENDBRANCH   5  16
BRANCH   3  22
HETATM   22  C11 UNL     1      25.553   3.010  50.693  1.00  0.00    -0.007 A 
HETATM   23  C12 UNL     1      26.734   2.386  51.109  1.00  0.00     0.016 A 
HETATM   24  C13 UNL     1      26.654   1.257  51.901  1.00  0.00     0.040 A 
HETATM   25  C14 UNL     1      25.456   0.736  52.284  1.00  0.00     0.102 A 
HETATM   26  C15 UNL     1      24.306   1.366  51.864  1.00  0.00     0.103 A 
HETATM   27  O3  UNL     1      25.210  -0.379  53.067  1.00  0.00    -0.346 OA
HETATM   28  C16 UNL     1      24.329   2.495  51.076  1.00  0.00     0.053 A 
HETATM   29  O2  UNL     1      23.023   0.923  52.195  1.00  0.00    -0.346 OA
HETATM   30  C17 UNL     1      22.796  -0.216  52.977  1.00  0.00     0.202 C 
HETATM   31  C18 UNL     1      24.041  -0.438  53.831  1.00  0.00     0.202 C 
ENDBRANCH   3  22
TORSDOF 5
ENDMDL
