MODEL 1
REMARK VINA RESULT:      -7.9      0.000      0.000
REMARK  6 active torsions:
REMARK  status: ('A' for Active; 'I' for Inactive)
REMARK    1  A    between atoms: N1_2  and  C2_3 
REMARK    2  A    between atoms: C2_3  and  C3_4 
REMARK    3  A    between atoms: C3_4  and  C4_5 
REMARK    4  A    between atoms: C7_8  and  C8_9 
REMARK    5  A    between atoms: C8_9  and  C9_10 
REMARK    6  A    between atoms: C18_22  and  C19_23 
REMARK       I    between atoms: C19_23  and  N4_25 
ROOT
HETATM    1  C9  UNL     1      20.819   0.596  51.052  1.00  0.00     0.062 C 
HETATM    2  N2  UNL     1      19.511   0.481  50.734  1.00  0.00    -0.179 NA
HETATM    3  N3  UNL     1      19.210   1.268  49.536  1.00  0.00    -0.289 N 
HETATM    4  C10 UNL     1      19.368   2.700  49.757  1.00  0.00     0.106 C 
HETATM    5  C11 UNL     1      20.054   3.858  49.482  1.00  0.00     0.001 C 
HETATM    6  C12 UNL     1      21.068   4.737  48.872  1.00  0.00     0.093 C 
HETATM    7  S1  UNL     1      22.234   3.850  47.728  1.00  0.00    -0.193 SA
HETATM    8  C13 UNL     1      23.008   2.519  48.848  1.00  0.00     0.054 A 
HETATM    9  C14 UNL     1      22.290   2.205  47.776  1.00  0.00     0.073 A 
HETATM   10  C15 UNL     1      21.990   1.740  49.031  1.00  0.00     0.059 A 
HETATM   11  C16 UNL     1      21.743   1.317  50.264  1.00  0.00    -0.024 A 
HETATM   12  C17 UNL     1      22.815   1.948  50.975  1.00  0.00     0.024 A 
HETATM   13  C18 UNL     1      23.558   2.667  50.103  1.00  0.00     0.030 A 
HETATM   14  H11 UNL     1      18.901   0.873  48.582  1.00  0.00     0.188 HD
ENDROOT
BRANCH   1  15
HETATM   15  C8  UNL     1      21.344  -0.108  52.256  1.00  0.00     0.034 C 
BRANCH  15  16
HETATM   16  C7  UNL     1      21.991  -0.572  53.352  1.00  0.00     0.054 A 
HETATM   17  C6  UNL     1      21.393  -1.275  54.550  1.00  0.00    -0.041 A 
HETATM   18  C5  UNL     1      22.748  -1.100  54.688  1.00  0.00     0.021 A 
HETATM   19  C4  UNL     1      23.417  -0.391  53.578  1.00  0.00     0.026 A 
BRANCH  19  20
HETATM   20  C3  UNL     1      24.662  -0.489  54.073  1.00  0.00    -0.002 C 
BRANCH  20  21
HETATM   21  C2  UNL     1      26.049  -0.284  54.520  1.00  0.00     0.106 C 
BRANCH  21  22
HETATM   22  N1  UNL     1      27.200  -0.143  54.958  1.00  0.00    -0.307 NA
HETATM   23  C1  UNL     1      28.388  -0.139  54.157  1.00  0.00     0.177 C 
ENDBRANCH  21  22
ENDBRANCH  20  21
ENDBRANCH  19  20
ENDBRANCH  15  16
ENDBRANCH   1  15
BRANCH  13  24
HETATM   24  C19 UNL     1      24.797   3.347  50.373  1.00  0.00     0.248 C 
HETATM   25  O1  UNL     1      25.539   4.355  50.248  1.00  0.00    -0.268 OA
HETATM   26  N4  UNL     1      25.516   2.347  51.208  1.00  0.00    -0.361 N 
HETATM   27  C20 UNL     1      26.839   2.372  51.860  1.00  0.00     0.149 C 
HETATM   28  H19 UNL     1      25.138   1.363  51.478  1.00  0.00     0.162 HD
ENDBRANCH  13  24
TORSDOF 6
ENDMDL
MODEL 2
REMARK VINA RESULT:      -7.4      4.270      7.164
REMARK  6 active torsions:
REMARK  status: ('A' for Active; 'I' for Inactive)
REMARK    1  A    between atoms: N1_2  and  C2_3 
REMARK    2  A    between atoms: C2_3  and  C3_4 
REMARK    3  A    between atoms: C3_4  and  C4_5 
REMARK    4  A    between atoms: C7_8  and  C8_9 
REMARK    5  A    between atoms: C8_9  and  C9_10 
REMARK    6  A    between atoms: C18_22  and  C19_23 
REMARK       I    between atoms: C19_23  and  N4_25 
ROOT
HETATM    1  C9  UNL     1      25.278   5.504  49.055  1.00  0.00     0.062 C 
HETATM    2  N2  UNL     1      24.227   6.065  48.416  1.00  0.00    -0.179 NA
HETATM    3  N3  UNL     1      22.970   5.531  48.946  1.00  0.00    -0.289 N 
HETATM    4  C10 UNL     1      22.805   4.111  48.661  1.00  0.00     0.106 C 
HETATM    5  C11 UNL     1      22.728   2.824  49.134  1.00  0.00     0.001 C 
HETATM    6  C12 UNL     1      22.720   1.724  50.116  1.00  0.00     0.093 C 
HETATM    7  S1  UNL     1      22.963   2.287  51.870  1.00  0.00    -0.193 SA
HETATM    8  C13 UNL     1      24.639   3.187  51.806  1.00  0.00     0.054 A 
HETATM    9  C14 UNL     1      23.517   3.813  52.141  1.00  0.00     0.073 A 
HETATM   10  C15 UNL     1      24.322   4.234  51.112  1.00  0.00     0.059 A 
HETATM   11  C16 UNL     1      25.134   4.599  50.129  1.00  0.00    -0.024 A 
HETATM   12  C17 UNL     1      26.147   3.592  50.241  1.00  0.00     0.024 A 
HETATM   13  C18 UNL     1      25.825   2.755  51.253  1.00  0.00     0.030 A 
HETATM   14  H11 UNL     1      22.224   6.090  49.486  1.00  0.00     0.188 HD
ENDROOT
BRANCH   1  15
HETATM   15  C8  UNL     1      26.663   5.887  48.659  1.00  0.00     0.034 C 
BRANCH  15  16
HETATM   16  C7  UNL     1      27.812   6.354  48.115  1.00  0.00     0.054 A 
HETATM   17  C6  UNL     1      28.014   7.635  47.338  1.00  0.00    -0.041 A 
HETATM   18  C5  UNL     1      29.174   6.908  47.426  1.00  0.00     0.021 A 
HETATM   19  C4  UNL     1      29.068   5.619  48.141  1.00  0.00     0.026 A 
BRANCH  19  20
HETATM   20  C3  UNL     1      30.367   5.292  48.043  1.00  0.00    -0.002 C 
BRANCH  20  21
HETATM   21  C2  UNL     1      31.676   4.675  47.771  1.00  0.00     0.106 C 
BRANCH  21  22
HETATM   22  N1  UNL     1      32.806   4.221  47.541  1.00  0.00    -0.307 NA
HETATM   23  C1  UNL     1      33.121   2.829  47.416  1.00  0.00     0.177 C 
ENDBRANCH  21  22
ENDBRANCH  20  21
ENDBRANCH  19  20
ENDBRANCH  15  16
ENDBRANCH   1  15
BRANCH  13  24
HETATM   24  C19 UNL     1      26.631   1.689  51.787  1.00  0.00     0.248 C 
HETATM   25  O1  UNL     1      26.930   0.469  51.842  1.00  0.00    -0.268 OA
HETATM   26  N4  UNL     1      27.537   2.427  52.709  1.00  0.00    -0.361 N 
HETATM   27  C20 UNL     1      28.638   1.978  53.582  1.00  0.00     0.149 C 
HETATM   28  H19 UNL     1      27.511   3.499  52.894  1.00  0.00     0.162 HD
ENDBRANCH  13  24
TORSDOF 6
ENDMDL
MODEL 3
REMARK VINA RESULT:      -7.4      6.102      8.480
REMARK  6 active torsions:
REMARK  status: ('A' for Active; 'I' for Inactive)
REMARK    1  A    between atoms: N1_2  and  C2_3 
REMARK    2  A    between atoms: C2_3  and  C3_4 
REMARK    3  A    between atoms: C3_4  and  C4_5 
REMARK    4  A    between atoms: C7_8  and  C8_9 
REMARK    5  A    between atoms: C8_9  and  C9_10 
REMARK    6  A    between atoms: C18_22  and  C19_23 
REMARK       I    between atoms: C19_23  and  N4_25 
ROOT
HETATM    1  C9  UNL     1      27.273   6.786  48.586  1.00  0.00     0.062 C 
HETATM    2  N2  UNL     1      26.638   7.951  48.841  1.00  0.00    -0.179 NA
HETATM    3  N3  UNL     1      27.475   9.083  48.435  1.00  0.00    -0.289 N 
HETATM    4  C10 UNL     1      28.689   9.191  49.235  1.00  0.00     0.106 C 
HETATM    5  C11 UNL     1      30.059   9.115  49.298  1.00  0.00     0.001 C 
HETATM    6  C12 UNL     1      31.442   8.912  48.831  1.00  0.00     0.093 C 
HETATM    7  S1  UNL     1      31.564   8.462  47.032  1.00  0.00    -0.193 SA
HETATM    8  C13 UNL     1      30.520   6.876  46.911  1.00  0.00     0.054 A 
HETATM    9  C14 UNL     1      30.202   7.979  46.244  1.00  0.00     0.073 A 
HETATM   10  C15 UNL     1      29.332   7.357  47.103  1.00  0.00     0.059 A 
HETATM   11  C16 UNL     1      28.529   6.717  47.944  1.00  0.00    -0.024 A 
HETATM   12  C17 UNL     1      29.378   5.634  48.340  1.00  0.00     0.024 A 
HETATM   13  C18 UNL     1      30.568   5.753  47.710  1.00  0.00     0.030 A 
HETATM   14  H11 UNL     1      27.253   9.781  47.645  1.00  0.00     0.188 HD
ENDROOT
BRANCH   1  15
HETATM   15  C8  UNL     1      26.611   5.499  48.941  1.00  0.00     0.034 C 
BRANCH  15  16
HETATM   16  C7  UNL     1      25.845   4.471  49.378  1.00  0.00     0.054 A 
HETATM   17  C6  UNL     1      24.379   4.227  49.100  1.00  0.00    -0.041 A 
HETATM   18  C5  UNL     1      24.906   3.265  49.925  1.00  0.00     0.021 A 
HETATM   19  C4  UNL     1      26.330   3.438  50.281  1.00  0.00     0.026 A 
BRANCH  19  20
HETATM   20  C3  UNL     1      26.435   2.313  51.007  1.00  0.00    -0.002 C 
BRANCH  20  21
HETATM   21  C2  UNL     1      26.855   1.186  51.856  1.00  0.00     0.106 C 
BRANCH  21  22
HETATM   22  N1  UNL     1      27.213   0.281  52.625  1.00  0.00    -0.307 NA
HETATM   23  C1  UNL     1      27.781   0.487  53.924  1.00  0.00     0.177 C 
ENDBRANCH  21  22
ENDBRANCH  20  21
ENDBRANCH  19  20
ENDBRANCH  15  16
ENDBRANCH   1  15
BRANCH  13  24
HETATM   24  C19 UNL     1      31.656   4.812  47.722  1.00  0.00     0.248 C 
HETATM   25  O1  UNL     1      32.361   3.966  48.331  1.00  0.00    -0.268 OA
HETATM   26  N4  UNL     1      32.158   4.909  46.325  1.00  0.00    -0.361 N 
HETATM   27  C20 UNL     1      33.248   4.214  45.616  1.00  0.00     0.149 C 
HETATM   28  H19 UNL     1      31.762   5.572  45.558  1.00  0.00     0.162 HD
ENDBRANCH  13  24
TORSDOF 6
ENDMDL
MODEL 4
REMARK VINA RESULT:      -7.3      5.072      7.068
REMARK  6 active torsions:
REMARK  status: ('A' for Active; 'I' for Inactive)
REMARK    1  A    between atoms: N1_2  and  C2_3 
REMARK    2  A    between atoms: C2_3  and  C3_4 
REMARK    3  A    between atoms: C3_4  and  C4_5 
REMARK    4  A    between atoms: C7_8  and  C8_9 
REMARK    5  A    between atoms: C8_9  and  C9_10 
REMARK    6  A    between atoms: C18_22  and  C19_23 
REMARK       I    between atoms: C19_23  and  N4_25 
ROOT
HETATM    1  C9  UNL     1      25.178   6.643  48.757  1.00  0.00     0.062 C 
HETATM    2  N2  UNL     1      24.324   7.659  49.012  1.00  0.00    -0.179 NA
HETATM    3  N3  UNL     1      24.961   8.944  48.711  1.00  0.00    -0.289 N 
HETATM    4  C10 UNL     1      26.082   9.230  49.597  1.00  0.00     0.106 C 
HETATM    5  C11 UNL     1      27.436   9.400  49.753  1.00  0.00     0.001 C 
HETATM    6  C12 UNL     1      28.859   9.476  49.376  1.00  0.00     0.093 C 
HETATM    7  S1  UNL     1      29.172   9.150  47.573  1.00  0.00    -0.193 SA
HETATM    8  C13 UNL     1      28.448   7.408  47.318  1.00  0.00     0.054 A 
HETATM    9  C14 UNL     1      27.974   8.468  46.673  1.00  0.00     0.073 A 
HETATM   10  C15 UNL     1      27.183   7.655  47.444  1.00  0.00     0.059 A 
HETATM   11  C16 UNL     1      26.462   6.837  48.201  1.00  0.00    -0.024 A 
HETATM   12  C17 UNL     1      27.470   5.908  48.613  1.00  0.00     0.024 A 
HETATM   13  C18 UNL     1      28.654   6.273  48.073  1.00  0.00     0.030 A 
HETATM   14  H11 UNL     1      24.663   9.630  47.936  1.00  0.00     0.188 HD
ENDROOT
BRANCH   1  15
HETATM   15  C8  UNL     1      24.745   5.241  49.014  1.00  0.00     0.034 C 
BRANCH  15  16
HETATM   16  C7  UNL     1      24.442   4.003  49.472  1.00  0.00     0.054 A 
HETATM   17  C6  UNL     1      23.194   3.195  49.196  1.00  0.00    -0.041 A 
HETATM   18  C5  UNL     1      24.049   2.535  50.043  1.00  0.00     0.021 A 
HETATM   19  C4  UNL     1      25.286   3.262  50.397  1.00  0.00     0.026 A 
BRANCH  19  20
HETATM   20  C3  UNL     1      25.819   2.284  51.147  1.00  0.00    -0.002 C 
BRANCH  20  21
HETATM   21  C2  UNL     1      26.663   1.410  51.978  1.00  0.00     0.106 C 
BRANCH  21  22
HETATM   22  N1  UNL     1      27.426   0.721  52.671  1.00  0.00    -0.307 NA
HETATM   23  C1  UNL     1      28.527   1.231  53.434  1.00  0.00     0.177 C 
ENDBRANCH  21  22
ENDBRANCH  20  21
ENDBRANCH  19  20
ENDBRANCH  15  16
ENDBRANCH   1  15
BRANCH  13  24
HETATM   24  C19 UNL     1      29.894   5.546  48.123  1.00  0.00     0.248 C 
HETATM   25  O1  UNL     1      30.659   4.657  47.666  1.00  0.00    -0.268 OA
HETATM   26  N4  UNL     1      30.574   6.184  49.283  1.00  0.00    -0.361 N 
HETATM   27  C20 UNL     1      31.893   5.958  49.903  1.00  0.00     0.149 C 
HETATM   28  H19 UNL     1      30.156   6.978  49.899  1.00  0.00     0.162 HD
ENDBRANCH  13  24
TORSDOF 6
ENDMDL
MODEL 5
REMARK VINA RESULT:      -7.3      2.989      6.467
REMARK  6 active torsions:
REMARK  status: ('A' for Active; 'I' for Inactive)
REMARK    1  A    between atoms: N1_2  and  C2_3 
REMARK    2  A    between atoms: C2_3  and  C3_4 
REMARK    3  A    between atoms: C3_4  and  C4_5 
REMARK    4  A    between atoms: C7_8  and  C8_9 
REMARK    5  A    between atoms: C8_9  and  C9_10 
REMARK    6  A    between atoms: C18_22  and  C19_23 
REMARK       I    between atoms: C19_23  and  N4_25 
ROOT
HETATM    1  C9  UNL     1      23.006   0.077  52.800  1.00  0.00     0.062 C 
HETATM    2  N2  UNL     1      23.040  -0.913  53.721  1.00  0.00    -0.179 NA
HETATM    3  N3  UNL     1      24.292  -0.854  54.480  1.00  0.00    -0.289 N 
HETATM    4  C10 UNL     1      25.458  -1.137  53.653  1.00  0.00     0.106 C 
HETATM    5  C11 UNL     1      26.617  -0.686  53.070  1.00  0.00     0.001 C 
HETATM    6  C12 UNL     1      27.687   0.259  52.704  1.00  0.00     0.093 C 
HETATM    7  S1  UNL     1      27.445   1.967  53.397  1.00  0.00    -0.193 SA
HETATM    8  C13 UNL     1      25.753   2.482  52.693  1.00  0.00     0.054 A 
HETATM    9  C14 UNL     1      25.968   2.374  53.999  1.00  0.00     0.073 A 
HETATM   10  C15 UNL     1      24.969   1.690  53.353  1.00  0.00     0.059 A 
HETATM   11  C16 UNL     1      24.019   1.053  52.681  1.00  0.00    -0.024 A 
HETATM   12  C17 UNL     1      24.257   1.551  51.359  1.00  0.00     0.024 A 
HETATM   13  C18 UNL     1      25.305   2.404  51.392  1.00  0.00     0.030 A 
HETATM   14  H11 UNL     1      24.383  -0.635  55.531  1.00  0.00     0.188 HD
ENDROOT
BRANCH   1  15
HETATM   15  C8  UNL     1      21.827   0.193  51.896  1.00  0.00     0.034 C 
BRANCH  15  16
HETATM   16  C7  UNL     1      20.677   0.467  51.235  1.00  0.00     0.054 A 
HETATM   17  C6  UNL     1      20.521   1.154  49.897  1.00  0.00    -0.041 A 
HETATM   18  C5  UNL     1      19.305   0.834  50.448  1.00  0.00     0.021 A 
HETATM   19  C4  UNL     1      19.355   0.187  51.775  1.00  0.00     0.026 A 
BRANCH  19  20
HETATM   20  C3  UNL     1      18.030   0.010  51.900  1.00  0.00    -0.002 C 
BRANCH  20  21
HETATM   21  C2  UNL     1      16.654  -0.266  52.343  1.00  0.00     0.106 C 
BRANCH  21  22
HETATM   22  N1  UNL     1      15.485  -0.535  52.657  1.00  0.00    -0.307 NA
HETATM   23  C1  UNL     1      14.491   0.430  53.025  1.00  0.00     0.177 C 
ENDBRANCH  21  22
ENDBRANCH  20  21
ENDBRANCH  19  20
ENDBRANCH  15  16
ENDBRANCH   1  15
BRANCH  13  24
HETATM   24  C19 UNL     1      25.792   3.223  50.314  1.00  0.00     0.248 C 
HETATM   25  O1  UNL     1      26.416   3.341  49.228  1.00  0.00    -0.268 OA
HETATM   26  N4  UNL     1      25.293   4.569  50.705  1.00  0.00    -0.361 N 
HETATM   27  C20 UNL     1      25.400   5.890  50.058  1.00  0.00     0.149 C 
HETATM   28  H19 UNL     1      24.730   4.794  51.610  1.00  0.00     0.162 HD
ENDBRANCH  13  24
TORSDOF 6
ENDMDL
MODEL 6
REMARK VINA RESULT:      -7.1      4.325      7.384
REMARK  6 active torsions:
REMARK  status: ('A' for Active; 'I' for Inactive)
REMARK    1  A    between atoms: N1_2  and  C2_3 
REMARK    2  A    between atoms: C2_3  and  C3_4 
REMARK    3  A    between atoms: C3_4  and  C4_5 
REMARK    4  A    between atoms: C7_8  and  C8_9 
REMARK    5  A    between atoms: C8_9  and  C9_10 
REMARK    6  A    between atoms: C18_22  and  C19_23 
REMARK       I    between atoms: C19_23  and  N4_25 
ROOT
HETATM    1  C9  UNL     1      26.247   3.555  49.837  1.00  0.00     0.062 C 
HETATM    2  N2  UNL     1      26.778   2.733  50.770  1.00  0.00    -0.179 NA
HETATM    3  N3  UNL     1      25.719   1.965  51.429  1.00  0.00    -0.289 N 
HETATM    4  C10 UNL     1      24.822   2.808  52.209  1.00  0.00     0.106 C 
HETATM    5  C11 UNL     1      23.567   3.338  52.380  1.00  0.00     0.001 C 
HETATM    6  C12 UNL     1      22.145   3.606  52.102  1.00  0.00     0.093 C 
HETATM    7  S1  UNL     1      21.508   2.755  50.577  1.00  0.00    -0.193 SA
HETATM    8  C13 UNL     1      22.651   3.417  49.205  1.00  0.00     0.054 A 
HETATM    9  C14 UNL     1      22.595   2.126  49.512  1.00  0.00     0.073 A 
HETATM   10  C15 UNL     1      23.766   2.840  49.525  1.00  0.00     0.059 A 
HETATM   11  C16 UNL     1      24.870   3.575  49.522  1.00  0.00    -0.024 A 
HETATM   12  C17 UNL     1      24.338   4.842  49.118  1.00  0.00     0.024 A 
HETATM   13  C18 UNL     1      23.003   4.722  48.937  1.00  0.00     0.030 A 
HETATM   14  H11 UNL     1      25.584   0.897  51.372  1.00  0.00     0.188 HD
ENDROOT
BRANCH   1  15
HETATM   15  C8  UNL     1      27.145   4.451  49.056  1.00  0.00     0.034 C 
BRANCH  15  16
HETATM   16  C7  UNL     1      27.884   5.440  48.499  1.00  0.00     0.054 A 
HETATM   17  C6  UNL     1      27.408   6.794  48.023  1.00  0.00    -0.041 A 
HETATM   18  C5  UNL     1      28.751   6.620  47.796  1.00  0.00     0.021 A 
HETATM   19  C4  UNL     1      29.302   5.310  48.200  1.00  0.00     0.026 A 
BRANCH  19  20
HETATM   20  C3  UNL     1      30.576   5.582  47.871  1.00  0.00    -0.002 C 
BRANCH  20  21
HETATM   21  C2  UNL     1      32.038   5.732  47.794  1.00  0.00     0.106 C 
BRANCH  21  22
HETATM   22  N1  UNL     1      33.276   5.795  47.761  1.00  0.00    -0.307 NA
HETATM   23  C1  UNL     1      34.120   4.960  46.959  1.00  0.00     0.177 C 
ENDBRANCH  21  22
ENDBRANCH  20  21
ENDBRANCH  19  20
ENDBRANCH  15  16
ENDBRANCH   1  15
BRANCH  13  24
HETATM   24  C19 UNL     1      22.106   5.714  48.408  1.00  0.00     0.248 C 
HETATM   25  O1  UNL     1      21.415   6.166  47.458  1.00  0.00    -0.268 OA
HETATM   26  N4  UNL     1      21.928   6.618  49.577  1.00  0.00    -0.361 N 
HETATM   27  C20 UNL     1      21.125   7.840  49.768  1.00  0.00     0.149 C 
HETATM   28  H19 UNL     1      22.413   6.500  50.544  1.00  0.00     0.162 HD
ENDBRANCH  13  24
TORSDOF 6
ENDMDL
MODEL 7
REMARK VINA RESULT:      -6.8      4.272      7.819
REMARK  6 active torsions:
REMARK  status: ('A' for Active; 'I' for Inactive)
REMARK    1  A    between atoms: N1_2  and  C2_3 
REMARK    2  A    between atoms: C2_3  and  C3_4 
REMARK    3  A    between atoms: C3_4  and  C4_5 
REMARK    4  A    between atoms: C7_8  and  C8_9 
REMARK    5  A    between atoms: C8_9  and  C9_10 
REMARK    6  A    between atoms: C18_22  and  C19_23 
REMARK       I    between atoms: C19_23  and  N4_25 
ROOT
HETATM    1  C9  UNL     1      26.268   3.559  49.834  1.00  0.00     0.062 C 
HETATM    2  N2  UNL     1      26.796   2.745  50.776  1.00  0.00    -0.179 NA
HETATM    3  N3  UNL     1      25.733   1.984  51.439  1.00  0.00    -0.289 N 
HETATM    4  C10 UNL     1      24.837   2.836  52.210  1.00  0.00     0.106 C 
HETATM    5  C11 UNL     1      23.582   3.370  52.372  1.00  0.00     0.001 C 
HETATM    6  C12 UNL     1      22.161   3.638  52.088  1.00  0.00     0.093 C 
HETATM    7  S1  UNL     1      21.527   2.774  50.569  1.00  0.00    -0.193 SA
HETATM    8  C13 UNL     1      22.674   3.421  49.195  1.00  0.00     0.054 A 
HETATM    9  C14 UNL     1      22.615   2.133  49.513  1.00  0.00     0.073 A 
HETATM   10  C15 UNL     1      23.787   2.845  49.523  1.00  0.00     0.059 A 
HETATM   11  C16 UNL     1      24.893   3.578  49.515  1.00  0.00    -0.024 A 
HETATM   12  C17 UNL     1      24.364   4.842  49.098  1.00  0.00     0.024 A 
HETATM   13  C18 UNL     1      23.030   4.723  48.916  1.00  0.00     0.030 A 
HETATM   14  H11 UNL     1      25.597   0.916  51.392  1.00  0.00     0.188 HD
ENDROOT
BRANCH   1  15
HETATM   15  C8  UNL     1      27.170   4.446  49.047  1.00  0.00     0.034 C 
BRANCH  15  16
HETATM   16  C7  UNL     1      27.890   5.433  48.462  1.00  0.00     0.054 A 
HETATM   17  C6  UNL     1      29.368   5.432  48.140  1.00  0.00    -0.041 A 
HETATM   18  C5  UNL     1      28.774   6.622  47.796  1.00  0.00     0.021 A 
HETATM   19  C4  UNL     1      27.332   6.728  48.105  1.00  0.00     0.026 A 
BRANCH  19  20
HETATM   20  C3  UNL     1      27.163   7.954  47.582  1.00  0.00    -0.002 C 
BRANCH  20  21
HETATM   21  C2  UNL     1      26.762   9.331  47.253  1.00  0.00     0.106 C 
BRANCH  21  22
HETATM   22  N1  UNL     1      26.395  10.496  47.039  1.00  0.00    -0.307 NA
HETATM   23  C1  UNL     1      26.131  11.472  48.054  1.00  0.00     0.177 C 
ENDBRANCH  21  22
ENDBRANCH  20  21
ENDBRANCH  19  20
ENDBRANCH  15  16
ENDBRANCH   1  15
BRANCH  13  24
HETATM   24  C19 UNL     1      22.135   5.712  48.375  1.00  0.00     0.248 C 
HETATM   25  O1  UNL     1      20.977   6.190  48.259  1.00  0.00    -0.268 OA
HETATM   26  N4  UNL     1      23.065   6.562  47.583  1.00  0.00    -0.361 N 
HETATM   27  C20 UNL     1      22.848   7.775  46.773  1.00  0.00     0.149 C 
HETATM   28  H19 UNL     1      24.134   6.392  47.473  1.00  0.00     0.162 HD
ENDBRANCH  13  24
TORSDOF 6
ENDMDL
MODEL 8
REMARK VINA RESULT:      -6.7      2.370      2.845
REMARK  6 active torsions:
REMARK  status: ('A' for Active; 'I' for Inactive)
REMARK    1  A    between atoms: N1_2  and  C2_3 
REMARK    2  A    between atoms: C2_3  and  C3_4 
REMARK    3  A    between atoms: C3_4  and  C4_5 
REMARK    4  A    between atoms: C7_8  and  C8_9 
REMARK    5  A    between atoms: C8_9  and  C9_10 
REMARK    6  A    between atoms: C18_22  and  C19_23 
REMARK       I    between atoms: C19_23  and  N4_25 
ROOT
HETATM    1  C9  UNL     1      22.255   1.736  50.087  1.00  0.00     0.062 C 
HETATM    2  N2  UNL     1      21.220   0.866  50.058  1.00  0.00    -0.179 NA
HETATM    3  N3  UNL     1      20.317   1.191  48.951  1.00  0.00    -0.289 N 
HETATM    4  C10 UNL     1      19.657   2.477  49.131  1.00  0.00     0.106 C 
HETATM    5  C11 UNL     1      19.490   3.775  48.713  1.00  0.00     0.001 C 
HETATM    6  C12 UNL     1      19.687   4.987  47.898  1.00  0.00     0.093 C 
HETATM    7  S1  UNL     1      20.929   4.775  46.531  1.00  0.00    -0.193 SA
HETATM    8  C13 UNL     1      22.509   4.262  47.460  1.00  0.00     0.054 A 
HETATM    9  C14 UNL     1      21.929   3.468  46.569  1.00  0.00     0.073 A 
HETATM   10  C15 UNL     1      22.177   3.076  47.859  1.00  0.00     0.059 A 
HETATM   11  C16 UNL     1      22.440   2.746  49.118  1.00  0.00    -0.024 A 
HETATM   12  C17 UNL     1      23.056   3.953  49.580  1.00  0.00     0.024 A 
HETATM   13  C18 UNL     1      23.083   4.849  48.568  1.00  0.00     0.030 A 
HETATM   14  H11 UNL     1      20.131   0.574  48.087  1.00  0.00     0.188 HD
ENDROOT
BRANCH   1  15
HETATM   15  C8  UNL     1      23.290   1.606  51.151  1.00  0.00     0.034 C 
BRANCH  15  16
HETATM   16  C7  UNL     1      24.233   1.732  52.115  1.00  0.00     0.054 A 
HETATM   17  C6  UNL     1      24.408   2.872  53.093  1.00  0.00    -0.041 A 
HETATM   18  C5  UNL     1      25.380   1.916  53.250  1.00  0.00     0.021 A 
HETATM   19  C4  UNL     1      25.311   0.775  52.313  1.00  0.00     0.026 A 
BRANCH  19  20
HETATM   20  C3  UNL     1      26.349   0.099  52.831  1.00  0.00    -0.002 C 
BRANCH  20  21
HETATM   21  C2  UNL     1      27.452  -0.828  53.133  1.00  0.00     0.106 C 
BRANCH  21  22
HETATM   22  N1  UNL     1      28.413  -1.587  53.329  1.00  0.00    -0.307 NA
HETATM   23  C1  UNL     1      29.753  -1.160  53.602  1.00  0.00     0.177 C 
ENDBRANCH  21  22
ENDBRANCH  20  21
ENDBRANCH  19  20
ENDBRANCH  15  16
ENDBRANCH   1  15
BRANCH  13  24
HETATM   24  C19 UNL     1      23.728   6.135  48.563  1.00  0.00     0.248 C 
HETATM   25  O1  UNL     1      23.663   7.389  48.486  1.00  0.00    -0.268 OA
HETATM   26  N4  UNL     1      25.156   5.759  48.747  1.00  0.00    -0.361 N 
HETATM   27  C20 UNL     1      26.385   6.567  48.856  1.00  0.00     0.149 C 
HETATM   28  H19 UNL     1      25.534   4.742  48.829  1.00  0.00     0.162 HD
ENDBRANCH  13  24
TORSDOF 6
ENDMDL
MODEL 9
REMARK VINA RESULT:      -6.7      6.135      9.013
REMARK  6 active torsions:
REMARK  status: ('A' for Active; 'I' for Inactive)
REMARK    1  A    between atoms: N1_2  and  C2_3 
REMARK    2  A    between atoms: C2_3  and  C3_4 
REMARK    3  A    between atoms: C3_4  and  C4_5 
REMARK    4  A    between atoms: C7_8  and  C8_9 
REMARK    5  A    between atoms: C8_9  and  C9_10 
REMARK    6  A    between atoms: C18_22  and  C19_23 
REMARK       I    between atoms: C19_23  and  N4_25 
ROOT
HETATM    1  C9  UNL     1      27.222   6.850  48.613  1.00  0.00     0.062 C 
HETATM    2  N2  UNL     1      26.546   7.977  48.929  1.00  0.00    -0.179 NA
HETATM    3  N3  UNL     1      27.321   9.158  48.538  1.00  0.00    -0.289 N 
HETATM    4  C10 UNL     1      28.555   9.291  49.302  1.00  0.00     0.106 C 
HETATM    5  C11 UNL     1      29.928   9.272  49.319  1.00  0.00     0.001 C 
HETATM    6  C12 UNL     1      31.303   9.145  48.802  1.00  0.00     0.093 C 
HETATM    7  S1  UNL     1      31.384   8.762  46.985  1.00  0.00    -0.193 SA
HETATM    8  C13 UNL     1      30.404   7.137  46.842  1.00  0.00     0.054 A 
HETATM    9  C14 UNL     1      30.019   8.247  46.224  1.00  0.00     0.073 A 
HETATM   10  C15 UNL     1      29.204   7.559  47.087  1.00  0.00     0.059 A 
HETATM   11  C16 UNL     1      28.457   6.857  47.930  1.00  0.00    -0.024 A 
HETATM   12  C17 UNL     1      29.364   5.799  48.261  1.00  0.00     0.024 A 
HETATM   13  C18 UNL     1      30.526   5.991  47.598  1.00  0.00     0.030 A 
HETATM   14  H11 UNL     1      27.044   9.872  47.780  1.00  0.00     0.188 HD
ENDROOT
BRANCH   1  15
HETATM   15  C8  UNL     1      26.626   5.525  48.944  1.00  0.00     0.034 C 
BRANCH  15  16
HETATM   16  C7  UNL     1      25.907   4.451  49.350  1.00  0.00     0.054 A 
HETATM   17  C6  UNL     1      26.431   3.114  49.826  1.00  0.00    -0.041 A 
HETATM   18  C5  UNL     1      25.058   3.143  49.804  1.00  0.00     0.021 A 
HETATM   19  C4  UNL     1      24.453   4.401  49.320  1.00  0.00     0.026 A 
BRANCH  19  20
HETATM   20  C3  UNL     1      23.177   4.031  49.510  1.00  0.00    -0.002 C 
BRANCH  20  21
HETATM   21  C2  UNL     1      21.737   3.938  49.802  1.00  0.00     0.106 C 
BRANCH  21  22
HETATM   22  N1  UNL     1      20.533   3.909  50.097  1.00  0.00    -0.307 NA
HETATM   23  C1  UNL     1      20.015   3.941  51.433  1.00  0.00     0.177 C 
ENDBRANCH  21  22
ENDBRANCH  20  21
ENDBRANCH  19  20
ENDBRANCH  15  16
ENDBRANCH   1  15
BRANCH  13  24
HETATM   24  C19 UNL     1      31.653   5.097  47.543  1.00  0.00     0.248 C 
HETATM   25  O1  UNL     1      32.175   4.022  47.150  1.00  0.00    -0.268 OA
HETATM   26  N4  UNL     1      32.668   5.839  48.338  1.00  0.00    -0.361 N 
HETATM   27  C20 UNL     1      34.068   5.532  48.686  1.00  0.00     0.149 C 
HETATM   28  H19 UNL     1      32.508   6.798  48.827  1.00  0.00     0.162 HD
ENDBRANCH  13  24
TORSDOF 6
ENDMDL
