MODEL 1
REMARK VINA RESULT:      -8.0      0.000      0.000
REMARK  3 active torsions:
REMARK  status: ('A' for Active; 'I' for Inactive)
REMARK    1  A    between atoms: P1_8  and  C7_9 
REMARK    2  A    between atoms: C7_9  and  N1_10 
REMARK    3  A    between atoms: N1_10  and  C8_11 
ROOT
HETATM    1  C8  UNL     1      24.498   3.014  52.940  1.00  0.00     0.137 C 
HETATM    2  C9  UNL     1      24.892   1.812  53.327  1.00  0.00     0.177 C 
HETATM    3  N2  UNL     1      24.068   0.660  53.193  1.00  0.00    -0.223 NA
HETATM    4  C10 UNL     1      24.584  -0.495  53.313  1.00  0.00     0.106 C 
HETATM    5  C11 UNL     1      25.609  -0.723  54.095  1.00  0.00     0.146 C 
HETATM    6  N3  UNL     1      26.551   0.325  54.299  1.00  0.00    -0.282 N 
HETATM    7  C12 UNL     1      27.874   0.180  54.882  1.00  0.00     0.154 C 
HETATM    8  C13 UNL     1      28.831   0.921  53.973  1.00  0.00     0.076 C 
HETATM    9  C14 UNL     1      28.312   2.223  53.461  1.00  0.00     0.264 C 
HETATM   10  F1  UNL     1      28.007   2.071  52.101  1.00  0.00    -0.231 F 
HETATM   11  N4  UNL     1      27.082   2.668  54.091  1.00  0.00    -0.183 NA
HETATM   12  N5  UNL     1      26.179   1.614  53.905  1.00  0.00    -0.194 N 
HETATM   13  H16 UNL     1      27.287   2.707  55.124  1.00  0.00     0.151 HD
ENDROOT
BRANCH   1  14
HETATM   14  N1  UNL     1      23.191   3.088  52.378  1.00  0.00    -0.392 N 
HETATM   15  H8  UNL     1      22.977   2.063  52.332  1.00  0.00     0.159 HD
BRANCH  14  16
HETATM   16  C7  UNL     1      22.453   4.281  52.010  1.00  0.00     0.155 C 
BRANCH  16  17
HETATM   17  P1  UNL     1      23.018   4.742  50.347  1.00  0.00    -0.070 P 
HETATM   18  C2  UNL     1      24.271   6.020  50.449  1.00  0.00    -0.040 C 
HETATM   19  C1  UNL     1      23.940   7.105  51.134  1.00  0.00     0.024 C 
HETATM   20  C3  UNL     1      25.589   5.922  49.836  1.00  0.00     0.035 C 
HETATM   21  C4  UNL     1      25.915   4.703  49.426  1.00  0.00     0.035 C 
HETATM   22 CL1  UNL     1      27.498   4.566  48.686  1.00  0.00    -0.084 Cl
HETATM   23  C5  UNL     1      25.048   3.550  49.567  1.00  0.00     0.036 C 
HETATM   24  C6  UNL     1      23.762   3.443  49.750  1.00  0.00    -0.020 C 
HETATM   25  H5  UNL     1      21.948   5.155  49.523  1.00  0.00     0.064 HD
ENDBRANCH  16  17
ENDBRANCH  14  16
ENDBRANCH   1  14
TORSDOF 3
ENDMDL
MODEL 2
REMARK VINA RESULT:      -7.7      3.097      4.175
REMARK  3 active torsions:
REMARK  status: ('A' for Active; 'I' for Inactive)
REMARK    1  A    between atoms: P1_8  and  C7_9 
REMARK    2  A    between atoms: C7_9  and  N1_10 
REMARK    3  A    between atoms: N1_10  and  C8_11 
ROOT
HETATM    1  C8  UNL     1      24.277   3.416  52.766  1.00  0.00     0.137 C 
HETATM    2  C9  UNL     1      24.479   2.173  53.171  1.00  0.00     0.177 C 
HETATM    3  N2  UNL     1      23.474   1.170  53.079  1.00  0.00    -0.223 NA
HETATM    4  C10 UNL     1      23.795  -0.052  53.213  1.00  0.00     0.106 C 
HETATM    5  C11 UNL     1      24.788  -0.431  53.979  1.00  0.00     0.146 C 
HETATM    6  N3  UNL     1      25.894   0.451  54.140  1.00  0.00    -0.282 N 
HETATM    7  C12 UNL     1      27.188   0.101  54.699  1.00  0.00     0.154 C 
HETATM    8  C13 UNL     1      28.232   0.658  53.754  1.00  0.00     0.076 C 
HETATM    9  C14 UNL     1      27.922   2.018  53.225  1.00  0.00     0.264 C 
HETATM   10  F1  UNL     1      27.563   1.894  51.875  1.00  0.00    -0.231 F 
HETATM   11  N4  UNL     1      26.797   2.671  53.871  1.00  0.00    -0.183 NA
HETATM   12  N5  UNL     1      25.729   1.777  53.726  1.00  0.00    -0.194 N 
HETATM   13  H16 UNL     1      27.031   2.694  54.898  1.00  0.00     0.151 HD
ENDROOT
BRANCH   1  14
HETATM   14  N1  UNL     1      22.988   3.694  52.230  1.00  0.00    -0.392 N 
HETATM   15  H8  UNL     1      22.458   3.793  53.128  1.00  0.00     0.159 HD
BRANCH  14  16
HETATM   16  C7  UNL     1      22.613   3.792  50.831  1.00  0.00     0.155 C 
BRANCH  16  17
HETATM   17  P1  UNL     1      20.915   3.161  50.709  1.00  0.00    -0.070 P 
HETATM   18  C2  UNL     1      20.926   1.443  50.199  1.00  0.00    -0.040 C 
HETATM   19  C1  UNL     1      21.593   1.172  49.086  1.00  0.00     0.024 C 
HETATM   20  C3  UNL     1      20.259   0.371  50.926  1.00  0.00     0.035 C 
HETATM   21  C4  UNL     1      19.871   0.698  52.151  1.00  0.00     0.035 C 
HETATM   22 CL1  UNL     1      19.067  -0.581  53.042  1.00  0.00    -0.084 Cl
HETATM   23  C5  UNL     1      20.083   2.005  52.739  1.00  0.00     0.036 C 
HETATM   24  C6  UNL     1      20.324   3.172  52.208  1.00  0.00    -0.020 C 
HETATM   25  H5  UNL     1      20.127   3.939  49.831  1.00  0.00     0.064 HD
ENDBRANCH  16  17
ENDBRANCH  14  16
ENDBRANCH   1  14
TORSDOF 3
ENDMDL
MODEL 3
REMARK VINA RESULT:      -7.6      2.014      2.805
REMARK  3 active torsions:
REMARK  status: ('A' for Active; 'I' for Inactive)
REMARK    1  A    between atoms: P1_8  and  C7_9 
REMARK    2  A    between atoms: C7_9  and  N1_10 
REMARK    3  A    between atoms: N1_10  and  C8_11 
ROOT
HETATM    1  C8  UNL     1      24.220   3.142  52.936  1.00  0.00     0.137 C 
HETATM    2  C9  UNL     1      24.578   1.919  53.291  1.00  0.00     0.177 C 
HETATM    3  N2  UNL     1      23.695   0.808  53.194  1.00  0.00    -0.223 NA
HETATM    4  C10 UNL     1      24.161  -0.371  53.276  1.00  0.00     0.106 C 
HETATM    5  C11 UNL     1      25.217  -0.654  53.998  1.00  0.00     0.146 C 
HETATM    6  N3  UNL     1      26.217   0.346  54.156  1.00  0.00    -0.282 N 
HETATM    7  C12 UNL     1      27.562   0.135  54.662  1.00  0.00     0.154 C 
HETATM    8  C13 UNL     1      28.500   0.839  53.706  1.00  0.00     0.076 C 
HETATM    9  C14 UNL     1      28.016   2.169  53.234  1.00  0.00     0.264 C 
HETATM   10  F1  UNL     1      27.628   2.046  51.892  1.00  0.00    -0.231 F 
HETATM   11  N4  UNL     1      26.845   2.665  53.936  1.00  0.00    -0.183 NA
HETATM   12  N5  UNL     1      25.884   1.656  53.793  1.00  0.00    -0.194 N 
HETATM   13  H16 UNL     1      27.110   2.683  54.956  1.00  0.00     0.151 HD
ENDROOT
BRANCH   1  14
HETATM   14  N1  UNL     1      22.889   3.283  52.449  1.00  0.00    -0.392 N 
HETATM   15  H8  UNL     1      22.406   2.626  53.107  1.00  0.00     0.159 HD
BRANCH  14  16
HETATM   16  C7  UNL     1      22.431   4.117  51.354  1.00  0.00     0.155 C 
BRANCH  16  17
HETATM   17  P1  UNL     1      23.309   3.546  49.871  1.00  0.00    -0.070 P 
HETATM   18  C2  UNL     1      22.339   2.307  49.014  1.00  0.00    -0.040 C 
HETATM   19  C1  UNL     1      21.951   1.268  49.740  1.00  0.00     0.024 C 
HETATM   20  C3  UNL     1      21.972   2.387  47.606  1.00  0.00     0.035 C 
HETATM   21  C4  UNL     1      22.163   3.579  47.056  1.00  0.00     0.035 C 
HETATM   22 CL1  UNL     1      21.725   3.694  45.362  1.00  0.00    -0.084 Cl
HETATM   23  C5  UNL     1      22.690   4.720  47.776  1.00  0.00     0.036 C 
HETATM   24  C6  UNL     1      23.381   4.814  48.877  1.00  0.00    -0.020 C 
HETATM   25  H5  UNL     1      24.596   3.051  50.179  1.00  0.00     0.064 HD
ENDBRANCH  16  17
ENDBRANCH  14  16
ENDBRANCH   1  14
TORSDOF 3
ENDMDL
MODEL 4
REMARK VINA RESULT:      -7.4      1.306      1.935
REMARK  3 active torsions:
REMARK  status: ('A' for Active; 'I' for Inactive)
REMARK    1  A    between atoms: P1_8  and  C7_9 
REMARK    2  A    between atoms: C7_9  and  N1_10 
REMARK    3  A    between atoms: N1_10  and  C8_11 
ROOT
HETATM    1  C8  UNL     1      24.376   3.048  52.974  1.00  0.00     0.137 C 
HETATM    2  C9  UNL     1      24.776   1.842  53.340  1.00  0.00     0.177 C 
HETATM    3  N2  UNL     1      23.948   0.692  53.208  1.00  0.00    -0.223 NA
HETATM    4  C10 UNL     1      24.465  -0.465  53.306  1.00  0.00     0.106 C 
HETATM    5  C11 UNL     1      25.504  -0.702  54.066  1.00  0.00     0.146 C 
HETATM    6  N3  UNL     1      26.451   0.342  54.264  1.00  0.00    -0.282 N 
HETATM    7  C12 UNL     1      27.784   0.190  54.820  1.00  0.00     0.154 C 
HETATM    8  C13 UNL     1      28.725   0.940  53.901  1.00  0.00     0.076 C 
HETATM    9  C14 UNL     1      28.199   2.248  53.414  1.00  0.00     0.264 C 
HETATM   10  F1  UNL     1      27.868   2.111  52.058  1.00  0.00    -0.231 F 
HETATM   11  N4  UNL     1      26.981   2.688  54.072  1.00  0.00    -0.183 NA
HETATM   12  N5  UNL     1      26.073   1.636  53.891  1.00  0.00    -0.194 N 
HETATM   13  H16 UNL     1      27.206   2.715  55.101  1.00  0.00     0.151 HD
ENDROOT
BRANCH   1  14
HETATM   14  N1  UNL     1      23.059   3.130  52.437  1.00  0.00    -0.392 N 
HETATM   15  H8  UNL     1      22.589   2.428  53.057  1.00  0.00     0.159 HD
BRANCH  14  16
HETATM   16  C7  UNL     1      22.598   3.971  51.349  1.00  0.00     0.155 C 
BRANCH  16  17
HETATM   17  P1  UNL     1      23.855   5.264  51.130  1.00  0.00    -0.070 P 
HETATM   18  C2  UNL     1      24.834   4.937  49.666  1.00  0.00    -0.040 C 
HETATM   19  C1  UNL     1      25.398   3.739  49.600  1.00  0.00     0.024 C 
HETATM   20  C3  UNL     1      25.031   5.893  48.585  1.00  0.00     0.035 C 
HETATM   21  C4  UNL     1      24.208   6.933  48.615  1.00  0.00     0.035 C 
HETATM   22 CL1  UNL     1      24.430   8.094  47.321  1.00  0.00    -0.084 Cl
HETATM   23  C5  UNL     1      23.190   7.122  49.629  1.00  0.00     0.036 C 
HETATM   24  C6  UNL     1      23.048   6.626  50.826  1.00  0.00    -0.020 C 
HETATM   25  H5  UNL     1      24.682   5.391  52.269  1.00  0.00     0.064 HD
ENDBRANCH  16  17
ENDBRANCH  14  16
ENDBRANCH   1  14
TORSDOF 3
ENDMDL
MODEL 5
REMARK VINA RESULT:      -7.4      2.045      2.702
REMARK  3 active torsions:
REMARK  status: ('A' for Active; 'I' for Inactive)
REMARK    1  A    between atoms: P1_8  and  C7_9 
REMARK    2  A    between atoms: C7_9  and  N1_10 
REMARK    3  A    between atoms: N1_10  and  C8_11 
ROOT
HETATM    1  C8  UNL     1      24.221   4.008  52.958  1.00  0.00     0.137 C 
HETATM    2  C9  UNL     1      24.185   2.688  53.034  1.00  0.00     0.177 C 
HETATM    3  N2  UNL     1      23.029   1.936  52.682  1.00  0.00    -0.223 NA
HETATM    4  C10 UNL     1      23.128   0.683  52.503  1.00  0.00     0.106 C 
HETATM    5  C11 UNL     1      24.000  -0.047  53.154  1.00  0.00     0.146 C 
HETATM    6  N3  UNL     1      25.231   0.553  53.542  1.00  0.00    -0.282 N 
HETATM    7  C12 UNL     1      26.415  -0.151  54.001  1.00  0.00     0.154 C 
HETATM    8  C13 UNL     1      27.587   0.428  53.236  1.00  0.00     0.076 C 
HETATM    9  C14 UNL     1      27.543   1.909  53.069  1.00  0.00     0.264 C 
HETATM   10  F1  UNL     1      27.239   2.193  51.730  1.00  0.00    -0.231 F 
HETATM   11  N4  UNL     1      26.515   2.571  53.853  1.00  0.00    -0.183 NA
HETATM   12  N5  UNL     1      25.318   1.948  53.478  1.00  0.00    -0.194 N 
HETATM   13  H16 UNL     1      26.695   2.295  54.853  1.00  0.00     0.151 HD
ENDROOT
BRANCH   1  14
HETATM   14  N1  UNL     1      23.028   4.637  52.502  1.00  0.00    -0.392 N 
HETATM   15  H8  UNL     1      22.328   3.985  52.929  1.00  0.00     0.159 HD
BRANCH  14  16
HETATM   16  C7  UNL     1      22.914   5.833  51.687  1.00  0.00     0.155 C 
BRANCH  16  17
HETATM   17  P1  UNL     1      22.370   5.284  50.044  1.00  0.00    -0.070 P 
HETATM   18  C2  UNL     1      23.528   4.095  49.371  1.00  0.00    -0.040 C 
HETATM   19  C1  UNL     1      24.796   4.480  49.325  1.00  0.00     0.024 C 
HETATM   20  C3  UNL     1      23.154   2.771  48.890  1.00  0.00     0.035 C 
HETATM   21  C4  UNL     1      21.933   2.387  49.239  1.00  0.00     0.035 C 
HETATM   22 CL1  UNL     1      21.465   0.796  48.669  1.00  0.00    -0.084 Cl
HETATM   23  C5  UNL     1      21.031   3.197  50.032  1.00  0.00     0.036 C 
HETATM   24  C6  UNL     1      20.993   4.478  50.274  1.00  0.00    -0.020 C 
HETATM   25  H5  UNL     1      22.196   6.371  49.158  1.00  0.00     0.064 HD
ENDBRANCH  16  17
ENDBRANCH  14  16
ENDBRANCH   1  14
TORSDOF 3
ENDMDL
MODEL 6
REMARK VINA RESULT:      -7.2      3.564      6.365
REMARK  3 active torsions:
REMARK  status: ('A' for Active; 'I' for Inactive)
REMARK    1  A    between atoms: P1_8  and  C7_9 
REMARK    2  A    between atoms: C7_9  and  N1_10 
REMARK    3  A    between atoms: N1_10  and  C8_11 
ROOT
HETATM    1  C8  UNL     1      23.536   2.663  52.647  1.00  0.00     0.137 C 
HETATM    2  C9  UNL     1      22.666   2.241  51.743  1.00  0.00     0.177 C 
HETATM    3  N2  UNL     1      22.907   2.353  50.345  1.00  0.00    -0.223 NA
HETATM    4  C10 UNL     1      22.188   1.692  49.532  1.00  0.00     0.106 C 
HETATM    5  C11 UNL     1      20.937   1.401  49.786  1.00  0.00     0.146 C 
HETATM    6  N3  UNL     1      20.546   1.216  51.143  1.00  0.00    -0.282 N 
HETATM    7  C12 UNL     1      19.304   0.617  51.598  1.00  0.00     0.154 C 
HETATM    8  C13 UNL     1      19.674  -0.388  52.668  1.00  0.00     0.076 C 
HETATM    9  C14 UNL     1      20.739   0.074  53.605  1.00  0.00     0.264 C 
HETATM   10  F1  UNL     1      21.916  -0.629  53.315  1.00  0.00    -0.231 F 
HETATM   11  N4  UNL     1      21.080   1.480  53.480  1.00  0.00    -0.183 NA
HETATM   12  N5  UNL     1      21.433   1.646  52.135  1.00  0.00    -0.194 N 
HETATM   13  H16 UNL     1      20.179   2.007  53.620  1.00  0.00     0.151 HD
ENDROOT
BRANCH   1  14
HETATM   14  N1  UNL     1      24.732   3.241  52.136  1.00  0.00    -0.392 N 
HETATM   15  H8  UNL     1      24.418   4.238  52.077  1.00  0.00     0.159 HD
BRANCH  14  16
HETATM   16  C7  UNL     1      25.976   2.564  51.819  1.00  0.00     0.155 C 
BRANCH  16  17
HETATM   17  P1  UNL     1      26.568   1.824  53.368  1.00  0.00    -0.070 P 
HETATM   18  C2  UNL     1      26.532   0.036  53.254  1.00  0.00    -0.040 C 
HETATM   19  C1  UNL     1      25.371  -0.502  52.907  1.00  0.00     0.024 C 
HETATM   20  C3  UNL     1      27.680  -0.823  53.516  1.00  0.00     0.035 C 
HETATM   21  C4  UNL     1      28.841  -0.183  53.574  1.00  0.00     0.035 C 
HETATM   22 CL1  UNL     1      30.234  -1.200  53.888  1.00  0.00    -0.084 Cl
HETATM   23  C5  UNL     1      28.979   1.248  53.395  1.00  0.00     0.036 C 
HETATM   24  C6  UNL     1      28.123   2.227  53.492  1.00  0.00    -0.020 C 
HETATM   25  H5  UNL     1      25.822   2.270  54.482  1.00  0.00     0.064 HD
ENDBRANCH  16  17
ENDBRANCH  14  16
ENDBRANCH   1  14
TORSDOF 3
ENDMDL
MODEL 7
REMARK VINA RESULT:      -7.1      2.501      3.895
REMARK  3 active torsions:
REMARK  status: ('A' for Active; 'I' for Inactive)
REMARK    1  A    between atoms: P1_8  and  C7_9 
REMARK    2  A    between atoms: C7_9  and  N1_10 
REMARK    3  A    between atoms: N1_10  and  C8_11 
ROOT
HETATM    1  C8  UNL     1      23.058   2.872  52.149  1.00  0.00     0.137 C 
HETATM    2  C9  UNL     1      23.506   1.728  52.639  1.00  0.00     0.177 C 
HETATM    3  N2  UNL     1      24.866   1.541  53.016  1.00  0.00    -0.223 NA
HETATM    4  C10 UNL     1      25.185   0.541  53.732  1.00  0.00     0.106 C 
HETATM    5  C11 UNL     1      24.540  -0.598  53.665  1.00  0.00     0.146 C 
HETATM    6  N3  UNL     1      23.155  -0.574  53.337  1.00  0.00    -0.282 N 
HETATM    7  C12 UNL     1      22.223  -1.676  53.496  1.00  0.00     0.154 C 
HETATM    8  C13 UNL     1      20.994  -1.111  54.175  1.00  0.00     0.076 C 
HETATM    9  C14 UNL     1      20.579   0.233  53.678  1.00  0.00     0.264 C 
HETATM   10  F1  UNL     1      20.884   1.182  54.664  1.00  0.00    -0.231 F 
HETATM   11  N4  UNL     1      21.276   0.672  52.482  1.00  0.00    -0.183 NA
HETATM   12  N5  UNL     1      22.635   0.615  52.815  1.00  0.00    -0.194 N 
HETATM   13  H16 UNL     1      21.113  -0.080  51.763  1.00  0.00     0.151 HD
ENDROOT
BRANCH   1  14
HETATM   14  N1  UNL     1      24.022   3.911  52.018  1.00  0.00    -0.392 N 
HETATM   15  H8  UNL     1      24.805   3.475  52.560  1.00  0.00     0.159 HD
BRANCH  14  16
HETATM   16  C7  UNL     1      23.873   5.173  51.317  1.00  0.00     0.155 C 
BRANCH  16  17
HETATM   17  P1  UNL     1      24.468   4.894  49.624  1.00  0.00    -0.070 P 
HETATM   18  C2  UNL     1      25.341   6.340  49.026  1.00  0.00    -0.040 C 
HETATM   19  C1  UNL     1      24.678   7.487  49.092  1.00  0.00     0.024 C 
HETATM   20  C3  UNL     1      26.696   6.314  48.491  1.00  0.00     0.035 C 
HETATM   21  C4  UNL     1      27.358   5.189  48.731  1.00  0.00     0.035 C 
HETATM   22 CL1  UNL     1      28.991   5.140  48.095  1.00  0.00    -0.084 Cl
HETATM   23  C5  UNL     1      26.801   4.069  49.462  1.00  0.00     0.036 C 
HETATM   24  C6  UNL     1      25.572   3.723  49.725  1.00  0.00    -0.020 C 
HETATM   25  H5  UNL     1      23.416   4.545  48.747  1.00  0.00     0.064 HD
ENDBRANCH  16  17
ENDBRANCH  14  16
ENDBRANCH   1  14
TORSDOF 3
ENDMDL
MODEL 8
REMARK VINA RESULT:      -6.9      1.374      1.767
REMARK  3 active torsions:
REMARK  status: ('A' for Active; 'I' for Inactive)
REMARK    1  A    between atoms: P1_8  and  C7_9 
REMARK    2  A    between atoms: C7_9  and  N1_10 
REMARK    3  A    between atoms: N1_10  and  C8_11 
ROOT
HETATM    1  C8  UNL     1      23.932   3.264  52.318  1.00  0.00     0.137 C 
HETATM    2  C9  UNL     1      23.661   2.024  52.690  1.00  0.00     0.177 C 
HETATM    3  N2  UNL     1      22.377   1.438  52.508  1.00  0.00    -0.223 NA
HETATM    4  C10 UNL     1      22.243   0.179  52.617  1.00  0.00     0.106 C 
HETATM    5  C11 UNL     1      22.991  -0.535  53.421  1.00  0.00     0.146 C 
HETATM    6  N3  UNL     1      24.323  -0.099  53.672  1.00  0.00    -0.282 N 
HETATM    7  C12 UNL     1      25.376  -0.888  54.286  1.00  0.00     0.154 C 
HETATM    8  C13 UNL     1      26.605  -0.719  53.418  1.00  0.00     0.076 C 
HETATM    9  C14 UNL     1      26.823   0.671  52.921  1.00  0.00     0.264 C 
HETATM   10  F1  UNL     1      26.529   0.700  51.551  1.00  0.00    -0.231 F 
HETATM   11  N4  UNL     1      25.959   1.667  53.529  1.00  0.00    -0.183 NA
HETATM   12  N5  UNL     1      24.657   1.206  53.296  1.00  0.00    -0.194 N 
HETATM   13  H16 UNL     1      26.121   1.592  54.567  1.00  0.00     0.151 HD
ENDROOT
BRANCH   1  14
HETATM   14  N1  UNL     1      22.857   3.984  51.724  1.00  0.00    -0.392 N 
HETATM   15  H8  UNL     1      22.213   3.181  51.529  1.00  0.00     0.159 HD
BRANCH  14  16
HETATM   16  C7  UNL     1      22.768   5.415  51.497  1.00  0.00     0.155 C 
BRANCH  16  17
HETATM   17  P1  UNL     1      23.431   5.712  49.833  1.00  0.00    -0.070 P 
HETATM   18  C2  UNL     1      24.725   6.951  49.892  1.00  0.00    -0.040 C 
HETATM   19  C1  UNL     1      24.401   8.102  50.465  1.00  0.00     0.024 C 
HETATM   20  C3  UNL     1      26.067   6.757  49.359  1.00  0.00     0.035 C 
HETATM   21  C4  UNL     1      26.366   5.497  49.070  1.00  0.00     0.035 C 
HETATM   22 CL1  UNL     1      27.977   5.245  48.427  1.00  0.00    -0.084 Cl
HETATM   23  C5  UNL     1      25.450   4.390  49.263  1.00  0.00     0.036 C 
HETATM   24  C6  UNL     1      24.153   4.342  49.386  1.00  0.00    -0.020 C 
HETATM   25  H5  UNL     1      22.418   6.089  48.923  1.00  0.00     0.064 HD
ENDBRANCH  16  17
ENDBRANCH  14  16
ENDBRANCH   1  14
TORSDOF 3
ENDMDL
MODEL 9
REMARK VINA RESULT:      -6.9      3.154      4.399
REMARK  3 active torsions:
REMARK  status: ('A' for Active; 'I' for Inactive)
REMARK    1  A    between atoms: P1_8  and  C7_9 
REMARK    2  A    between atoms: C7_9  and  N1_10 
REMARK    3  A    between atoms: N1_10  and  C8_11 
ROOT
HETATM    1  C8  UNL     1      25.567   3.451  50.593  1.00  0.00     0.137 C 
HETATM    2  C9  UNL     1      26.090   2.533  51.388  1.00  0.00     0.177 C 
HETATM    3  N2  UNL     1      27.441   2.591  51.833  1.00  0.00    -0.223 NA
HETATM    4  C10 UNL     1      27.812   1.859  52.803  1.00  0.00     0.106 C 
HETATM    5  C11 UNL     1      27.275   0.687  53.037  1.00  0.00     0.146 C 
HETATM    6  N3  UNL     1      25.911   0.484  52.684  1.00  0.00    -0.282 N 
HETATM    7  C12 UNL     1      25.074  -0.621  53.117  1.00  0.00     0.154 C 
HETATM    8  C13 UNL     1      23.768  -0.016  53.586  1.00  0.00     0.076 C 
HETATM    9  C14 UNL     1      23.259   1.094  52.730  1.00  0.00     0.264 C 
HETATM   10  F1  UNL     1      23.430   2.300  53.424  1.00  0.00    -0.231 F 
HETATM   11  N4  UNL     1      23.973   1.260  51.476  1.00  0.00    -0.183 NA
HETATM   12  N5  UNL     1      25.314   1.429  51.843  1.00  0.00    -0.194 N 
HETATM   13  H16 UNL     1      23.912   0.329  50.987  1.00  0.00     0.151 HD
ENDROOT
BRANCH   1  14
HETATM   14  N1  UNL     1      26.440   4.507  50.204  1.00  0.00    -0.392 N 
HETATM   15  H8  UNL     1      26.685   4.873  51.154  1.00  0.00     0.159 HD
BRANCH  14  16
HETATM   16  C7  UNL     1      26.822   4.888  48.856  1.00  0.00     0.155 C 
BRANCH  16  17
HETATM   17  P1  UNL     1      26.890   6.702  48.836  1.00  0.00    -0.070 P 
HETATM   18  C2  UNL     1      28.055   7.266  47.597  1.00  0.00    -0.040 C 
HETATM   19  C1  UNL     1      29.280   6.766  47.681  1.00  0.00     0.024 C 
HETATM   20  C3  UNL     1      27.729   8.214  46.539  1.00  0.00     0.035 C 
HETATM   21  C4  UNL     1      26.430   8.428  46.376  1.00  0.00     0.035 C 
HETATM   22 CL1  UNL     1      26.019   9.565  45.107  1.00  0.00    -0.084 Cl
HETATM   23  C5  UNL     1      25.404   7.783  47.170  1.00  0.00     0.036 C 
HETATM   24  C6  UNL     1      25.440   7.199  48.335  1.00  0.00    -0.020 C 
HETATM   25  H5  UNL     1      27.213   7.231  50.105  1.00  0.00     0.064 HD
ENDBRANCH  16  17
ENDBRANCH  14  16
ENDBRANCH   1  14
TORSDOF 3
ENDMDL
