MODEL 1
REMARK VINA RESULT:      -8.7      0.000      0.000
REMARK  3 active torsions:
REMARK  status: ('A' for Active; 'I' for Inactive)
REMARK    1  A    between atoms: C4_4  and  C5_5 
REMARK    2  A    between atoms: C5_5  and  N1_6 
REMARK    3  A    between atoms: N1_6  and  C6_7 
ROOT
HETATM    1  C6  UNL     1      24.213   1.546  52.829  1.00  0.00     0.045 A 
HETATM    2  C7  UNL     1      23.018   0.862  52.894  1.00  0.00     0.049 A 
HETATM    3  C8  UNL     1      22.844  -0.324  53.553  1.00  0.00     0.122 A 
HETATM    4  N2  UNL     1      23.872  -0.891  54.187  1.00  0.00    -0.236 NA
HETATM    5  C9  UNL     1      25.067  -0.285  54.170  1.00  0.00     0.183 A 
HETATM    6  O1  UNL     1      26.213  -0.630  54.705  1.00  0.00    -0.290 OA
HETATM    7  C10 UNL     1      27.147   0.245  54.451  1.00  0.00     0.089 A 
HETATM    8  C11 UNL     1      28.480   0.314  54.795  1.00  0.00     0.038 A 
HETATM    9  C12 UNL     1      29.247   1.381  54.377  1.00  0.00     0.003 A 
HETATM   10  C13 UNL     1      28.629   2.375  53.606  1.00  0.00     0.001 A 
HETATM   11  C14 UNL     1      27.292   2.275  53.281  1.00  0.00     0.015 A 
HETATM   12  C15 UNL     1      26.547   1.222  53.695  1.00  0.00     0.015 A 
HETATM   13  C16 UNL     1      25.226   0.911  53.501  1.00  0.00     0.057 A 
ENDROOT
BRANCH   1  14
HETATM   14  N1  UNL     1      24.296   2.749  52.135  1.00  0.00    -0.385 N 
HETATM   15  H6  UNL     1      24.378   3.743  52.350  1.00  0.00     0.160 HD
BRANCH  14  16
HETATM   16  C5  UNL     1      24.267   2.678  50.690  1.00  0.00     0.158 C 
BRANCH  16  17
HETATM   17  C4  UNL     1      25.161   3.624  49.996  1.00  0.00    -0.041 A 
HETATM   18  C3  UNL     1      26.489   3.417  49.705  1.00  0.00     0.009 A 
HETATM   19  C2  UNL     1      27.282   4.336  49.053  1.00  0.00     0.001 A 
HETATM   20  C1  UNL     1      26.724   5.549  48.660  1.00  0.00     0.000 A 
HETATM   21  C18 UNL     1      25.395   5.796  48.933  1.00  0.00     0.001 A 
HETATM   22  C17 UNL     1      24.650   4.853  49.583  1.00  0.00     0.009 A 
ENDBRANCH  16  17
ENDBRANCH  14  16
ENDBRANCH   1  14
TORSDOF 3
ENDMDL
MODEL 2
REMARK VINA RESULT:      -8.6      1.323      3.650
REMARK  3 active torsions:
REMARK  status: ('A' for Active; 'I' for Inactive)
REMARK    1  A    between atoms: C4_4  and  C5_5 
REMARK    2  A    between atoms: C5_5  and  N1_6 
REMARK    3  A    between atoms: N1_6  and  C6_7 
ROOT
HETATM    1  C6  UNL     1      27.122   1.839  52.954  1.00  0.00     0.045 A 
HETATM    2  C7  UNL     1      28.437   1.657  53.326  1.00  0.00     0.049 A 
HETATM    3  C8  UNL     1      28.877   0.644  54.133  1.00  0.00     0.122 A 
HETATM    4  N2  UNL     1      28.009  -0.250  54.614  1.00  0.00    -0.236 NA
HETATM    5  C9  UNL     1      26.712  -0.140  54.295  1.00  0.00     0.183 A 
HETATM    6  O1  UNL     1      25.680  -0.875  54.631  1.00  0.00    -0.290 OA
HETATM    7  C10 UNL     1      24.574  -0.424  54.104  1.00  0.00     0.089 A 
HETATM    8  C11 UNL     1      23.266  -0.853  54.169  1.00  0.00     0.038 A 
HETATM    9  C12 UNL     1      22.279  -0.164  53.495  1.00  0.00     0.003 A 
HETATM   10  C13 UNL     1      22.652   0.965  52.754  1.00  0.00     0.001 A 
HETATM   11  C14 UNL     1      23.971   1.366  52.710  1.00  0.00     0.015 A 
HETATM   12  C15 UNL     1      24.933   0.685  53.376  1.00  0.00     0.015 A 
HETATM   13  C16 UNL     1      26.285   0.888  53.480  1.00  0.00     0.057 A 
ENDROOT
BRANCH   1  14
HETATM   14  N1  UNL     1      26.768   2.900  52.127  1.00  0.00    -0.385 N 
HETATM   15  H6  UNL     1      26.567   3.896  52.218  1.00  0.00     0.160 HD
BRANCH  14  16
HETATM   16  C5  UNL     1      26.617   2.614  50.717  1.00  0.00     0.158 C 
BRANCH  16  17
HETATM   17  C4  UNL     1      25.681   3.495  49.993  1.00  0.00    -0.041 A 
HETATM   18  C3  UNL     1      24.378   3.201  49.669  1.00  0.00     0.009 A 
HETATM   19  C2  UNL     1      23.544   4.062  48.990  1.00  0.00     0.001 A 
HETATM   20  C1  UNL     1      24.033   5.305  48.599  1.00  0.00     0.000 A 
HETATM   21  C18 UNL     1      25.336   5.640  48.905  1.00  0.00     0.001 A 
HETATM   22  C17 UNL     1      26.123   4.751  49.580  1.00  0.00     0.009 A 
ENDBRANCH  16  17
ENDBRANCH  14  16
ENDBRANCH   1  14
TORSDOF 3
ENDMDL
MODEL 3
REMARK VINA RESULT:      -8.4      2.090      4.189
REMARK  3 active torsions:
REMARK  status: ('A' for Active; 'I' for Inactive)
REMARK    1  A    between atoms: C4_4  and  C5_5 
REMARK    2  A    between atoms: C5_5  and  N1_6 
REMARK    3  A    between atoms: N1_6  and  C6_7 
ROOT
HETATM    1  C6  UNL     1      26.891   0.680  52.770  1.00  0.00     0.045 A 
HETATM    2  C7  UNL     1      28.210   0.848  53.134  1.00  0.00     0.049 A 
HETATM    3  C8  UNL     1      28.732   0.467  54.340  1.00  0.00     0.122 A 
HETATM    4  N2  UNL     1      27.947  -0.109  55.253  1.00  0.00    -0.236 NA
HETATM    5  C9  UNL     1      26.651  -0.307  54.972  1.00  0.00     0.183 A 
HETATM    6  O1  UNL     1      25.690  -0.841  55.685  1.00  0.00    -0.290 OA
HETATM    7  C10 UNL     1      24.556  -0.846  55.039  1.00  0.00     0.089 A 
HETATM    8  C11 UNL     1      23.295  -1.293  55.370  1.00  0.00     0.038 A 
HETATM    9  C12 UNL     1      22.258  -1.165  54.469  1.00  0.00     0.003 A 
HETATM   10  C13 UNL     1      22.533  -0.576  53.227  1.00  0.00     0.001 A 
HETATM   11  C14 UNL     1      23.806  -0.139  52.929  1.00  0.00     0.015 A 
HETATM   12  C15 UNL     1      24.818  -0.268  53.820  1.00  0.00     0.015 A 
HETATM   13  C16 UNL     1      26.141   0.084  53.751  1.00  0.00     0.057 A 
ENDROOT
BRANCH   1  14
HETATM   14  N1  UNL     1      26.451   1.100  51.519  1.00  0.00    -0.385 N 
HETATM   15  H6  UNL     1      26.221   0.681  50.617  1.00  0.00     0.160 HD
BRANCH  14  16
HETATM   16  C5  UNL     1      26.220   2.517  51.343  1.00  0.00     0.158 C 
BRANCH  16  17
HETATM   17  C4  UNL     1      24.803   2.930  51.352  1.00  0.00    -0.041 A 
HETATM   18  C3  UNL     1      24.113   3.432  52.429  1.00  0.00     0.009 A 
HETATM   19  C2  UNL     1      22.787   3.804  52.383  1.00  0.00     0.001 A 
HETATM   20  C1  UNL     1      22.090   3.668  51.186  1.00  0.00     0.000 A 
HETATM   21  C18 UNL     1      22.746   3.168  50.081  1.00  0.00     0.001 A 
HETATM   22  C17 UNL     1      24.062   2.813  50.177  1.00  0.00     0.009 A 
ENDBRANCH  16  17
ENDBRANCH  14  16
ENDBRANCH   1  14
TORSDOF 3
ENDMDL
MODEL 4
REMARK VINA RESULT:      -8.2      1.787      2.548
REMARK  3 active torsions:
REMARK  status: ('A' for Active; 'I' for Inactive)
REMARK    1  A    between atoms: C4_4  and  C5_5 
REMARK    2  A    between atoms: C5_5  and  N1_6 
REMARK    3  A    between atoms: N1_6  and  C6_7 
ROOT
HETATM    1  C6  UNL     1      22.472  -0.254  53.051  1.00  0.00     0.045 A 
HETATM    2  C7  UNL     1      21.460  -0.812  53.801  1.00  0.00     0.049 A 
HETATM    3  C8  UNL     1      21.647  -1.448  54.998  1.00  0.00     0.122 A 
HETATM    4  N2  UNL     1      22.876  -1.559  55.508  1.00  0.00    -0.236 NA
HETATM    5  C9  UNL     1      23.913  -1.040  54.836  1.00  0.00     0.183 A 
HETATM    6  O1  UNL     1      25.193  -1.017  55.118  1.00  0.00    -0.290 OA
HETATM    7  C10 UNL     1      25.880  -0.406  54.190  1.00  0.00     0.089 A 
HETATM    8  C11 UNL     1      27.224  -0.138  54.048  1.00  0.00     0.038 A 
HETATM    9  C12 UNL     1      27.679   0.541  52.937  1.00  0.00     0.003 A 
HETATM   10  C13 UNL     1      26.739   0.941  51.978  1.00  0.00     0.001 A 
HETATM   11  C14 UNL     1      25.401   0.656  52.152  1.00  0.00     0.015 A 
HETATM   12  C15 UNL     1      24.963  -0.012  53.246  1.00  0.00     0.015 A 
HETATM   13  C16 UNL     1      23.706  -0.402  53.631  1.00  0.00     0.057 A 
ENDROOT
BRANCH   1  14
HETATM   14  N1  UNL     1      22.186   0.375  51.844  1.00  0.00    -0.385 N 
HETATM   15  H6  UNL     1      22.149   0.133  50.853  1.00  0.00     0.160 HD
BRANCH  14  16
HETATM   16  C5  UNL     1      21.823   1.774  51.901  1.00  0.00     0.158 C 
BRANCH  16  17
HETATM   17  C4  UNL     1      22.752   2.694  51.215  1.00  0.00    -0.041 A 
HETATM   18  C3  UNL     1      23.396   3.766  51.785  1.00  0.00     0.009 A 
HETATM   19  C2  UNL     1      24.255   4.596  51.098  1.00  0.00     0.001 A 
HETATM   20  C1  UNL     1      24.496   4.349  49.749  1.00  0.00     0.000 A 
HETATM   21  C18 UNL     1      23.869   3.283  49.140  1.00  0.00     0.001 A 
HETATM   22  C17 UNL     1      23.025   2.489  49.864  1.00  0.00     0.009 A 
ENDBRANCH  16  17
ENDBRANCH  14  16
ENDBRANCH   1  14
TORSDOF 3
ENDMDL
MODEL 5
REMARK VINA RESULT:      -8.1      2.544      5.558
REMARK  3 active torsions:
REMARK  status: ('A' for Active; 'I' for Inactive)
REMARK    1  A    between atoms: C4_4  and  C5_5 
REMARK    2  A    between atoms: C5_5  and  N1_6 
REMARK    3  A    between atoms: N1_6  and  C6_7 
ROOT
HETATM    1  C6  UNL     1      24.004   2.185  51.227  1.00  0.00     0.045 A 
HETATM    2  C7  UNL     1      23.771   3.249  50.381  1.00  0.00     0.049 A 
HETATM    3  C8  UNL     1      22.574   3.905  50.280  1.00  0.00     0.122 A 
HETATM    4  N2  UNL     1      21.539   3.524  51.031  1.00  0.00    -0.236 NA
HETATM    5  C9  UNL     1      21.689   2.496  51.879  1.00  0.00     0.183 A 
HETATM    6  O1  UNL     1      20.842   1.939  52.710  1.00  0.00    -0.290 OA
HETATM    7  C10 UNL     1      21.389   0.950  53.364  1.00  0.00     0.089 A 
HETATM    8  C11 UNL     1      20.907   0.085  54.323  1.00  0.00     0.038 A 
HETATM    9  C12 UNL     1      21.729  -0.887  54.852  1.00  0.00     0.003 A 
HETATM   10  C13 UNL     1      23.049  -0.959  54.387  1.00  0.00     0.001 A 
HETATM   11  C14 UNL     1      23.499  -0.077  53.428  1.00  0.00     0.015 A 
HETATM   12  C15 UNL     1      22.684   0.875  52.913  1.00  0.00     0.015 A 
HETATM   13  C16 UNL     1      22.902   1.845  51.969  1.00  0.00     0.057 A 
ENDROOT
BRANCH   1  14
HETATM   14  N1  UNL     1      25.255   1.579  51.262  1.00  0.00    -0.385 N 
HETATM   15  H6  UNL     1      25.715   0.766  50.852  1.00  0.00     0.160 HD
BRANCH  14  16
HETATM   16  C5  UNL     1      26.266   2.205  52.087  1.00  0.00     0.158 C 
BRANCH  16  17
HETATM   17  C4  UNL     1      27.261   1.283  52.670  1.00  0.00    -0.041 A 
HETATM   18  C3  UNL     1      28.409   1.647  53.333  1.00  0.00     0.009 A 
HETATM   19  C2  UNL     1      29.307   0.744  53.860  1.00  0.00     0.001 A 
HETATM   20  C1  UNL     1      29.053  -0.618  53.721  1.00  0.00     0.000 A 
HETATM   21  C18 UNL     1      27.912  -1.024  53.062  1.00  0.00     0.001 A 
HETATM   22  C17 UNL     1      27.053  -0.090  52.557  1.00  0.00     0.009 A 
ENDBRANCH  16  17
ENDBRANCH  14  16
ENDBRANCH   1  14
TORSDOF 3
ENDMDL
MODEL 6
REMARK VINA RESULT:      -8.0      1.592      3.930
REMARK  3 active torsions:
REMARK  status: ('A' for Active; 'I' for Inactive)
REMARK    1  A    between atoms: C4_4  and  C5_5 
REMARK    2  A    between atoms: C5_5  and  N1_6 
REMARK    3  A    between atoms: N1_6  and  C6_7 
ROOT
HETATM    1  C6  UNL     1      25.550   2.150  51.999  1.00  0.00     0.045 A 
HETATM    2  C7  UNL     1      26.886   1.812  52.001  1.00  0.00     0.049 A 
HETATM    3  C8  UNL     1      27.386   0.647  52.517  1.00  0.00     0.122 A 
HETATM    4  N2  UNL     1      26.560  -0.248  53.064  1.00  0.00    -0.236 NA
HETATM    5  C9  UNL     1      25.246   0.010  53.099  1.00  0.00     0.183 A 
HETATM    6  O1  UNL     1      24.245  -0.693  53.573  1.00  0.00    -0.290 OA
HETATM    7  C10 UNL     1      23.105  -0.079  53.410  1.00  0.00     0.089 A 
HETATM    8  C11 UNL     1      21.809  -0.414  53.737  1.00  0.00     0.038 A 
HETATM    9  C12 UNL     1      20.776   0.449  53.438  1.00  0.00     0.003 A 
HETATM   10  C13 UNL     1      21.089   1.656  52.799  1.00  0.00     0.001 A 
HETATM   11  C14 UNL     1      22.396   1.960  52.486  1.00  0.00     0.015 A 
HETATM   12  C15 UNL     1      23.406   1.107  52.784  1.00  0.00     0.015 A 
HETATM   13  C16 UNL     1      24.758   1.189  52.575  1.00  0.00     0.057 A 
ENDROOT
BRANCH   1  14
HETATM   14  N1  UNL     1      25.133   3.358  51.451  1.00  0.00    -0.385 N 
HETATM   15  H6  UNL     1      24.852   4.282  51.779  1.00  0.00     0.160 HD
BRANCH  14  16
HETATM   16  C5  UNL     1      25.040   3.429  50.009  1.00  0.00     0.158 C 
BRANCH  16  17
HETATM   17  C4  UNL     1      25.843   4.494  49.377  1.00  0.00    -0.041 A 
HETATM   18  C3  UNL     1      25.392   5.743  49.021  1.00  0.00     0.009 A 
HETATM   19  C2  UNL     1      26.185   6.703  48.433  1.00  0.00     0.001 A 
HETATM   20  C1  UNL     1      27.522   6.409  48.176  1.00  0.00     0.000 A 
HETATM   21  C18 UNL     1      28.013   5.167  48.518  1.00  0.00     0.001 A 
HETATM   22  C17 UNL     1      27.186   4.249  49.100  1.00  0.00     0.009 A 
ENDBRANCH  16  17
ENDBRANCH  14  16
ENDBRANCH   1  14
TORSDOF 3
ENDMDL
MODEL 7
REMARK VINA RESULT:      -8.0      2.457      5.875
REMARK  3 active torsions:
REMARK  status: ('A' for Active; 'I' for Inactive)
REMARK    1  A    between atoms: C4_4  and  C5_5 
REMARK    2  A    between atoms: C5_5  and  N1_6 
REMARK    3  A    between atoms: N1_6  and  C6_7 
ROOT
HETATM    1  C6  UNL     1      24.363   3.055  51.324  1.00  0.00     0.045 A 
HETATM    2  C7  UNL     1      23.217   3.085  52.088  1.00  0.00     0.049 A 
HETATM    3  C8  UNL     1      22.462   4.206  52.303  1.00  0.00     0.122 A 
HETATM    4  N2  UNL     1      22.823   5.367  51.754  1.00  0.00    -0.236 NA
HETATM    5  C9  UNL     1      23.928   5.417  50.995  1.00  0.00     0.183 A 
HETATM    6  O1  UNL     1      24.486   6.417  50.357  1.00  0.00    -0.290 OA
HETATM    7  C10 UNL     1      25.566   6.044  49.727  1.00  0.00     0.089 A 
HETATM    8  C11 UNL     1      26.469   6.724  48.938  1.00  0.00     0.038 A 
HETATM    9  C12 UNL     1      27.545   6.058  48.389  1.00  0.00     0.003 A 
HETATM   10  C13 UNL     1      27.680   4.689  48.657  1.00  0.00     0.001 A 
HETATM   11  C14 UNL     1      26.757   4.040  49.449  1.00  0.00     0.015 A 
HETATM   12  C15 UNL     1      25.704   4.702  49.986  1.00  0.00     0.015 A 
HETATM   13  C16 UNL     1      24.678   4.278  50.789  1.00  0.00     0.057 A 
ENDROOT
BRANCH   1  14
HETATM   14  N1  UNL     1      25.066   1.866  51.161  1.00  0.00    -0.385 N 
HETATM   15  H6  UNL     1      25.517   1.350  50.405  1.00  0.00     0.160 HD
BRANCH  14  16
HETATM   16  C5  UNL     1      25.273   1.056  52.342  1.00  0.00     0.158 C 
BRANCH  16  17
HETATM   17  C4  UNL     1      26.661   1.014  52.841  1.00  0.00    -0.041 A 
HETATM   18  C3  UNL     1      27.431   2.099  53.186  1.00  0.00     0.009 A 
HETATM   19  C2  UNL     1      28.725   2.004  53.647  1.00  0.00     0.001 A 
HETATM   20  C1  UNL     1      29.304   0.745  53.777  1.00  0.00     0.000 A 
HETATM   21  C18 UNL     1      28.565  -0.370  53.441  1.00  0.00     0.001 A 
HETATM   22  C17 UNL     1      27.285  -0.224  52.988  1.00  0.00     0.009 A 
ENDBRANCH  16  17
ENDBRANCH  14  16
ENDBRANCH   1  14
TORSDOF 3
ENDMDL
MODEL 8
REMARK VINA RESULT:      -7.9      2.276      5.895
REMARK  3 active torsions:
REMARK  status: ('A' for Active; 'I' for Inactive)
REMARK    1  A    between atoms: C4_4  and  C5_5 
REMARK    2  A    between atoms: C5_5  and  N1_6 
REMARK    3  A    between atoms: N1_6  and  C6_7 
ROOT
HETATM    1  C6  UNL     1      24.607   1.594  51.744  1.00  0.00     0.045 A 
HETATM    2  C7  UNL     1      23.488   1.157  52.418  1.00  0.00     0.049 A 
HETATM    3  C8  UNL     1      22.292   1.823  52.441  1.00  0.00     0.122 A 
HETATM    4  N2  UNL     1      22.159   2.976  51.782  1.00  0.00    -0.236 NA
HETATM    5  C9  UNL     1      23.206   3.466  51.103  1.00  0.00     0.183 A 
HETATM    6  O1  UNL     1      23.330   4.559  50.388  1.00  0.00    -0.290 OA
HETATM    7  C10 UNL     1      24.528   4.672  49.885  1.00  0.00     0.089 A 
HETATM    8  C11 UNL     1      25.118   5.626  49.085  1.00  0.00     0.038 A 
HETATM    9  C12 UNL     1      26.434   5.485  48.697  1.00  0.00     0.003 A 
HETATM   10  C13 UNL     1      27.133   4.353  49.137  1.00  0.00     0.001 A 
HETATM   11  C14 UNL     1      26.512   3.417  49.936  1.00  0.00     0.015 A 
HETATM   12  C15 UNL     1      25.219   3.564  50.314  1.00  0.00     0.015 A 
HETATM   13  C16 UNL     1      24.403   2.782  51.089  1.00  0.00     0.057 A 
ENDROOT
BRANCH   1  14
HETATM   14  N1  UNL     1      25.781   0.848  51.776  1.00  0.00    -0.385 N 
HETATM   15  H6  UNL     1      26.688   0.842  51.308  1.00  0.00     0.160 HD
BRANCH  14  16
HETATM   16  C5  UNL     1      25.832  -0.258  52.706  1.00  0.00     0.158 C 
BRANCH  16  17
HETATM   17  C4  UNL     1      27.178  -0.808  52.957  1.00  0.00    -0.041 A 
HETATM   18  C3  UNL     1      27.553  -2.124  52.821  1.00  0.00     0.009 A 
HETATM   19  C2  UNL     1      28.827  -2.586  53.069  1.00  0.00     0.001 A 
HETATM   20  C1  UNL     1      29.804  -1.684  53.482  1.00  0.00     0.000 A 
HETATM   21  C18 UNL     1      29.468  -0.355  53.630  1.00  0.00     0.001 A 
HETATM   22  C17 UNL     1      28.191   0.055  53.372  1.00  0.00     0.009 A 
ENDBRANCH  16  17
ENDBRANCH  14  16
ENDBRANCH   1  14
TORSDOF 3
ENDMDL
MODEL 9
REMARK VINA RESULT:      -7.7      2.674      5.144
REMARK  3 active torsions:
REMARK  status: ('A' for Active; 'I' for Inactive)
REMARK    1  A    between atoms: C4_4  and  C5_5 
REMARK    2  A    between atoms: C5_5  and  N1_6 
REMARK    3  A    between atoms: N1_6  and  C6_7 
ROOT
HETATM    1  C6  UNL     1      23.764  -0.181  53.344  1.00  0.00     0.045 A 
HETATM    2  C7  UNL     1      24.672  -0.600  54.293  1.00  0.00     0.049 A 
HETATM    3  C8  UNL     1      24.344  -1.316  55.412  1.00  0.00     0.122 A 
HETATM    4  N2  UNL     1      23.073  -1.652  55.638  1.00  0.00    -0.236 NA
HETATM    5  C9  UNL     1      22.131  -1.281  54.760  1.00  0.00     0.183 A 
HETATM    6  O1  UNL     1      20.835  -1.482  54.754  1.00  0.00    -0.290 OA
HETATM    7  C10 UNL     1      20.269  -0.950  53.705  1.00  0.00     0.089 A 
HETATM    8  C11 UNL     1      18.961  -0.902  53.273  1.00  0.00     0.038 A 
HETATM    9  C12 UNL     1      18.646  -0.254  52.098  1.00  0.00     0.003 A 
HETATM   10  C13 UNL     1      19.687   0.341  51.373  1.00  0.00     0.001 A 
HETATM   11  C14 UNL     1      20.984   0.274  51.833  1.00  0.00     0.015 A 
HETATM   12  C15 UNL     1      21.286  -0.364  52.990  1.00  0.00     0.015 A 
HETATM   13  C16 UNL     1      22.478  -0.559  53.637  1.00  0.00     0.057 A 
ENDROOT
BRANCH   1  14
HETATM   14  N1  UNL     1      24.191   0.543  52.236  1.00  0.00    -0.385 N 
HETATM   15  H6  UNL     1      24.465   0.359  51.271  1.00  0.00     0.160 HD
BRANCH  14  16
HETATM   16  C5  UNL     1      24.313   1.976  52.394  1.00  0.00     0.158 C 
BRANCH  16  17
HETATM   17  C4  UNL     1      24.117   2.764  51.162  1.00  0.00    -0.041 A 
HETATM   18  C3  UNL     1      23.257   2.457  50.134  1.00  0.00     0.009 A 
HETATM   19  C2  UNL     1      23.112   3.229  49.002  1.00  0.00     0.001 A 
HETATM   20  C1  UNL     1      23.872   4.388  48.874  1.00  0.00     0.000 A 
HETATM   21  C18 UNL     1      24.747   4.731  49.883  1.00  0.00     0.001 A 
HETATM   22  C17 UNL     1      24.855   3.933  50.986  1.00  0.00     0.009 A 
ENDBRANCH  16  17
ENDBRANCH  14  16
ENDBRANCH   1  14
TORSDOF 3
ENDMDL
