MODEL 1
REMARK VINA RESULT:      -7.6      0.000      0.000
REMARK  7 active torsions:
REMARK  status: ('A' for Active; 'I' for Inactive)
REMARK    1  A    between atoms: O1_2  and  C2_3 
REMARK    2  A    between atoms: C2_3  and  C3_4 
REMARK    3  A    between atoms: C2_3  and  C14_20 
REMARK    4  A    between atoms: C6_7  and  N1_8 
REMARK    5  A    between atoms: N1_8  and  C7_9 
REMARK    6  A    between atoms: C14_20  and  O2_21 
REMARK    7  A    between atoms: O2_21  and  C15_22 
ROOT
HETATM    1  C3  UNL     1      26.619   0.788  52.730  1.00  0.00     0.034 C 
HETATM    2  C4  UNL     1      25.890   1.805  52.317  1.00  0.00     0.041 A 
HETATM    3  C5  UNL     1      26.188   2.344  50.948  1.00  0.00     0.137 A 
HETATM    4  C6  UNL     1      25.277   3.475  50.643  1.00  0.00     0.111 A 
HETATM    5  N2  UNL     1      24.352   3.968  51.395  1.00  0.00    -0.228 NA
HETATM    6  C13 UNL     1      24.129   3.401  52.679  1.00  0.00     0.235 A 
HETATM    7  N3  UNL     1      24.855   2.411  53.065  1.00  0.00    -0.246 NA
ENDROOT
BRANCH   1   8
HETATM    8  C2  UNL     1      26.582   0.027  54.020  1.00  0.00     0.169 C 
BRANCH   8   9
HETATM    9  O1  UNL     1      27.808  -0.563  54.217  1.00  0.00    -0.385 OA
HETATM   10  C1  UNL     1      28.747   0.302  54.763  1.00  0.00     0.202 C 
ENDBRANCH   8   9
BRANCH   8  11
HETATM   11  C14 UNL     1      25.448  -0.938  54.067  1.00  0.00     0.207 C 
BRANCH  11  12
HETATM   12  O2  UNL     1      24.314  -0.529  54.713  1.00  0.00    -0.358 OA
BRANCH  12  13
HETATM   13  C15 UNL     1      23.120  -0.950  54.191  1.00  0.00     0.261 C 
HETATM   14  C16 UNL     1      22.073   0.064  53.877  1.00  0.00     0.087 C 
HETATM   15  C17 UNL     1      21.176  -0.919  54.607  1.00  0.00     0.175 C 
HETATM   16  O3  UNL     1      22.276  -1.596  55.111  1.00  0.00    -0.361 OA
ENDBRANCH  12  13
ENDBRANCH  11  12
ENDBRANCH   8  11
ENDBRANCH   1   8
BRANCH   4  17
HETATM   17  N1  UNL     1      25.423   4.109  49.385  1.00  0.00    -0.344 N 
HETATM   18  H8  UNL     1      24.746   3.870  48.597  1.00  0.00     0.167 HD
BRANCH  17  19
HETATM   19  C7  UNL     1      26.416   5.071  49.058  1.00  0.00     0.035 A 
HETATM   20  C8  UNL     1      26.165   6.440  49.149  1.00  0.00     0.032 A 
HETATM   21  C9  UNL     1      27.074   7.403  48.856  1.00  0.00     0.046 A 
HETATM   22  C10 UNL     1      28.340   7.059  48.435  1.00  0.00     0.138 A 
HETATM   23  F1  UNL     1      29.214   8.054  48.154  1.00  0.00    -0.204 F 
HETATM   24  C11 UNL     1      28.657   5.722  48.323  1.00  0.00     0.074 A 
HETATM   25 CL1  UNL     1      30.257   5.250  47.793  1.00  0.00    -0.081 Cl
HETATM   26  C12 UNL     1      27.689   4.794  48.636  1.00  0.00     0.056 A 
ENDBRANCH  17  19
ENDBRANCH   4  17
TORSDOF 7
ENDMDL
MODEL 2
REMARK VINA RESULT:      -7.3      1.708      3.595
REMARK  7 active torsions:
REMARK  status: ('A' for Active; 'I' for Inactive)
REMARK    1  A    between atoms: O1_2  and  C2_3 
REMARK    2  A    between atoms: C2_3  and  C3_4 
REMARK    3  A    between atoms: C2_3  and  C14_20 
REMARK    4  A    between atoms: C6_7  and  N1_8 
REMARK    5  A    between atoms: N1_8  and  C7_9 
REMARK    6  A    between atoms: C14_20  and  O2_21 
REMARK    7  A    between atoms: O2_21  and  C15_22 
ROOT
HETATM    1  C3  UNL     1      24.257   1.163  53.140  1.00  0.00     0.034 C 
HETATM    2  C4  UNL     1      23.919   1.849  52.066  1.00  0.00     0.041 A 
HETATM    3  C5  UNL     1      24.495   3.228  51.931  1.00  0.00     0.137 A 
HETATM    4  C6  UNL     1      24.018   3.852  50.672  1.00  0.00     0.111 A 
HETATM    5  N2  UNL     1      23.229   3.342  49.788  1.00  0.00    -0.228 NA
HETATM    6  C13 UNL     1      22.724   2.028  49.987  1.00  0.00     0.235 A 
HETATM    7  N3  UNL     1      23.064   1.376  51.044  1.00  0.00    -0.246 NA
ENDROOT
BRANCH   1   8
HETATM    8  C2  UNL     1      23.866  -0.217  53.574  1.00  0.00     0.169 C 
BRANCH   8   9
HETATM    9  O1  UNL     1      22.557  -0.190  53.995  1.00  0.00    -0.385 OA
HETATM   10  C1  UNL     1      22.266  -1.172  54.932  1.00  0.00     0.202 C 
ENDBRANCH   8   9
BRANCH   8  11
HETATM   11  C14 UNL     1      24.803  -0.770  54.592  1.00  0.00     0.207 C 
BRANCH  11  12
HETATM   12  O2  UNL     1      26.059  -1.098  54.163  1.00  0.00    -0.358 OA
BRANCH  12  13
HETATM   13  C15 UNL     1      27.007  -0.111  54.216  1.00  0.00     0.261 C 
HETATM   14  C16 UNL     1      27.938   0.057  53.063  1.00  0.00     0.087 C 
HETATM   15  C17 UNL     1      28.982   0.113  54.164  1.00  0.00     0.175 C 
HETATM   16  O3  UNL     1      28.075  -0.374  55.092  1.00  0.00    -0.361 OA
ENDBRANCH  12  13
ENDBRANCH  11  12
ENDBRANCH   8  11
ENDBRANCH   1   8
BRANCH   4  17
HETATM   17  N1  UNL     1      24.464   5.165  50.384  1.00  0.00    -0.344 N 
HETATM   18  H8  UNL     1      23.893   5.998  50.724  1.00  0.00     0.167 HD
BRANCH  17  19
HETATM   19  C7  UNL     1      25.645   5.494  49.665  1.00  0.00     0.035 A 
HETATM   20  C8  UNL     1      26.579   4.521  49.311  1.00  0.00     0.032 A 
HETATM   21  C9  UNL     1      27.719   4.773  48.621  1.00  0.00     0.046 A 
HETATM   22  C10 UNL     1      28.021   6.058  48.223  1.00  0.00     0.138 A 
HETATM   23  F1  UNL     1      29.170   6.262  47.537  1.00  0.00    -0.204 F 
HETATM   24  C11 UNL     1      27.140   7.070  48.540  1.00  0.00     0.074 A 
HETATM   25 CL1  UNL     1      27.493   8.713  48.048  1.00  0.00    -0.081 Cl
HETATM   26  C12 UNL     1      26.001   6.747  49.242  1.00  0.00     0.056 A 
ENDBRANCH  17  19
ENDBRANCH   4  17
TORSDOF 7
ENDMDL
MODEL 3
REMARK VINA RESULT:      -7.1      2.326      4.106
REMARK  7 active torsions:
REMARK  status: ('A' for Active; 'I' for Inactive)
REMARK    1  A    between atoms: O1_2  and  C2_3 
REMARK    2  A    between atoms: C2_3  and  C3_4 
REMARK    3  A    between atoms: C2_3  and  C14_20 
REMARK    4  A    between atoms: C6_7  and  N1_8 
REMARK    5  A    between atoms: N1_8  and  C7_9 
REMARK    6  A    between atoms: C14_20  and  O2_21 
REMARK    7  A    between atoms: O2_21  and  C15_22 
ROOT
HETATM    1  C3  UNL     1      23.788   0.706  52.968  1.00  0.00     0.034 C 
HETATM    2  C4  UNL     1      22.999   1.095  51.986  1.00  0.00     0.041 A 
HETATM    3  C5  UNL     1      23.301   2.424  51.357  1.00  0.00     0.137 A 
HETATM    4  C6  UNL     1      22.325   2.701  50.274  1.00  0.00     0.111 A 
HETATM    5  N2  UNL     1      21.346   1.957  49.884  1.00  0.00    -0.228 NA
HETATM    6  C13 UNL     1      21.125   0.711  50.530  1.00  0.00     0.235 A 
HETATM    7  N3  UNL     1      21.904   0.351  51.489  1.00  0.00    -0.246 NA
ENDROOT
BRANCH   1   8
HETATM    8  C2  UNL     1      23.764  -0.542  53.797  1.00  0.00     0.169 C 
BRANCH   8   9
HETATM    9  O1  UNL     1      22.656  -0.508  54.610  1.00  0.00    -0.385 OA
HETATM   10  C1  UNL     1      21.843  -1.625  54.470  1.00  0.00     0.202 C 
ENDBRANCH   8   9
BRANCH   8  11
HETATM   11  C14 UNL     1      25.039  -0.743  54.542  1.00  0.00     0.207 C 
BRANCH  11  12
HETATM   12  O2  UNL     1      26.136  -1.097  53.807  1.00  0.00    -0.358 OA
BRANCH  12  13
HETATM   13  C15 UNL     1      27.161  -0.190  53.753  1.00  0.00     0.261 C 
HETATM   14  C16 UNL     1      28.567  -0.689  53.770  1.00  0.00     0.087 C 
HETATM   15  C17 UNL     1      28.736   0.399  54.815  1.00  0.00     0.175 C 
HETATM   16  O3  UNL     1      27.361   0.536  54.940  1.00  0.00    -0.361 OA
ENDBRANCH  12  13
ENDBRANCH  11  12
ENDBRANCH   8  11
ENDBRANCH   1   8
BRANCH   4  17
HETATM   17  N1  UNL     1      22.462   3.923  49.570  1.00  0.00    -0.344 N 
HETATM   18  H8  UNL     1      21.747   4.178  48.822  1.00  0.00     0.167 HD
BRANCH  17  19
HETATM   19  C7  UNL     1      23.493   4.879  49.774  1.00  0.00     0.035 A 
HETATM   20  C8  UNL     1      23.335   5.946  50.658  1.00  0.00     0.032 A 
HETATM   21  C9  UNL     1      24.283   6.886  50.897  1.00  0.00     0.046 A 
HETATM   22  C10 UNL     1      25.498   6.827  50.249  1.00  0.00     0.138 A 
HETATM   23  F1  UNL     1      26.415   7.786  50.519  1.00  0.00    -0.204 F 
HETATM   24  C11 UNL     1      25.722   5.797  49.361  1.00  0.00     0.074 A 
HETATM   25 CL1  UNL     1      27.256   5.692  48.522  1.00  0.00    -0.081 Cl
HETATM   26  C12 UNL     1      24.718   4.876  49.163  1.00  0.00     0.056 A 
ENDBRANCH  17  19
ENDBRANCH   4  17
TORSDOF 7
ENDMDL
MODEL 4
REMARK VINA RESULT:      -6.9      4.879      8.715
REMARK  7 active torsions:
REMARK  status: ('A' for Active; 'I' for Inactive)
REMARK    1  A    between atoms: O1_2  and  C2_3 
REMARK    2  A    between atoms: C2_3  and  C3_4 
REMARK    3  A    between atoms: C2_3  and  C14_20 
REMARK    4  A    between atoms: C6_7  and  N1_8 
REMARK    5  A    between atoms: N1_8  and  C7_9 
REMARK    6  A    between atoms: C14_20  and  O2_21 
REMARK    7  A    between atoms: O2_21  and  C15_22 
ROOT
HETATM    1  C3  UNL     1      27.247   5.597  48.630  1.00  0.00     0.034 C 
HETATM    2  C4  UNL     1      26.198   5.327  49.381  1.00  0.00     0.041 A 
HETATM    3  C5  UNL     1      25.763   3.892  49.451  1.00  0.00     0.137 A 
HETATM    4  C6  UNL     1      24.579   3.768  50.336  1.00  0.00     0.111 A 
HETATM    5  N2  UNL     1      23.970   4.708  50.977  1.00  0.00    -0.228 NA
HETATM    6  C13 UNL     1      24.443   6.043  50.860  1.00  0.00     0.235 A 
HETATM    7  N3  UNL     1      25.467   6.286  50.119  1.00  0.00    -0.246 NA
ENDROOT
BRANCH   1   8
HETATM    8  C2  UNL     1      27.930   6.900  48.348  1.00  0.00     0.169 C 
BRANCH   8   9
HETATM    9  O1  UNL     1      27.317   7.492  47.269  1.00  0.00    -0.385 OA
HETATM   10  C1  UNL     1      28.216   8.050  46.369  1.00  0.00     0.202 C 
ENDBRANCH   8   9
BRANCH   8  11
HETATM   11  C14 UNL     1      29.400   6.736  48.175  1.00  0.00     0.207 C 
BRANCH  11  12
HETATM   12  O2  UNL     1      29.957   5.588  48.668  1.00  0.00    -0.358 OA
BRANCH  12  13
HETATM   13  C15 UNL     1      31.315   5.589  48.850  1.00  0.00     0.261 C 
HETATM   14  C16 UNL     1      32.164   6.402  47.932  1.00  0.00     0.087 C 
HETATM   15  C17 UNL     1      32.985   5.127  47.876  1.00  0.00     0.175 C 
HETATM   16  O3  UNL     1      31.957   4.402  48.458  1.00  0.00    -0.361 OA
ENDBRANCH  12  13
ENDBRANCH  11  12
ENDBRANCH   8  11
ENDBRANCH   1   8
BRANCH   4  17
HETATM   17  N1  UNL     1      24.030   2.474  50.515  1.00  0.00    -0.344 N 
HETATM   18  H8  UNL     1      23.293   2.119  49.831  1.00  0.00     0.167 HD
BRANCH  17  19
HETATM   19  C7  UNL     1      24.381   1.567  51.550  1.00  0.00     0.035 A 
HETATM   20  C8  UNL     1      23.427   1.055  52.427  1.00  0.00     0.032 A 
HETATM   21  C9  UNL     1      23.701   0.184  53.430  1.00  0.00     0.046 A 
HETATM   22  C10 UNL     1      24.992  -0.252  53.638  1.00  0.00     0.138 A 
HETATM   23  F1  UNL     1      25.219  -1.122  54.651  1.00  0.00    -0.204 F 
HETATM   24  C11 UNL     1      25.987   0.215  52.807  1.00  0.00     0.074 A 
HETATM   25 CL1  UNL     1      27.638  -0.320  53.043  1.00  0.00    -0.081 Cl
HETATM   26  C12 UNL     1      25.642   1.097  51.808  1.00  0.00     0.056 A 
ENDBRANCH  17  19
ENDBRANCH   4  17
TORSDOF 7
ENDMDL
MODEL 5
REMARK VINA RESULT:      -6.6      5.705      8.615
REMARK  7 active torsions:
REMARK  status: ('A' for Active; 'I' for Inactive)
REMARK    1  A    between atoms: O1_2  and  C2_3 
REMARK    2  A    between atoms: C2_3  and  C3_4 
REMARK    3  A    between atoms: C2_3  and  C14_20 
REMARK    4  A    between atoms: C6_7  and  N1_8 
REMARK    5  A    between atoms: N1_8  and  C7_9 
REMARK    6  A    between atoms: C14_20  and  O2_21 
REMARK    7  A    between atoms: O2_21  and  C15_22 
ROOT
HETATM    1  C3  UNL     1      24.767   1.124  53.114  1.00  0.00     0.034 C 
HETATM    2  C4  UNL     1      23.468   1.304  52.987  1.00  0.00     0.041 A 
HETATM    3  C5  UNL     1      22.579   0.179  53.431  1.00  0.00     0.137 A 
HETATM    4  C6  UNL     1      21.157   0.549  53.223  1.00  0.00     0.111 A 
HETATM    5  N2  UNL     1      20.691   1.650  52.739  1.00  0.00    -0.228 NA
HETATM    6  C13 UNL     1      21.597   2.669  52.341  1.00  0.00     0.235 A 
HETATM    7  N3  UNL     1      22.863   2.473  52.470  1.00  0.00    -0.246 NA
ENDROOT
BRANCH   1   8
HETATM    8  C2  UNL     1      25.911   2.030  52.773  1.00  0.00     0.169 C 
BRANCH   8   9
HETATM    9  O1  UNL     1      26.442   1.632  51.568  1.00  0.00    -0.385 OA
HETATM   10  C1  UNL     1      26.615   0.258  51.477  1.00  0.00     0.202 C 
ENDBRANCH   8   9
BRANCH   8  11
HETATM   11  C14 UNL     1      26.918   2.097  53.869  1.00  0.00     0.207 C 
BRANCH  11  12
HETATM   12  O2  UNL     1      26.935   1.059  54.758  1.00  0.00    -0.358 OA
BRANCH  12  13
HETATM   13  C15 UNL     1      28.119   0.384  54.896  1.00  0.00     0.261 C 
HETATM   14  C16 UNL     1      29.281   0.787  54.052  1.00  0.00     0.087 C 
HETATM   15  C17 UNL     1      29.387  -0.710  53.824  1.00  0.00     0.175 C 
HETATM   16  O3  UNL     1      28.120  -0.912  54.351  1.00  0.00    -0.361 OA
ENDBRANCH  12  13
ENDBRANCH  11  12
ENDBRANCH   8  11
ENDBRANCH   1   8
BRANCH   4  17
HETATM   17  N1  UNL     1      20.175  -0.404  53.588  1.00  0.00    -0.344 N 
HETATM   18  H8  UNL     1      20.343  -1.032  54.433  1.00  0.00     0.167 HD
BRANCH  17  19
HETATM   19  C7  UNL     1      18.940  -0.612  52.916  1.00  0.00     0.035 A 
HETATM   20  C8  UNL     1      17.948  -1.435  53.448  1.00  0.00     0.032 A 
HETATM   21  C9  UNL     1      16.750  -1.666  52.856  1.00  0.00     0.046 A 
HETATM   22  C10 UNL     1      16.445  -1.074  51.650  1.00  0.00     0.138 A 
HETATM   23  F1  UNL     1      15.237  -1.334  51.096  1.00  0.00    -0.204 F 
HETATM   24  C11 UNL     1      17.381  -0.247  51.066  1.00  0.00     0.074 A 
HETATM   25 CL1  UNL     1      17.025   0.521  49.534  1.00  0.00    -0.081 Cl
HETATM   26  C12 UNL     1      18.578  -0.054  51.719  1.00  0.00     0.056 A 
ENDBRANCH  17  19
ENDBRANCH   4  17
TORSDOF 7
ENDMDL
MODEL 6
REMARK VINA RESULT:      -6.6      4.235      6.621
REMARK  7 active torsions:
REMARK  status: ('A' for Active; 'I' for Inactive)
REMARK    1  A    between atoms: O1_2  and  C2_3 
REMARK    2  A    between atoms: C2_3  and  C3_4 
REMARK    3  A    between atoms: C2_3  and  C14_20 
REMARK    4  A    between atoms: C6_7  and  N1_8 
REMARK    5  A    between atoms: N1_8  and  C7_9 
REMARK    6  A    between atoms: C14_20  and  O2_21 
REMARK    7  A    between atoms: O2_21  and  C15_22 
ROOT
HETATM    1  C3  UNL     1      27.491   4.853  48.973  1.00  0.00     0.034 C 
HETATM    2  C4  UNL     1      28.020   5.846  48.288  1.00  0.00     0.041 A 
HETATM    3  C5  UNL     1      29.501   5.792  48.046  1.00  0.00     0.137 A 
HETATM    4  C6  UNL     1      29.926   6.977  47.261  1.00  0.00     0.111 A 
HETATM    5  N2  UNL     1      29.188   7.941  46.824  1.00  0.00    -0.228 NA
HETATM    6  C13 UNL     1      27.793   7.920  47.093  1.00  0.00     0.235 A 
HETATM    7  N3  UNL     1      27.296   6.943  47.767  1.00  0.00    -0.246 NA
ENDROOT
BRANCH   1   8
HETATM    8  C2  UNL     1      26.071   4.604  49.383  1.00  0.00     0.169 C 
BRANCH   8   9
HETATM    9  O1  UNL     1      25.639   5.668  50.139  1.00  0.00    -0.385 OA
HETATM   10  C1  UNL     1      24.390   5.461  50.707  1.00  0.00     0.202 C 
ENDBRANCH   8   9
BRANCH   8  11
HETATM   11  C14 UNL     1      25.908   3.290  50.065  1.00  0.00     0.207 C 
BRANCH  11  12
HETATM   12  O2  UNL     1      26.992   2.805  50.743  1.00  0.00    -0.358 OA
BRANCH  12  13
HETATM   13  C15 UNL     1      26.743   2.161  51.926  1.00  0.00     0.261 C 
HETATM   14  C16 UNL     1      27.791   2.174  52.988  1.00  0.00     0.087 C 
HETATM   15  C17 UNL     1      27.474   0.691  53.047  1.00  0.00     0.175 C 
HETATM   16  O3  UNL     1      26.783   0.758  51.847  1.00  0.00    -0.361 OA
ENDBRANCH  12  13
ENDBRANCH  11  12
ENDBRANCH   8  11
ENDBRANCH   1   8
BRANCH   4  17
HETATM   17  N1  UNL     1      31.302   7.090  46.943  1.00  0.00    -0.344 N 
HETATM   18  H8  UNL     1      31.663   7.984  46.490  1.00  0.00     0.167 HD
BRANCH  17  19
HETATM   19  C7  UNL     1      32.286   6.093  47.183  1.00  0.00     0.035 A 
HETATM   20  C8  UNL     1      32.280   4.881  46.494  1.00  0.00     0.032 A 
HETATM   21  C9  UNL     1      33.194   3.895  46.676  1.00  0.00     0.046 A 
HETATM   22  C10 UNL     1      34.213   4.053  47.590  1.00  0.00     0.138 A 
HETATM   23  F1  UNL     1      35.102   3.043  47.738  1.00  0.00    -0.204 F 
HETATM   24  C11 UNL     1      34.279   5.229  48.307  1.00  0.00     0.074 A 
HETATM   25 CL1  UNL     1      35.562   5.462  49.475  1.00  0.00    -0.081 Cl
HETATM   26  C12 UNL     1      33.321   6.189  48.075  1.00  0.00     0.056 A 
ENDBRANCH  17  19
ENDBRANCH   4  17
TORSDOF 7
ENDMDL
MODEL 7
REMARK VINA RESULT:      -6.6      4.793      7.707
REMARK  7 active torsions:
REMARK  status: ('A' for Active; 'I' for Inactive)
REMARK    1  A    between atoms: O1_2  and  C2_3 
REMARK    2  A    between atoms: C2_3  and  C3_4 
REMARK    3  A    between atoms: C2_3  and  C14_20 
REMARK    4  A    between atoms: C6_7  and  N1_8 
REMARK    5  A    between atoms: N1_8  and  C7_9 
REMARK    6  A    between atoms: C14_20  and  O2_21 
REMARK    7  A    between atoms: O2_21  and  C15_22 
ROOT
HETATM    1  C3  UNL     1      26.859   4.995  49.294  1.00  0.00     0.034 C 
HETATM    2  C4  UNL     1      25.726   4.375  49.556  1.00  0.00     0.041 A 
HETATM    3  C5  UNL     1      25.791   3.210  50.500  1.00  0.00     0.137 A 
HETATM    4  C6  UNL     1      24.435   2.636  50.684  1.00  0.00     0.111 A 
HETATM    5  N2  UNL     1      23.331   3.030  50.145  1.00  0.00    -0.228 NA
HETATM    6  C13 UNL     1      23.352   4.142  49.261  1.00  0.00     0.235 A 
HETATM    7  N3  UNL     1      24.469   4.732  49.017  1.00  0.00    -0.246 NA
ENDROOT
BRANCH   1   8
HETATM    8  C2  UNL     1      27.141   6.173  48.412  1.00  0.00     0.169 C 
BRANCH   8   9
HETATM    9  O1  UNL     1      28.393   6.021  47.864  1.00  0.00    -0.385 OA
HETATM   10  C1  UNL     1      29.195   7.144  48.021  1.00  0.00     0.202 C 
ENDBRANCH   8   9
BRANCH   8  11
HETATM   11  C14 UNL     1      26.962   7.466  49.130  1.00  0.00     0.207 C 
BRANCH  11  12
HETATM   12  O2  UNL     1      26.123   7.463  50.209  1.00  0.00    -0.358 OA
BRANCH  12  13
HETATM   13  C15 UNL     1      25.002   8.246  50.122  1.00  0.00     0.261 C 
HETATM   14  C16 UNL     1      23.761   7.809  50.825  1.00  0.00     0.087 C 
HETATM   15  C17 UNL     1      23.119   8.150  49.493  1.00  0.00     0.175 C 
HETATM   16  O3  UNL     1      24.358   8.205  48.873  1.00  0.00    -0.361 OA
ENDBRANCH  12  13
ENDBRANCH  11  12
ENDBRANCH   8  11
ENDBRANCH   1   8
BRANCH   4  17
HETATM   17  N1  UNL     1      24.311   1.519  51.547  1.00  0.00    -0.344 N 
HETATM   18  H8  UNL     1      23.400   0.966  51.560  1.00  0.00     0.167 HD
BRANCH  17  19
HETATM   19  C7  UNL     1      25.320   1.044  52.427  1.00  0.00     0.035 A 
HETATM   20  C8  UNL     1      25.657   1.732  53.592  1.00  0.00     0.032 A 
HETATM   21  C9  UNL     1      26.607   1.326  54.471  1.00  0.00     0.046 A 
HETATM   22  C10 UNL     1      27.312   0.164  54.243  1.00  0.00     0.138 A 
HETATM   23  F1  UNL     1      28.250  -0.202  55.148  1.00  0.00    -0.204 F 
HETATM   24  C11 UNL     1      27.030  -0.567  53.110  1.00  0.00     0.074 A 
HETATM   25 CL1  UNL     1      27.908  -2.049  52.792  1.00  0.00    -0.081 Cl
HETATM   26  C12 UNL     1      26.055  -0.100  52.258  1.00  0.00     0.056 A 
ENDBRANCH  17  19
ENDBRANCH   4  17
TORSDOF 7
ENDMDL
MODEL 8
REMARK VINA RESULT:      -6.5      4.709      6.611
REMARK  7 active torsions:
REMARK  status: ('A' for Active; 'I' for Inactive)
REMARK    1  A    between atoms: O1_2  and  C2_3 
REMARK    2  A    between atoms: C2_3  and  C3_4 
REMARK    3  A    between atoms: C2_3  and  C14_20 
REMARK    4  A    between atoms: C6_7  and  N1_8 
REMARK    5  A    between atoms: N1_8  and  C7_9 
REMARK    6  A    between atoms: C14_20  and  O2_21 
REMARK    7  A    between atoms: O2_21  and  C15_22 
ROOT
HETATM    1  C3  UNL     1      21.284   1.266  52.100  1.00  0.00     0.034 C 
HETATM    2  C4  UNL     1      22.258   2.145  51.972  1.00  0.00     0.041 A 
HETATM    3  C5  UNL     1      23.621   1.606  51.646  1.00  0.00     0.137 A 
HETATM    4  C6  UNL     1      24.591   2.724  51.534  1.00  0.00     0.111 A 
HETATM    5  N2  UNL     1      24.362   3.984  51.683  1.00  0.00    -0.228 NA
HETATM    6  C13 UNL     1      23.044   4.417  51.991  1.00  0.00     0.235 A 
HETATM    7  N3  UNL     1      22.107   3.543  52.115  1.00  0.00    -0.246 NA
ENDROOT
BRANCH   1   8
HETATM    8  C2  UNL     1      19.833   1.465  52.416  1.00  0.00     0.169 C 
BRANCH   8   9
HETATM    9  O1  UNL     1      19.253   0.233  52.606  1.00  0.00    -0.385 OA
HETATM   10  C1  UNL     1      19.962  -0.574  53.486  1.00  0.00     0.202 C 
ENDBRANCH   8   9
BRANCH   8  11
HETATM   11  C14 UNL     1      19.144   2.291  51.386  1.00  0.00     0.207 C 
BRANCH  11  12
HETATM   12  O2  UNL     1      18.921   1.706  50.171  1.00  0.00    -0.358 OA
BRANCH  12  13
HETATM   13  C15 UNL     1      19.506   2.299  49.083  1.00  0.00     0.261 C 
HETATM   14  C16 UNL     1      20.806   1.765  48.582  1.00  0.00     0.087 C 
HETATM   15  C17 UNL     1      21.185   3.235  48.574  1.00  0.00     0.175 C 
HETATM   16  O3  UNL     1      20.076   3.558  49.342  1.00  0.00    -0.361 OA
ENDBRANCH  12  13
ENDBRANCH  11  12
ENDBRANCH   8  11
ENDBRANCH   1   8
BRANCH   4  17
HETATM   17  N1  UNL     1      25.935   2.394  51.232  1.00  0.00    -0.344 N 
HETATM   18  H8  UNL     1      26.398   2.820  50.372  1.00  0.00     0.167 HD
BRANCH  17  19
HETATM   19  C7  UNL     1      26.759   1.521  51.993  1.00  0.00     0.035 A 
HETATM   20  C8  UNL     1      27.736   2.010  52.859  1.00  0.00     0.032 A 
HETATM   21  C9  UNL     1      28.547   1.228  53.614  1.00  0.00     0.046 A 
HETATM   22  C10 UNL     1      28.440  -0.145  53.555  1.00  0.00     0.138 A 
HETATM   23  F1  UNL     1      29.270  -0.886  54.326  1.00  0.00    -0.204 F 
HETATM   24  C11 UNL     1      27.493  -0.697  52.718  1.00  0.00     0.074 A 
HETATM   25 CL1  UNL     1      27.330  -2.437  52.621  1.00  0.00    -0.081 Cl
HETATM   26  C12 UNL     1      26.701   0.153  51.980  1.00  0.00     0.056 A 
ENDBRANCH  17  19
ENDBRANCH   4  17
TORSDOF 7
ENDMDL
MODEL 9
REMARK VINA RESULT:      -6.5      2.933      4.963
REMARK  7 active torsions:
REMARK  status: ('A' for Active; 'I' for Inactive)
REMARK    1  A    between atoms: O1_2  and  C2_3 
REMARK    2  A    between atoms: C2_3  and  C3_4 
REMARK    3  A    between atoms: C2_3  and  C14_20 
REMARK    4  A    between atoms: C6_7  and  N1_8 
REMARK    5  A    between atoms: N1_8  and  C7_9 
REMARK    6  A    between atoms: C14_20  and  O2_21 
REMARK    7  A    between atoms: O2_21  and  C15_22 
ROOT
HETATM    1  C3  UNL     1      26.580   3.351  49.661  1.00  0.00     0.034 C 
HETATM    2  C4  UNL     1      26.681   4.640  49.405  1.00  0.00     0.041 A 
HETATM    3  C5  UNL     1      27.789   5.065  48.485  1.00  0.00     0.137 A 
HETATM    4  C6  UNL     1      27.755   6.538  48.305  1.00  0.00     0.111 A 
HETATM    5  N2  UNL     1      26.929   7.378  48.829  1.00  0.00    -0.228 NA
HETATM    6  C13 UNL     1      25.906   6.897  49.691  1.00  0.00     0.235 A 
HETATM    7  N3  UNL     1      25.826   5.635  49.930  1.00  0.00    -0.246 NA
ENDROOT
BRANCH   1   8
HETATM    8  C2  UNL     1      25.606   2.605  50.521  1.00  0.00     0.169 C 
BRANCH   8   9
HETATM    9  O1  UNL     1      24.399   3.263  50.490  1.00  0.00    -0.385 OA
HETATM   10  C1  UNL     1      23.528   2.851  51.489  1.00  0.00     0.202 C 
ENDBRANCH   8   9
BRANCH   8  11
HETATM   11  C14 UNL     1      26.127   2.391  51.900  1.00  0.00     0.207 C 
BRANCH  11  12
HETATM   12  O2  UNL     1      27.483   2.446  52.065  1.00  0.00    -0.358 OA
BRANCH  12  13
HETATM   13  C15 UNL     1      28.006   1.743  53.118  1.00  0.00     0.261 C 
HETATM   14  C16 UNL     1      27.882   0.256  53.124  1.00  0.00     0.087 C 
HETATM   15  C17 UNL     1      27.432   0.493  54.554  1.00  0.00     0.175 C 
HETATM   16  O3  UNL     1      27.273   1.849  54.312  1.00  0.00    -0.361 OA
ENDBRANCH  12  13
ENDBRANCH  11  12
ENDBRANCH   8  11
ENDBRANCH   1   8
BRANCH   4  17
HETATM   17  N1  UNL     1      28.739   7.115  47.464  1.00  0.00    -0.344 N 
HETATM   18  H8  UNL     1      28.465   7.442  46.487  1.00  0.00     0.167 HD
BRANCH  17  19
HETATM   19  C7  UNL     1      30.103   7.312  47.809  1.00  0.00     0.035 A 
HETATM   20  C8  UNL     1      30.474   8.067  48.920  1.00  0.00     0.032 A 
HETATM   21  C9  UNL     1      31.757   8.285  49.301  1.00  0.00     0.046 A 
HETATM   22  C10 UNL     1      32.798   7.748  48.574  1.00  0.00     0.138 A 
HETATM   23  F1  UNL     1      34.063   7.992  48.992  1.00  0.00    -0.204 F 
HETATM   24  C11 UNL     1      32.503   6.989  47.462  1.00  0.00     0.074 A 
HETATM   25 CL1  UNL     1      33.802   6.291  46.518  1.00  0.00    -0.081 Cl
HETATM   26  C12 UNL     1      31.180   6.806  47.130  1.00  0.00     0.056 A 
ENDBRANCH  17  19
ENDBRANCH   4  17
TORSDOF 7
ENDMDL
