MODEL 1
REMARK VINA RESULT:      -8.6      0.000      0.000
REMARK  2 active torsions:
REMARK  status: ('A' for Active; 'I' for Inactive)
REMARK    1  A    between atoms: C5_6  and  N1_7 
REMARK    2  A    between atoms: N1_7  and  C6_8 
ROOT
HETATM    1  C6  UNL     1      24.155   2.533  52.757  1.00  0.00     0.160 A 
HETATM    2  N2  UNL     1      22.910   2.027  52.661  1.00  0.00    -0.222 NA
HETATM    3  C7  UNL     1      22.717   0.695  52.776  1.00  0.00     0.238 A 
HETATM    4  N3  UNL     1      23.792  -0.101  52.985  1.00  0.00    -0.215 NA
HETATM    5  C8  UNL     1      25.036   0.423  53.080  1.00  0.00     0.202 A 
HETATM    6  C9  UNL     1      25.279   1.770  52.972  1.00  0.00     0.129 A 
HETATM    7  N4  UNL     1      26.468   2.514  53.050  1.00  0.00    -0.379 N 
HETATM    8  C10 UNL     1      27.745   2.145  53.647  1.00  0.00     0.161 C 
HETATM    9  C11 UNL     1      28.053   0.707  53.527  1.00  0.00    -0.007 A 
HETATM   10  C12 UNL     1      29.452   0.610  53.585  1.00  0.00     0.011 A 
HETATM   11  C13 UNL     1      30.084  -0.625  53.480  1.00  0.00     0.001 A 
HETATM   12  C14 UNL     1      29.286  -1.753  53.316  1.00  0.00     0.003 A 
HETATM   13  C15 UNL     1      27.911  -1.708  53.256  1.00  0.00     0.038 A 
HETATM   14  C16 UNL     1      27.364  -0.462  53.365  1.00  0.00     0.086 A 
HETATM   15  O1  UNL     1      25.983  -0.569  53.287  1.00  0.00    -0.289 OA
HETATM   16  H6  UNL     1      26.353   3.458  52.609  1.00  0.00     0.160 HD
ENDROOT
BRANCH   1  17
HETATM   17  N1  UNL     1      24.219   3.946  52.596  1.00  0.00    -0.339 N 
HETATM   18  H4  UNL     1      24.429   4.405  53.528  1.00  0.00     0.167 HD
BRANCH  17  19
HETATM   19  C5  UNL     1      24.032   4.690  51.402  1.00  0.00     0.035 A 
HETATM   20  C4  UNL     1      24.839   4.438  50.318  1.00  0.00     0.029 A 
HETATM   21  C3  UNL     1      24.613   5.194  49.192  1.00  0.00     0.004 A 
HETATM   22  C2  UNL     1      23.615   6.153  49.185  1.00  0.00     0.019 A 
HETATM   23  C1  UNL     1      22.795   6.415  50.273  1.00  0.00     0.013 A 
HETATM   24 BR1  UNL     1      21.427   7.741  50.240  1.00  0.00    -0.051 Br
HETATM   25  C17 UNL     1      23.037   5.649  51.386  1.00  0.00     0.048 A 
ENDBRANCH  17  19
ENDBRANCH   1  17
TORSDOF 2
ENDMDL
MODEL 2
REMARK VINA RESULT:      -8.6      2.493      4.737
REMARK  2 active torsions:
REMARK  status: ('A' for Active; 'I' for Inactive)
REMARK    1  A    between atoms: C5_6  and  N1_7 
REMARK    2  A    between atoms: N1_7  and  C6_8 
ROOT
HETATM    1  C6  UNL     1      25.656   2.653  51.023  1.00  0.00     0.160 A 
HETATM    2  N2  UNL     1      26.958   2.678  51.374  1.00  0.00    -0.222 NA
HETATM    3  C7  UNL     1      27.399   1.877  52.367  1.00  0.00     0.238 A 
HETATM    4  N3  UNL     1      26.512   1.064  52.989  1.00  0.00    -0.215 NA
HETATM    5  C8  UNL     1      25.209   1.050  52.624  1.00  0.00     0.202 A 
HETATM    6  C9  UNL     1      24.717   1.845  51.618  1.00  0.00     0.129 A 
HETATM    7  N4  UNL     1      23.425   1.978  51.080  1.00  0.00    -0.379 N 
HETATM    8  C10 UNL     1      22.302   1.052  51.150  1.00  0.00     0.161 C 
HETATM    9  C11 UNL     1      22.250   0.289  52.411  1.00  0.00    -0.007 A 
HETATM   10  C12 UNL     1      20.904  -0.071  52.584  1.00  0.00     0.011 A 
HETATM   11  C13 UNL     1      20.500  -0.793  53.702  1.00  0.00     0.001 A 
HETATM   12  C14 UNL     1      21.468  -1.143  54.637  1.00  0.00     0.003 A 
HETATM   13  C15 UNL     1      22.800  -0.814  54.509  1.00  0.00     0.038 A 
HETATM   14  C16 UNL     1      23.120  -0.106  53.388  1.00  0.00     0.086 A 
HETATM   15  O1  UNL     1      24.483   0.154  53.393  1.00  0.00    -0.289 OA
HETATM   16  H6  UNL     1      23.324   2.883  50.562  1.00  0.00     0.160 HD
ENDROOT
BRANCH   1  17
HETATM   17  N1  UNL     1      25.322   3.560  49.978  1.00  0.00    -0.339 N 
HETATM   18  H4  UNL     1      24.390   3.291  49.552  1.00  0.00     0.167 HD
BRANCH  17  19
HETATM   19  C5  UNL     1      26.079   4.672  49.523  1.00  0.00     0.035 A 
HETATM   20  C4  UNL     1      27.249   4.454  48.836  1.00  0.00     0.029 A 
HETATM   21  C3  UNL     1      27.940   5.569  48.425  1.00  0.00     0.004 A 
HETATM   22  C2  UNL     1      27.453   6.833  48.705  1.00  0.00     0.019 A 
HETATM   23  C1  UNL     1      26.272   7.065  49.397  1.00  0.00     0.013 A 
HETATM   24 BR1  UNL     1      25.621   8.816  49.773  1.00  0.00    -0.051 Br
HETATM   25  C17 UNL     1      25.598   5.938  49.798  1.00  0.00     0.048 A 
ENDBRANCH  17  19
ENDBRANCH   1  17
TORSDOF 2
ENDMDL
MODEL 3
REMARK VINA RESULT:      -8.2      2.982      4.577
REMARK  2 active torsions:
REMARK  status: ('A' for Active; 'I' for Inactive)
REMARK    1  A    between atoms: C5_6  and  N1_7 
REMARK    2  A    between atoms: N1_7  and  C6_8 
ROOT
HETATM    1  C6  UNL     1      23.543   0.979  52.935  1.00  0.00     0.160 A 
HETATM    2  N2  UNL     1      23.096   2.251  52.926  1.00  0.00    -0.222 NA
HETATM    3  C7  UNL     1      23.978   3.272  52.981  1.00  0.00     0.238 A 
HETATM    4  N3  UNL     1      25.300   2.985  53.046  1.00  0.00    -0.215 NA
HETATM    5  C8  UNL     1      25.733   1.703  53.054  1.00  0.00     0.202 A 
HETATM    6  C9  UNL     1      24.873   0.634  52.997  1.00  0.00     0.129 A 
HETATM    7  N4  UNL     1      25.105  -0.752  52.981  1.00  0.00    -0.379 N 
HETATM    8  C10 UNL     1      26.320  -1.476  52.632  1.00  0.00     0.161 C 
HETATM    9  C11 UNL     1      27.554  -0.759  53.004  1.00  0.00    -0.007 A 
HETATM   10  C12 UNL     1      28.538  -1.749  53.161  1.00  0.00     0.011 A 
HETATM   11  C13 UNL     1      29.834  -1.409  53.534  1.00  0.00     0.001 A 
HETATM   12  C14 UNL     1      30.121  -0.064  53.747  1.00  0.00     0.003 A 
HETATM   13  C15 UNL     1      29.190   0.942  53.603  1.00  0.00     0.038 A 
HETATM   14  C16 UNL     1      27.942   0.532  53.236  1.00  0.00     0.086 A 
HETATM   15  O1  UNL     1      27.115   1.642  53.131  1.00  0.00    -0.289 OA
HETATM   16  H6  UNL     1      24.244  -1.282  53.258  1.00  0.00     0.160 HD
ENDROOT
BRANCH   1  17
HETATM   17  N1  UNL     1      22.508   0.002  52.895  1.00  0.00    -0.339 N 
HETATM   18  H4  UNL     1      22.796  -0.850  53.456  1.00  0.00     0.167 HD
BRANCH  17  19
HETATM   19  C5  UNL     1      21.262   0.089  52.221  1.00  0.00     0.035 A 
HETATM   20  C4  UNL     1      21.201   0.703  50.992  1.00  0.00     0.029 A 
HETATM   21  C3  UNL     1      19.966   0.761  50.392  1.00  0.00     0.004 A 
HETATM   22  C2  UNL     1      18.860   0.218  51.021  1.00  0.00     0.019 A 
HETATM   23  C1  UNL     1      18.909  -0.405  52.260  1.00  0.00     0.013 A 
HETATM   24 BR1  UNL     1      17.371  -1.145  53.107  1.00  0.00    -0.051 Br
HETATM   25  C17 UNL     1      20.152  -0.452  52.842  1.00  0.00     0.048 A 
ENDBRANCH  17  19
ENDBRANCH   1  17
TORSDOF 2
ENDMDL
MODEL 4
REMARK VINA RESULT:      -8.1      3.429      6.700
REMARK  2 active torsions:
REMARK  status: ('A' for Active; 'I' for Inactive)
REMARK    1  A    between atoms: C5_6  and  N1_7 
REMARK    2  A    between atoms: N1_7  and  C6_8 
ROOT
HETATM    1  C6  UNL     1      23.737   2.577  51.643  1.00  0.00     0.160 A 
HETATM    2  N2  UNL     1      22.603   2.925  52.283  1.00  0.00    -0.222 NA
HETATM    3  C7  UNL     1      22.186   4.209  52.257  1.00  0.00     0.238 A 
HETATM    4  N3  UNL     1      22.929   5.119  51.583  1.00  0.00    -0.215 NA
HETATM    5  C8  UNL     1      24.065   4.754  50.945  1.00  0.00     0.202 A 
HETATM    6  C9  UNL     1      24.525   3.460  50.943  1.00  0.00     0.129 A 
HETATM    7  N4  UNL     1      25.653   2.872  50.347  1.00  0.00    -0.379 N 
HETATM    8  C10 UNL     1      26.465   3.357  49.238  1.00  0.00     0.161 C 
HETATM    9  C11 UNL     1      26.579   4.827  49.198  1.00  0.00    -0.007 A 
HETATM   10  C12 UNL     1      27.778   5.098  48.519  1.00  0.00     0.011 A 
HETATM   11  C13 UNL     1      28.201   6.408  48.321  1.00  0.00     0.001 A 
HETATM   12  C14 UNL     1      27.402   7.434  48.817  1.00  0.00     0.003 A 
HETATM   13  C15 UNL     1      26.218   7.217  49.487  1.00  0.00     0.038 A 
HETATM   14  C16 UNL     1      25.869   5.907  49.642  1.00  0.00     0.086 A 
HETATM   15  O1  UNL     1      24.665   5.841  50.330  1.00  0.00    -0.289 OA
HETATM   16  H6  UNL     1      25.884   1.955  50.799  1.00  0.00     0.160 HD
ENDROOT
BRANCH   1  17
HETATM   17  N1  UNL     1      24.072   1.199  51.769  1.00  0.00    -0.339 N 
HETATM   18  H4  UNL     1      23.892   0.700  50.852  1.00  0.00     0.167 HD
BRANCH  17  19
HETATM   19  C5  UNL     1      24.569   0.531  52.919  1.00  0.00     0.035 A 
HETATM   20  C4  UNL     1      23.715  -0.240  53.672  1.00  0.00     0.029 A 
HETATM   21  C3  UNL     1      24.252  -0.858  54.775  1.00  0.00     0.004 A 
HETATM   22  C2  UNL     1      25.591  -0.691  55.084  1.00  0.00     0.019 A 
HETATM   23  C1  UNL     1      26.462   0.084  54.332  1.00  0.00     0.013 A 
HETATM   24 BR1  UNL     1      28.302   0.300  54.778  1.00  0.00    -0.051 Br
HETATM   25  C17 UNL     1      25.905   0.692  53.234  1.00  0.00     0.048 A 
ENDBRANCH  17  19
ENDBRANCH   1  17
TORSDOF 2
ENDMDL
MODEL 5
REMARK VINA RESULT:      -8.0      4.151      7.400
REMARK  2 active torsions:
REMARK  status: ('A' for Active; 'I' for Inactive)
REMARK    1  A    between atoms: C5_6  and  N1_7 
REMARK    2  A    between atoms: N1_7  and  C6_8 
ROOT
HETATM    1  C6  UNL     1      24.061   0.209  53.247  1.00  0.00     0.160 A 
HETATM    2  N2  UNL     1      24.453  -0.432  54.366  1.00  0.00    -0.222 NA
HETATM    3  C7  UNL     1      23.558  -1.156  55.072  1.00  0.00     0.238 A 
HETATM    4  N3  UNL     1      22.278  -1.215  54.631  1.00  0.00    -0.215 NA
HETATM    5  C8  UNL     1      21.901  -0.566  53.505  1.00  0.00     0.202 A 
HETATM    6  C9  UNL     1      22.777   0.179  52.755  1.00  0.00     0.129 A 
HETATM    7  N4  UNL     1      22.602   0.911  51.569  1.00  0.00    -0.379 N 
HETATM    8  C10 UNL     1      21.553   0.796  50.564  1.00  0.00     0.161 C 
HETATM    9  C11 UNL     1      20.242   0.424  51.129  1.00  0.00    -0.007 A 
HETATM   10  C12 UNL     1      19.285   0.910  50.223  1.00  0.00     0.011 A 
HETATM   11  C13 UNL     1      17.927   0.742  50.468  1.00  0.00     0.001 A 
HETATM   12  C14 UNL     1      17.550   0.082  51.634  1.00  0.00     0.003 A 
HETATM   13  C15 UNL     1      18.452  -0.414  52.550  1.00  0.00     0.038 A 
HETATM   14  C16 UNL     1      19.766  -0.211  52.241  1.00  0.00     0.086 A 
HETATM   15  O1  UNL     1      20.553  -0.757  53.245  1.00  0.00    -0.289 OA
HETATM   16  H6  UNL     1      23.370   1.613  51.441  1.00  0.00     0.160 HD
ENDROOT
BRANCH   1  17
HETATM   17  N1  UNL     1      25.097   0.951  52.613  1.00  0.00    -0.339 N 
HETATM   18  H4  UNL     1      24.709   1.465  51.771  1.00  0.00     0.167 HD
BRANCH  17  19
HETATM   19  C5  UNL     1      26.463   1.029  52.994  1.00  0.00     0.035 A 
HETATM   20  C4  UNL     1      26.998   2.248  53.338  1.00  0.00     0.029 A 
HETATM   21  C3  UNL     1      28.326   2.261  53.692  1.00  0.00     0.004 A 
HETATM   22  C2  UNL     1      29.058   1.086  53.692  1.00  0.00     0.019 A 
HETATM   23  C1  UNL     1      28.528  -0.149  53.347  1.00  0.00     0.013 A 
HETATM   24 BR1  UNL     1      29.558  -1.752  53.352  1.00  0.00    -0.051 Br
HETATM   25  C17 UNL     1      27.201  -0.139  52.997  1.00  0.00     0.048 A 
ENDBRANCH  17  19
ENDBRANCH   1  17
TORSDOF 2
ENDMDL
MODEL 6
REMARK VINA RESULT:      -8.0      4.448      6.642
REMARK  2 active torsions:
REMARK  status: ('A' for Active; 'I' for Inactive)
REMARK    1  A    between atoms: C5_6  and  N1_7 
REMARK    2  A    between atoms: N1_7  and  C6_8 
ROOT
HETATM    1  C6  UNL     1      23.700   4.347  51.428  1.00  0.00     0.160 A 
HETATM    2  N2  UNL     1      22.547   4.992  51.697  1.00  0.00    -0.222 NA
HETATM    3  C7  UNL     1      22.312   6.201  51.143  1.00  0.00     0.238 A 
HETATM    4  N3  UNL     1      23.252   6.736  50.327  1.00  0.00    -0.215 NA
HETATM    5  C8  UNL     1      24.403   6.075  50.067  1.00  0.00     0.202 A 
HETATM    6  C9  UNL     1      24.683   4.842  50.605  1.00  0.00     0.129 A 
HETATM    7  N4  UNL     1      25.791   3.990  50.461  1.00  0.00    -0.379 N 
HETATM    8  C10 UNL     1      26.800   3.965  49.410  1.00  0.00     0.161 C 
HETATM    9  C11 UNL     1      27.113   5.300  48.868  1.00  0.00    -0.007 A 
HETATM   10  C12 UNL     1      28.416   5.207  48.354  1.00  0.00     0.011 A 
HETATM   11  C13 UNL     1      29.033   6.313  47.778  1.00  0.00     0.001 A 
HETATM   12  C14 UNL     1      28.319   7.507  47.729  1.00  0.00     0.003 A 
HETATM   13  C15 UNL     1      27.039   7.645  48.219  1.00  0.00     0.038 A 
HETATM   14  C16 UNL     1      26.501   6.519  48.769  1.00  0.00     0.086 A 
HETATM   15  O1  UNL     1      25.219   6.805  49.217  1.00  0.00    -0.289 OA
HETATM   16  H6  UNL     1      25.836   3.294  51.244  1.00  0.00     0.160 HD
ENDROOT
BRANCH   1  17
HETATM   17  N1  UNL     1      23.828   3.094  52.093  1.00  0.00    -0.339 N 
HETATM   18  H4  UNL     1      24.690   3.101  52.710  1.00  0.00     0.167 HD
BRANCH  17  19
HETATM   19  C5  UNL     1      22.974   1.965  51.985  1.00  0.00     0.035 A 
HETATM   20  C4  UNL     1      22.404   1.665  50.770  1.00  0.00     0.029 A 
HETATM   21  C3  UNL     1      21.583   0.564  50.730  1.00  0.00     0.004 A 
HETATM   22  C2  UNL     1      21.363  -0.184  51.874  1.00  0.00     0.019 A 
HETATM   23  C1  UNL     1      21.933   0.110  53.104  1.00  0.00     0.013 A 
HETATM   24 BR1  UNL     1      21.614  -0.934  54.666  1.00  0.00    -0.051 Br
HETATM   25  C17 UNL     1      22.750   1.213  53.122  1.00  0.00     0.048 A 
ENDBRANCH  17  19
ENDBRANCH   1  17
TORSDOF 2
ENDMDL
MODEL 7
REMARK VINA RESULT:      -7.9      1.829      2.073
REMARK  2 active torsions:
REMARK  status: ('A' for Active; 'I' for Inactive)
REMARK    1  A    between atoms: C5_6  and  N1_7 
REMARK    2  A    between atoms: N1_7  and  C6_8 
ROOT
HETATM    1  C6  UNL     1      23.437   1.635  52.937  1.00  0.00     0.160 A 
HETATM    2  N2  UNL     1      22.330   0.866  52.916  1.00  0.00    -0.222 NA
HETATM    3  C7  UNL     1      22.440  -0.471  53.074  1.00  0.00     0.238 A 
HETATM    4  N3  UNL     1      23.673  -1.005  53.249  1.00  0.00    -0.215 NA
HETATM    5  C8  UNL     1      24.774  -0.219  53.268  1.00  0.00     0.202 A 
HETATM    6  C9  UNL     1      24.709   1.144  53.115  1.00  0.00     0.129 A 
HETATM    7  N4  UNL     1      25.708   2.132  53.114  1.00  0.00    -0.379 N 
HETATM    8  C10 UNL     1      27.059   2.072  53.656  1.00  0.00     0.161 C 
HETATM    9  C11 UNL     1      27.670   0.734  53.557  1.00  0.00    -0.007 A 
HETATM   10  C12 UNL     1      29.058   0.947  53.547  1.00  0.00     0.011 A 
HETATM   11  C13 UNL     1      29.940  -0.123  53.443  1.00  0.00     0.001 A 
HETATM   12  C14 UNL     1      29.404  -1.404  53.347  1.00  0.00     0.003 A 
HETATM   13  C15 UNL     1      28.051  -1.662  53.354  1.00  0.00     0.038 A 
HETATM   14  C16 UNL     1      27.249  -0.563  53.459  1.00  0.00     0.086 A 
HETATM   15  O1  UNL     1      25.923  -0.972  53.453  1.00  0.00    -0.289 OA
HETATM   16  H6  UNL     1      25.369   3.012  52.656  1.00  0.00     0.160 HD
ENDROOT
BRANCH   1  17
HETATM   17  N1  UNL     1      23.181   3.021  52.738  1.00  0.00    -0.339 N 
HETATM   18  H4  UNL     1      23.568   3.579  53.552  1.00  0.00     0.167 HD
BRANCH  17  19
HETATM   19  C5  UNL     1      22.511   3.629  51.644  1.00  0.00     0.035 A 
HETATM   20  C4  UNL     1      21.762   4.762  51.857  1.00  0.00     0.029 A 
HETATM   21  C3  UNL     1      21.133   5.301  50.761  1.00  0.00     0.004 A 
HETATM   22  C2  UNL     1      21.268   4.707  49.518  1.00  0.00     0.019 A 
HETATM   23  C1  UNL     1      22.022   3.565  49.291  1.00  0.00     0.013 A 
HETATM   24 BR1  UNL     1      22.193   2.765  47.570  1.00  0.00    -0.051 Br
HETATM   25  C17 UNL     1      22.642   3.043  50.399  1.00  0.00     0.048 A 
ENDBRANCH  17  19
ENDBRANCH   1  17
TORSDOF 2
ENDMDL
MODEL 8
REMARK VINA RESULT:      -7.9      3.830      7.607
REMARK  2 active torsions:
REMARK  status: ('A' for Active; 'I' for Inactive)
REMARK    1  A    between atoms: C5_6  and  N1_7 
REMARK    2  A    between atoms: N1_7  and  C6_8 
ROOT
HETATM    1  C6  UNL     1      23.582   1.255  52.339  1.00  0.00     0.160 A 
HETATM    2  N2  UNL     1      24.249   2.039  51.468  1.00  0.00    -0.222 NA
HETATM    3  C7  UNL     1      23.604   2.549  50.397  1.00  0.00     0.238 A 
HETATM    4  N3  UNL     1      22.293   2.252  50.226  1.00  0.00    -0.215 NA
HETATM    5  C8  UNL     1      21.638   1.464  51.110  1.00  0.00     0.202 A 
HETATM    6  C9  UNL     1      22.253   0.927  52.214  1.00  0.00     0.129 A 
HETATM    7  N4  UNL     1      21.767   0.107  53.247  1.00  0.00    -0.379 N 
HETATM    8  C10 UNL     1      20.392  -0.108  53.679  1.00  0.00     0.161 C 
HETATM    9  C11 UNL     1      19.417  -0.053  52.574  1.00  0.00    -0.007 A 
HETATM   10  C12 UNL     1      18.319  -0.820  52.995  1.00  0.00     0.011 A 
HETATM   11  C13 UNL     1      17.214  -0.992  52.169  1.00  0.00     0.001 A 
HETATM   12  C14 UNL     1      17.234  -0.384  50.917  1.00  0.00     0.003 A 
HETATM   13  C15 UNL     1      18.287   0.378  50.461  1.00  0.00     0.038 A 
HETATM   14  C16 UNL     1      19.334   0.501  51.327  1.00  0.00     0.086 A 
HETATM   15  O1  UNL     1      20.315   1.288  50.739  1.00  0.00    -0.289 OA
HETATM   16  H6  UNL     1      22.551  -0.381  53.743  1.00  0.00     0.160 HD
ENDROOT
BRANCH   1  17
HETATM   17  N1  UNL     1      24.385   0.768  53.409  1.00  0.00    -0.339 N 
HETATM   18  H4  UNL     1      23.838   0.808  54.316  1.00  0.00     0.167 HD
BRANCH  17  19
HETATM   19  C5  UNL     1      25.721   0.294  53.342  1.00  0.00     0.035 A 
HETATM   20  C4  UNL     1      25.965  -0.969  52.855  1.00  0.00     0.029 A 
HETATM   21  C3  UNL     1      27.278  -1.373  52.820  1.00  0.00     0.004 A 
HETATM   22  C2  UNL     1      28.280  -0.526  53.261  1.00  0.00     0.019 A 
HETATM   23  C1  UNL     1      28.046   0.749  53.753  1.00  0.00     0.013 A 
HETATM   24 BR1  UNL     1      29.443   1.897  54.355  1.00  0.00    -0.051 Br
HETATM   25  C17 UNL     1      26.728   1.134  53.780  1.00  0.00     0.048 A 
ENDBRANCH  17  19
ENDBRANCH   1  17
TORSDOF 2
ENDMDL
MODEL 9
REMARK VINA RESULT:      -7.8      3.363      6.617
REMARK  2 active torsions:
REMARK  status: ('A' for Active; 'I' for Inactive)
REMARK    1  A    between atoms: C5_6  and  N1_7 
REMARK    2  A    between atoms: N1_7  and  C6_8 
ROOT
HETATM    1  C6  UNL     1      25.257   2.397  51.552  1.00  0.00     0.160 A 
HETATM    2  N2  UNL     1      25.166   3.666  51.106  1.00  0.00    -0.222 NA
HETATM    3  C7  UNL     1      23.991   4.325  51.195  1.00  0.00     0.238 A 
HETATM    4  N3  UNL     1      22.926   3.684  51.733  1.00  0.00    -0.215 NA
HETATM    5  C8  UNL     1      23.033   2.410  52.176  1.00  0.00     0.202 A 
HETATM    6  C9  UNL     1      24.209   1.703  52.109  1.00  0.00     0.129 A 
HETATM    7  N4  UNL     1      24.539   0.399  52.514  1.00  0.00    -0.379 N 
HETATM    8  C10 UNL     1      23.859  -0.465  53.471  1.00  0.00     0.161 C 
HETATM    9  C11 UNL     1      22.396  -0.284  53.486  1.00  0.00    -0.007 A 
HETATM   10  C12 UNL     1      21.866  -1.496  53.956  1.00  0.00     0.011 A 
HETATM   11  C13 UNL     1      20.492  -1.672  54.076  1.00  0.00     0.001 A 
HETATM   12  C14 UNL     1      19.664  -0.613  53.714  1.00  0.00     0.003 A 
HETATM   13  C15 UNL     1      20.138   0.594  53.249  1.00  0.00     0.038 A 
HETATM   14  C16 UNL     1      21.496   0.692  53.159  1.00  0.00     0.086 A 
HETATM   15  O1  UNL     1      21.826   1.951  52.680  1.00  0.00    -0.289 OA
HETATM   16  H6  UNL     1      25.407   0.062  52.034  1.00  0.00     0.160 HD
ENDROOT
BRANCH   1  17
HETATM   17  N1  UNL     1      26.544   1.815  51.379  1.00  0.00    -0.339 N 
HETATM   18  H4  UNL     1      26.719   1.627  50.351  1.00  0.00     0.167 HD
BRANCH  17  19
HETATM   19  C5  UNL     1      27.494   1.501  52.386  1.00  0.00     0.035 A 
HETATM   20  C4  UNL     1      27.933   2.492  53.232  1.00  0.00     0.029 A 
HETATM   21  C3  UNL     1      28.856   2.128  54.183  1.00  0.00     0.004 A 
HETATM   22  C2  UNL     1      29.301   0.819  54.257  1.00  0.00     0.019 A 
HETATM   23  C1  UNL     1      28.864  -0.189  53.410  1.00  0.00     0.013 A 
HETATM   24 BR1  UNL     1      29.492  -1.984  53.532  1.00  0.00    -0.051 Br
HETATM   25  C17 UNL     1      27.943   0.196  52.468  1.00  0.00     0.048 A 
ENDBRANCH  17  19
ENDBRANCH   1  17
TORSDOF 2
ENDMDL
