MODEL 1
REMARK VINA RESULT:      -7.7      0.000      0.000
REMARK  5 active torsions:
REMARK  status: ('A' for Active; 'I' for Inactive)
REMARK    1  A    between atoms: C2_2  and  C3_3 
REMARK    2  A    between atoms: C8_8  and  C9_9 
REMARK    3  A    between atoms: C9_9  and  S1_10 
REMARK    4  A    between atoms: S1_10  and  C10_11 
REMARK    5  A    between atoms: C10_11  and  C11_12 
ROOT
HETATM    1  S1  UNL     1      24.954   2.102  53.013  1.00  0.00    -0.157 SA
ENDROOT
BRANCH   1   2
HETATM    2  C9  UNL     1      23.810   1.046  52.132  1.00  0.00     0.113 C 
BRANCH   2   3
HETATM    3  C8  UNL     1      23.011   0.155  53.009  1.00  0.00    -0.043 A 
HETATM    4  C3  UNL     1      21.686  -0.101  52.636  1.00  0.00    -0.051 A 
HETATM    5  C4  UNL     1      20.893  -0.919  53.400  1.00  0.00     0.007 A 
HETATM    6  C5  UNL     1      21.347  -1.526  54.561  1.00  0.00     0.001 A 
HETATM    7  C6  UNL     1      22.647  -1.280  54.932  1.00  0.00     0.001 A 
HETATM    8  C7  UNL     1      23.430  -0.461  54.160  1.00  0.00     0.008 A 
BRANCH   4   9
HETATM    9  C2  UNL     1      21.151   0.526  51.406  1.00  0.00     0.034 C 
HETATM   10  C1  UNL     1      19.662   0.427  51.290  1.00  0.00     0.010 C 
ENDBRANCH   4   9
ENDBRANCH   2   3
ENDBRANCH   1   2
BRANCH   1  11
HETATM   11  C10 UNL     1      26.492   2.384  52.130  1.00  0.00     0.156 C 
BRANCH  11  12
HETATM   12  C11 UNL     1      27.608   1.962  53.031  1.00  0.00     0.161 A 
HETATM   13  N1  UNL     1      28.336   2.753  53.840  1.00  0.00    -0.132 NA
HETATM   14  N2  UNL     1      29.233   2.028  54.482  1.00  0.00    -0.133 NA
HETATM   15  C12 UNL     1      29.118   0.739  54.112  1.00  0.00     0.157 A 
HETATM   16  N3  UNL     1      28.115   0.711  53.219  1.00  0.00    -0.201 N 
HETATM   17  C15 UNL     1      29.614  -0.654  54.260  1.00  0.00     0.138 A 
HETATM   18  N4  UNL     1      27.882  -0.598  52.741  1.00  0.00    -0.174 NA
HETATM   19  C13 UNL     1      28.733  -1.405  53.325  1.00  0.00     0.036 A 
HETATM   20  C14 UNL     1      28.801  -2.870  53.081  1.00  0.00     0.068 C 
ENDBRANCH  11  12
ENDBRANCH   1  11
TORSDOF 5
ENDMDL
MODEL 2
REMARK VINA RESULT:      -7.6      0.933      2.158
REMARK  5 active torsions:
REMARK  status: ('A' for Active; 'I' for Inactive)
REMARK    1  A    between atoms: C2_2  and  C3_3 
REMARK    2  A    between atoms: C8_8  and  C9_9 
REMARK    3  A    between atoms: C9_9  and  S1_10 
REMARK    4  A    between atoms: S1_10  and  C10_11 
REMARK    5  A    between atoms: C10_11  and  C11_12 
ROOT
HETATM    1  S1  UNL     1      24.997   2.545  52.570  1.00  0.00    -0.157 SA
ENDROOT
BRANCH   1   2
HETATM    2  C9  UNL     1      23.933   1.293  51.862  1.00  0.00     0.113 C 
BRANCH   2   3
HETATM    3  C8  UNL     1      22.893   0.786  52.790  1.00  0.00    -0.043 A 
HETATM    4  C3  UNL     1      23.260  -0.227  53.683  1.00  0.00    -0.051 A 
HETATM    5  C4  UNL     1      22.347  -0.738  54.570  1.00  0.00     0.007 A 
HETATM    6  C5  UNL     1      21.036  -0.291  54.632  1.00  0.00     0.001 A 
HETATM    7  C6  UNL     1      20.669   0.703  53.758  1.00  0.00     0.001 A 
HETATM    8  C7  UNL     1      21.590   1.207  52.876  1.00  0.00     0.008 A 
BRANCH   4   9
HETATM    9  C2  UNL     1      24.648  -0.740  53.656  1.00  0.00     0.034 C 
HETATM   10  C1  UNL     1      25.273  -0.832  55.014  1.00  0.00     0.010 C 
ENDBRANCH   4   9
ENDBRANCH   2   3
ENDBRANCH   1   2
BRANCH   1  11
HETATM   11  C10 UNL     1      26.647   2.565  51.863  1.00  0.00     0.156 C 
BRANCH  11  12
HETATM   12  C11 UNL     1      27.592   2.095  52.922  1.00  0.00     0.161 A 
HETATM   13  N1  UNL     1      28.187   2.849  53.865  1.00  0.00    -0.132 NA
HETATM   14  N2  UNL     1      28.955   2.088  54.623  1.00  0.00    -0.133 NA
HETATM   15  C12 UNL     1      28.885   0.813  54.198  1.00  0.00     0.157 A 
HETATM   16  N3  UNL     1      28.044   0.830  53.151  1.00  0.00    -0.201 N 
HETATM   17  C15 UNL     1      29.331  -0.593  54.381  1.00  0.00     0.138 A 
HETATM   18  N4  UNL     1      27.876  -0.460  52.598  1.00  0.00    -0.174 NA
HETATM   19  C13 UNL     1      28.607  -1.299  53.289  1.00  0.00     0.036 A 
HETATM   20  C14 UNL     1      28.695  -2.758  53.012  1.00  0.00     0.068 C 
ENDBRANCH  11  12
ENDBRANCH   1  11
TORSDOF 5
ENDMDL
MODEL 3
REMARK VINA RESULT:      -7.6      3.216      5.596
REMARK  5 active torsions:
REMARK  status: ('A' for Active; 'I' for Inactive)
REMARK    1  A    between atoms: C2_2  and  C3_3 
REMARK    2  A    between atoms: C8_8  and  C9_9 
REMARK    3  A    between atoms: C9_9  and  S1_10 
REMARK    4  A    between atoms: S1_10  and  C10_11 
REMARK    5  A    between atoms: C10_11  and  C11_12 
ROOT
HETATM    1  S1  UNL     1      25.549   2.196  51.532  1.00  0.00    -0.157 SA
ENDROOT
BRANCH   1   2
HETATM    2  C9  UNL     1      24.841   3.729  50.945  1.00  0.00     0.113 C 
BRANCH   2   3
HETATM    3  C8  UNL     1      25.750   4.527  50.085  1.00  0.00    -0.043 A 
HETATM    4  C3  UNL     1      25.523   5.906  50.007  1.00  0.00    -0.051 A 
HETATM    5  C4  UNL     1      26.329   6.702  49.232  1.00  0.00     0.007 A 
HETATM    6  C5  UNL     1      27.393   6.198  48.499  1.00  0.00     0.001 A 
HETATM    7  C6  UNL     1      27.622   4.845  48.574  1.00  0.00     0.001 A 
HETATM    8  C7  UNL     1      26.810   4.060  49.350  1.00  0.00     0.008 A 
BRANCH   4   9
HETATM    9  C2  UNL     1      24.398   6.494  50.768  1.00  0.00     0.034 C 
HETATM   10  C1  UNL     1      24.000   7.853  50.283  1.00  0.00     0.010 C 
ENDBRANCH   4   9
ENDBRANCH   2   3
ENDBRANCH   1   2
BRANCH   1  11
HETATM   11  C10 UNL     1      25.661   2.098  53.322  1.00  0.00     0.156 C 
BRANCH  11  12
HETATM   12  C11 UNL     1      27.092   1.837  53.666  1.00  0.00     0.161 A 
HETATM   13  N1  UNL     1      27.983   2.727  54.139  1.00  0.00    -0.132 NA
HETATM   14  N2  UNL     1      29.148   2.135  54.324  1.00  0.00    -0.133 NA
HETATM   15  C12 UNL     1      29.053   0.837  53.978  1.00  0.00     0.157 A 
HETATM   16  N3  UNL     1      27.783   0.666  53.574  1.00  0.00    -0.201 N 
HETATM   17  C15 UNL     1      29.737  -0.476  53.848  1.00  0.00     0.138 A 
HETATM   18  N4  UNL     1      27.540  -0.667  53.177  1.00  0.00    -0.174 NA
HETATM   19  C13 UNL     1      28.650  -1.348  53.325  1.00  0.00     0.036 A 
HETATM   20  C14 UNL     1      28.794  -2.794  53.010  1.00  0.00     0.068 C 
ENDBRANCH  11  12
ENDBRANCH   1  11
TORSDOF 5
ENDMDL
MODEL 4
REMARK VINA RESULT:      -7.1      3.341      6.288
REMARK  5 active torsions:
REMARK  status: ('A' for Active; 'I' for Inactive)
REMARK    1  A    between atoms: C2_2  and  C3_3 
REMARK    2  A    between atoms: C8_8  and  C9_9 
REMARK    3  A    between atoms: C9_9  and  S1_10 
REMARK    4  A    between atoms: S1_10  and  C10_11 
REMARK    5  A    between atoms: C10_11  and  C11_12 
ROOT
HETATM    1  S1  UNL     1      25.291   2.402  52.202  1.00  0.00    -0.157 SA
ENDROOT
BRANCH   1   2
HETATM    2  C9  UNL     1      24.617   2.974  50.647  1.00  0.00     0.113 C 
BRANCH   2   3
HETATM    3  C8  UNL     1      25.495   3.923  49.919  1.00  0.00    -0.043 A 
HETATM    4  C3  UNL     1      24.998   5.209  49.676  1.00  0.00    -0.051 A 
HETATM    5  C4  UNL     1      25.759   6.136  49.010  1.00  0.00     0.007 A 
HETATM    6  C5  UNL     1      27.038   5.859  48.550  1.00  0.00     0.001 A 
HETATM    7  C6  UNL     1      27.532   4.599  48.786  1.00  0.00     0.001 A 
HETATM    8  C7  UNL     1      26.761   3.681  49.452  1.00  0.00     0.008 A 
BRANCH   4   9
HETATM    9  C2  UNL     1      23.637   5.554  50.145  1.00  0.00     0.034 C 
HETATM   10  C1  UNL     1      23.588   6.822  50.940  1.00  0.00     0.010 C 
ENDBRANCH   4   9
ENDBRANCH   2   3
ENDBRANCH   1   2
BRANCH   1  11
HETATM   11  C10 UNL     1      25.968   0.740  52.120  1.00  0.00     0.156 C 
BRANCH  11  12
HETATM   12  C11 UNL     1      25.660   0.068  53.419  1.00  0.00     0.161 A 
HETATM   13  N1  UNL     1      26.523  -0.195  54.417  1.00  0.00    -0.132 NA
HETATM   14  N2  UNL     1      25.891  -0.800  55.405  1.00  0.00    -0.133 NA
HETATM   15  C12 UNL     1      24.592  -0.950  55.083  1.00  0.00     0.157 A 
HETATM   16  N3  UNL     1      24.462  -0.412  53.859  1.00  0.00    -0.201 N 
HETATM   17  C15 UNL     1      23.252  -1.449  55.489  1.00  0.00     0.138 A 
HETATM   18  N4  UNL     1      23.132  -0.502  53.391  1.00  0.00    -0.174 NA
HETATM   19  C13 UNL     1      22.414  -1.096  54.311  1.00  0.00     0.036 A 
HETATM   20  C14 UNL     1      20.958  -1.374  54.187  1.00  0.00     0.068 C 
ENDBRANCH  11  12
ENDBRANCH   1  11
TORSDOF 5
ENDMDL
MODEL 5
REMARK VINA RESULT:      -7.1      1.684      2.473
REMARK  5 active torsions:
REMARK  status: ('A' for Active; 'I' for Inactive)
REMARK    1  A    between atoms: C2_2  and  C3_3 
REMARK    2  A    between atoms: C8_8  and  C9_9 
REMARK    3  A    between atoms: C9_9  and  S1_10 
REMARK    4  A    between atoms: S1_10  and  C10_11 
REMARK    5  A    between atoms: C10_11  and  C11_12 
ROOT
HETATM    1  S1  UNL     1      25.429   1.948  51.840  1.00  0.00    -0.157 SA
ENDROOT
BRANCH   1   2
HETATM    2  C9  UNL     1      23.948   2.817  51.341  1.00  0.00     0.113 C 
BRANCH   2   3
HETATM    3  C8  UNL     1      22.745   1.955  51.236  1.00  0.00    -0.043 A 
HETATM    4  C3  UNL     1      22.095   1.898  49.998  1.00  0.00    -0.051 A 
HETATM    5  C4  UNL     1      20.979   1.117  49.833  1.00  0.00     0.007 A 
HETATM    6  C5  UNL     1      20.441   0.356  50.860  1.00  0.00     0.001 A 
HETATM    7  C6  UNL     1      21.075   0.407  52.077  1.00  0.00     0.001 A 
HETATM    8  C7  UNL     1      22.190   1.191  52.231  1.00  0.00     0.008 A 
BRANCH   4   9
HETATM    9  C2  UNL     1      22.627   2.694  48.869  1.00  0.00     0.034 C 
HETATM   10  C1  UNL     1      22.399   2.056  47.534  1.00  0.00     0.010 C 
ENDBRANCH   4   9
ENDBRANCH   2   3
ENDBRANCH   1   2
BRANCH   1  11
HETATM   11  C10 UNL     1      25.708   1.969  53.614  1.00  0.00     0.156 C 
BRANCH  11  12
HETATM   12  C11 UNL     1      27.174   1.781  53.837  1.00  0.00     0.161 A 
HETATM   13  N1  UNL     1      28.063   2.723  54.198  1.00  0.00    -0.132 NA
HETATM   14  N2  UNL     1      29.265   2.186  54.298  1.00  0.00    -0.133 NA
HETATM   15  C12 UNL     1      29.198   0.874  54.005  1.00  0.00     0.157 A 
HETATM   16  N3  UNL     1      27.906   0.636  53.723  1.00  0.00    -0.201 N 
HETATM   17  C15 UNL     1      29.924  -0.414  53.858  1.00  0.00     0.138 A 
HETATM   18  N4  UNL     1      27.688  -0.720  53.394  1.00  0.00    -0.174 NA
HETATM   19  C13 UNL     1      28.835  -1.348  53.464  1.00  0.00     0.036 A 
HETATM   20  C14 UNL     1      29.015  -2.798  53.186  1.00  0.00     0.068 C 
ENDBRANCH  11  12
ENDBRANCH   1  11
TORSDOF 5
ENDMDL
MODEL 6
REMARK VINA RESULT:      -7.1      1.408      2.803
REMARK  5 active torsions:
REMARK  status: ('A' for Active; 'I' for Inactive)
REMARK    1  A    between atoms: C2_2  and  C3_3 
REMARK    2  A    between atoms: C8_8  and  C9_9 
REMARK    3  A    between atoms: C9_9  and  S1_10 
REMARK    4  A    between atoms: S1_10  and  C10_11 
REMARK    5  A    between atoms: C10_11  and  C11_12 
ROOT
HETATM    1  S1  UNL     1      23.648   0.815  52.181  1.00  0.00    -0.157 SA
ENDROOT
BRANCH   1   2
HETATM    2  C9  UNL     1      22.181   1.670  52.741  1.00  0.00     0.113 C 
BRANCH   2   3
HETATM    3  C8  UNL     1      20.910   1.047  52.297  1.00  0.00    -0.043 A 
HETATM    4  C3  UNL     1      20.273   0.171  53.185  1.00  0.00    -0.051 A 
HETATM    5  C4  UNL     1      19.093  -0.436  52.838  1.00  0.00     0.007 A 
HETATM    6  C5  UNL     1      18.476  -0.223  51.614  1.00  0.00     0.001 A 
HETATM    7  C6  UNL     1      19.095   0.636  50.739  1.00  0.00     0.001 A 
HETATM    8  C7  UNL     1      20.274   1.237  51.097  1.00  0.00     0.008 A 
BRANCH   4   9
HETATM    9  C2  UNL     1      20.893  -0.092  54.503  1.00  0.00     0.034 C 
HETATM   10  C1  UNL     1      21.401  -1.493  54.649  1.00  0.00     0.010 C 
ENDBRANCH   4   9
ENDBRANCH   2   3
ENDBRANCH   1   2
BRANCH   1  11
HETATM   11  C10 UNL     1      24.542  -0.013  53.501  1.00  0.00     0.156 C 
BRANCH  11  12
HETATM   12  C11 UNL     1      25.836   0.713  53.687  1.00  0.00     0.161 A 
HETATM   13  N1  UNL     1      25.999   2.031  53.897  1.00  0.00    -0.132 NA
HETATM   14  N2  UNL     1      27.285   2.308  54.012  1.00  0.00    -0.133 NA
HETATM   15  C12 UNL     1      28.002   1.176  53.881  1.00  0.00     0.157 A 
HETATM   16  N3  UNL     1      27.100   0.201  53.681  1.00  0.00    -0.201 N 
HETATM   17  C15 UNL     1      29.346   0.542  53.860  1.00  0.00     0.138 A 
HETATM   18  N4  UNL     1      27.721  -1.058  53.524  1.00  0.00    -0.174 NA
HETATM   19  C13 UNL     1      29.017  -0.890  53.624  1.00  0.00     0.036 A 
HETATM   20  C14 UNL     1      30.014  -1.987  53.513  1.00  0.00     0.068 C 
ENDBRANCH  11  12
ENDBRANCH   1  11
TORSDOF 5
ENDMDL
MODEL 7
REMARK VINA RESULT:      -7.0      1.643      2.993
REMARK  5 active torsions:
REMARK  status: ('A' for Active; 'I' for Inactive)
REMARK    1  A    between atoms: C2_2  and  C3_3 
REMARK    2  A    between atoms: C8_8  and  C9_9 
REMARK    3  A    between atoms: C9_9  and  S1_10 
REMARK    4  A    between atoms: S1_10  and  C10_11 
REMARK    5  A    between atoms: C10_11  and  C11_12 
ROOT
HETATM    1  S1  UNL     1      24.613   2.818  52.664  1.00  0.00    -0.157 SA
ENDROOT
BRANCH   1   2
HETATM    2  C9  UNL     1      22.851   2.814  52.355  1.00  0.00     0.113 C 
BRANCH   2   3
HETATM    3  C8  UNL     1      22.471   2.282  51.023  1.00  0.00    -0.043 A 
HETATM    4  C3  UNL     1      21.652   1.147  50.989  1.00  0.00    -0.051 A 
HETATM    5  C4  UNL     1      21.261   0.606  49.791  1.00  0.00     0.007 A 
HETATM    6  C5  UNL     1      21.646   1.139  48.570  1.00  0.00     0.001 A 
HETATM    7  C6  UNL     1      22.449   2.253  48.596  1.00  0.00     0.001 A 
HETATM    8  C7  UNL     1      22.833   2.785  49.800  1.00  0.00     0.008 A 
BRANCH   4   9
HETATM    9  C2  UNL     1      21.215   0.538  52.266  1.00  0.00     0.034 C 
HETATM   10  C1  UNL     1      22.091  -0.591  52.713  1.00  0.00     0.010 C 
ENDBRANCH   4   9
ENDBRANCH   2   3
ENDBRANCH   1   2
BRANCH   1  11
HETATM   11  C10 UNL     1      25.194   1.345  53.510  1.00  0.00     0.156 C 
BRANCH  11  12
HETATM   12  C11 UNL     1      26.668   1.498  53.711  1.00  0.00     0.161 A 
HETATM   13  N1  UNL     1      27.331   2.634  53.992  1.00  0.00    -0.132 NA
HETATM   14  N2  UNL     1      28.622   2.382  54.097  1.00  0.00    -0.133 NA
HETATM   15  C12 UNL     1      28.843   1.070  53.889  1.00  0.00     0.157 A 
HETATM   16  N3  UNL     1      27.633   0.537  53.652  1.00  0.00    -0.201 N 
HETATM   17  C15 UNL     1      29.834  -0.033  53.807  1.00  0.00     0.138 A 
HETATM   18  N4  UNL     1      27.716  -0.853  53.414  1.00  0.00    -0.174 NA
HETATM   19  C13 UNL     1      28.975  -1.208  53.497  1.00  0.00     0.036 A 
HETATM   20  C14 UNL     1      29.467  -2.599  53.307  1.00  0.00     0.068 C 
ENDBRANCH  11  12
ENDBRANCH   1  11
TORSDOF 5
ENDMDL
MODEL 8
REMARK VINA RESULT:      -7.0      2.908      5.669
REMARK  5 active torsions:
REMARK  status: ('A' for Active; 'I' for Inactive)
REMARK    1  A    between atoms: C2_2  and  C3_3 
REMARK    2  A    between atoms: C8_8  and  C9_9 
REMARK    3  A    between atoms: C9_9  and  S1_10 
REMARK    4  A    between atoms: S1_10  and  C10_11 
REMARK    5  A    between atoms: C10_11  and  C11_12 
ROOT
HETATM    1  S1  UNL     1      26.767   1.913  52.769  1.00  0.00    -0.157 SA
ENDROOT
BRANCH   1   2
HETATM    2  C9  UNL     1      26.775   2.760  51.194  1.00  0.00     0.113 C 
BRANCH   2   3
HETATM    3  C8  UNL     1      25.426   2.984  50.619  1.00  0.00    -0.043 A 
HETATM    4  C3  UNL     1      25.318   3.879  49.549  1.00  0.00    -0.051 A 
HETATM    5  C4  UNL     1      24.100   4.129  48.970  1.00  0.00     0.007 A 
HETATM    6  C5  UNL     1      22.930   3.522  49.401  1.00  0.00     0.001 A 
HETATM    7  C6  UNL     1      23.029   2.642  50.451  1.00  0.00     0.001 A 
HETATM    8  C7  UNL     1      24.252   2.400  51.022  1.00  0.00     0.008 A 
BRANCH   4   9
HETATM    9  C2  UNL     1      26.538   4.555  49.052  1.00  0.00     0.034 C 
HETATM   10  C1  UNL     1      26.405   6.045  48.986  1.00  0.00     0.010 C 
ENDBRANCH   4   9
ENDBRANCH   2   3
ENDBRANCH   1   2
BRANCH   1  11
HETATM   11  C10 UNL     1      26.581   0.132  52.623  1.00  0.00     0.156 C 
BRANCH  11  12
HETATM   12  C11 UNL     1      25.891  -0.347  53.860  1.00  0.00     0.161 A 
HETATM   13  N1  UNL     1      26.459  -0.609  55.051  1.00  0.00    -0.132 NA
HETATM   14  N2  UNL     1      25.538  -1.014  55.905  1.00  0.00    -0.133 NA
HETATM   15  C12 UNL     1      24.336  -1.028  55.297  1.00  0.00     0.157 A 
HETATM   16  N3  UNL     1      24.567  -0.615  54.039  1.00  0.00    -0.201 N 
HETATM   17  C15 UNL     1      22.880  -1.299  55.411  1.00  0.00     0.138 A 
HETATM   18  N4  UNL     1      23.377  -0.582  53.278  1.00  0.00    -0.174 NA
HETATM   19  C13 UNL     1      22.389  -0.972  54.045  1.00  0.00     0.036 A 
HETATM   20  C14 UNL     1      20.973  -1.070  53.601  1.00  0.00     0.068 C 
ENDBRANCH  11  12
ENDBRANCH   1  11
TORSDOF 5
ENDMDL
MODEL 9
REMARK VINA RESULT:      -6.8      3.316      6.646
REMARK  5 active torsions:
REMARK  status: ('A' for Active; 'I' for Inactive)
REMARK    1  A    between atoms: C2_2  and  C3_3 
REMARK    2  A    between atoms: C8_8  and  C9_9 
REMARK    3  A    between atoms: C9_9  and  S1_10 
REMARK    4  A    between atoms: S1_10  and  C10_11 
REMARK    5  A    between atoms: C10_11  and  C11_12 
ROOT
HETATM    1  S1  UNL     1      25.169   2.864  51.255  1.00  0.00    -0.157 SA
ENDROOT
BRANCH   1   2
HETATM    2  C9  UNL     1      25.681   1.227  51.762  1.00  0.00     0.113 C 
BRANCH   2   3
HETATM    3  C8  UNL     1      26.920   1.205  52.577  1.00  0.00    -0.043 A 
HETATM    4  C3  UNL     1      27.396  -0.043  52.999  1.00  0.00    -0.051 A 
HETATM    5  C4  UNL     1      28.538  -0.133  53.753  1.00  0.00     0.007 A 
HETATM    6  C5  UNL     1      29.273   0.980  54.132  1.00  0.00     0.001 A 
HETATM    7  C6  UNL     1      28.812   2.207  53.720  1.00  0.00     0.001 A 
HETATM    8  C7  UNL     1      27.669   2.285  52.967  1.00  0.00     0.008 A 
BRANCH   4   9
HETATM    9  C2  UNL     1      26.646  -1.262  52.623  1.00  0.00     0.034 C 
HETATM   10  C1  UNL     1      27.491  -2.498  52.617  1.00  0.00     0.010 C 
ENDBRANCH   4   9
ENDBRANCH   2   3
ENDBRANCH   1   2
BRANCH   1  11
HETATM   11  C10 UNL     1      23.857   3.550  52.273  1.00  0.00     0.156 C 
BRANCH  11  12
HETATM   12  C11 UNL     1      22.597   2.825  51.926  1.00  0.00     0.161 A 
HETATM   13  N1  UNL     1      21.706   3.164  50.977  1.00  0.00    -0.132 NA
HETATM   14  N2  UNL     1      20.718   2.288  50.961  1.00  0.00    -0.133 NA
HETATM   15  C12 UNL     1      20.934   1.348  51.900  1.00  0.00     0.157 A 
HETATM   16  N3  UNL     1      22.094   1.689  52.487  1.00  0.00    -0.201 N 
HETATM   17  C15 UNL     1      20.452   0.110  52.564  1.00  0.00     0.138 A 
HETATM   18  N4  UNL     1      22.447   0.777  53.506  1.00  0.00    -0.174 NA
HETATM   19  C13 UNL     1      21.518  -0.144  53.572  1.00  0.00     0.036 A 
HETATM   20  C14 UNL     1      21.535  -1.284  54.527  1.00  0.00     0.068 C 
ENDBRANCH  11  12
ENDBRANCH   1  11
TORSDOF 5
ENDMDL
