MODEL 1
REMARK VINA RESULT:      -9.6      0.000      0.000
REMARK  2 active torsions:
REMARK  status: ('A' for Active; 'I' for Inactive)
REMARK    1  A    between atoms: O1_2  and  C2_3 
REMARK    2  A    between atoms: C6_7  and  C7_8 
ROOT
HETATM    1  C7  UNL     1      24.723   2.820  50.590  1.00  0.00    -0.024 A 
HETATM    2  C8  UNL     1      26.093   2.698  50.416  1.00  0.00     0.013 A 
HETATM    3  C9  UNL     1      26.753   3.715  49.758  1.00  0.00     0.015 A 
HETATM    4  C10 UNL     1      26.130   4.842  49.266  1.00  0.00     0.007 A 
HETATM    5  C11 UNL     1      24.765   4.954  49.445  1.00  0.00     0.047 A 
HETATM    6  C12 UNL     1      24.064   3.943  50.107  1.00  0.00     0.042 A 
HETATM    7  N1  UNL     1      24.331   6.179  48.867  1.00  0.00    -0.322 N 
HETATM    8  C13 UNL     1      25.467   6.823  48.325  1.00  0.00     0.257 A 
HETATM    9  O2  UNL     1      25.353   7.923  47.759  1.00  0.00    -0.267 OA
HETATM   10  C14 UNL     1      26.647   6.003  48.556  1.00  0.00     0.048 A 
HETATM   11  C15 UNL     1      27.879   6.293  48.185  1.00  0.00    -0.044 C 
HETATM   12  C16 UNL     1      29.143   5.534  48.368  1.00  0.00     0.062 C 
HETATM   13  C17 UNL     1      30.152   6.447  47.688  1.00  0.00     0.088 A 
HETATM   14  C18 UNL     1      31.558   6.191  48.068  1.00  0.00     0.029 A 
HETATM   15  C19 UNL     1      32.306   7.292  48.722  1.00  0.00     0.030 A 
HETATM   16  C20 UNL     1      31.581   8.548  48.917  1.00  0.00    -0.010 A 
HETATM   17  C21 UNL     1      30.335   8.811  48.588  1.00  0.00     0.082 A 
HETATM   18  N2  UNL     1      29.652   7.744  47.985  1.00  0.00    -0.381 N 
HETATM   19  C22 UNL     1      28.300   7.519  47.460  1.00  0.00     0.158 C 
HETATM   20  H10 UNL     1      23.319   6.501  48.873  1.00  0.00     0.169 HD
ENDROOT
BRANCH   1  21
HETATM   21  C6  UNL     1      23.881   1.836  51.261  1.00  0.00    -0.023 A 
HETATM   22  C5  UNL     1      22.569   1.525  50.895  1.00  0.00     0.012 A 
HETATM   23  C4  UNL     1      21.856   0.575  51.597  1.00  0.00     0.004 A 
HETATM   24  C3  UNL     1      22.448  -0.075  52.673  1.00  0.00     0.037 A 
HETATM   25  C2  UNL     1      23.760   0.226  53.052  1.00  0.00     0.069 A 
HETATM   26  C23 UNL     1      24.434   1.182  52.319  1.00  0.00     0.049 A 
BRANCH  25  27
HETATM   27  O1  UNL     1      24.219  -0.496  54.137  1.00  0.00    -0.356 OA
HETATM   28  C1  UNL     1      25.576  -0.467  54.499  1.00  0.00     0.210 C 
ENDBRANCH  25  27
ENDBRANCH   1  21
TORSDOF 2
ENDMDL
MODEL 2
REMARK VINA RESULT:      -9.5      1.206      1.834
REMARK  2 active torsions:
REMARK  status: ('A' for Active; 'I' for Inactive)
REMARK    1  A    between atoms: O1_2  and  C2_3 
REMARK    2  A    between atoms: C6_7  and  C7_8 
ROOT
HETATM    1  C7  UNL     1      24.729   2.312  51.187  1.00  0.00    -0.024 A 
HETATM    2  C8  UNL     1      26.067   2.264  50.833  1.00  0.00     0.013 A 
HETATM    3  C9  UNL     1      26.586   3.328  50.124  1.00  0.00     0.015 A 
HETATM    4  C10 UNL     1      25.850   4.432  49.750  1.00  0.00     0.007 A 
HETATM    5  C11 UNL     1      24.517   4.470  50.109  1.00  0.00     0.047 A 
HETATM    6  C12 UNL     1      23.959   3.410  50.827  1.00  0.00     0.042 A 
HETATM    7  N1  UNL     1      23.953   5.684  49.629  1.00  0.00    -0.322 N 
HETATM    8  C13 UNL     1      24.975   6.397  48.962  1.00  0.00     0.257 A 
HETATM    9  O2  UNL     1      24.735   7.502  48.447  1.00  0.00    -0.267 OA
HETATM   10  C14 UNL     1      26.214   5.633  49.013  1.00  0.00     0.048 A 
HETATM   11  C15 UNL     1      27.371   5.994  48.492  1.00  0.00    -0.044 C 
HETATM   12  C16 UNL     1      28.682   5.297  48.486  1.00  0.00     0.062 C 
HETATM   13  C17 UNL     1      29.548   6.275  47.707  1.00  0.00     0.088 A 
HETATM   14  C18 UNL     1      31.002   6.083  47.892  1.00  0.00     0.029 A 
HETATM   15  C19 UNL     1      31.777   7.206  48.476  1.00  0.00     0.030 A 
HETATM   16  C20 UNL     1      31.025   8.419  48.799  1.00  0.00    -0.010 A 
HETATM   17  C21 UNL     1      29.735   8.625  48.643  1.00  0.00     0.082 A 
HETATM   18  N2  UNL     1      29.030   7.538  48.104  1.00  0.00    -0.381 N 
HETATM   19  C22 UNL     1      27.633   7.256  47.754  1.00  0.00     0.158 C 
HETATM   20  H10 UNL     1      22.937   5.954  49.776  1.00  0.00     0.169 HD
ENDROOT
BRANCH   1  21
HETATM   21  C6  UNL     1      24.030   1.271  51.934  1.00  0.00    -0.023 A 
HETATM   22  C5  UNL     1      24.627   0.426  52.873  1.00  0.00     0.012 A 
HETATM   23  C4  UNL     1      23.875  -0.529  53.528  1.00  0.00     0.004 A 
HETATM   24  C3  UNL     1      22.519  -0.648  53.250  1.00  0.00     0.037 A 
HETATM   25  C2  UNL     1      21.908   0.190  52.311  1.00  0.00     0.069 A 
HETATM   26  C23 UNL     1      22.701   1.130  51.683  1.00  0.00     0.049 A 
BRANCH  25  27
HETATM   27  O1  UNL     1      20.557  -0.041  52.136  1.00  0.00    -0.356 OA
HETATM   28  C1  UNL     1      19.736  -0.369  53.227  1.00  0.00     0.210 C 
ENDBRANCH  25  27
ENDBRANCH   1  21
TORSDOF 2
ENDMDL
MODEL 3
REMARK VINA RESULT:      -9.5      4.810      6.960
REMARK  2 active torsions:
REMARK  status: ('A' for Active; 'I' for Inactive)
REMARK    1  A    between atoms: O1_2  and  C2_3 
REMARK    2  A    between atoms: C6_7  and  C7_8 
ROOT
HETATM    1  C7  UNL     1      20.373   0.238  52.228  1.00  0.00    -0.024 A 
HETATM    2  C8  UNL     1      21.415  -0.565  52.662  1.00  0.00     0.013 A 
HETATM    3  C9  UNL     1      22.703  -0.103  52.484  1.00  0.00     0.015 A 
HETATM    4  C10 UNL     1      23.010   1.108  51.900  1.00  0.00     0.007 A 
HETATM    5  C11 UNL     1      21.963   1.900  51.472  1.00  0.00     0.047 A 
HETATM    6  C12 UNL     1      20.646   1.464  51.637  1.00  0.00     0.042 A 
HETATM    7  N1  UNL     1      22.498   3.091  50.906  1.00  0.00    -0.322 N 
HETATM    8  C13 UNL     1      23.907   3.013  50.997  1.00  0.00     0.257 A 
HETATM    9  O2  UNL     1      24.614   3.939  50.568  1.00  0.00    -0.267 OA
HETATM   10  C14 UNL     1      24.284   1.756  51.628  1.00  0.00     0.048 A 
HETATM   11  C15 UNL     1      25.515   1.349  51.873  1.00  0.00    -0.044 C 
HETATM   12  C16 UNL     1      26.006   0.098  52.505  1.00  0.00     0.062 C 
HETATM   13  C17 UNL     1      27.514   0.296  52.448  1.00  0.00     0.088 A 
HETATM   14  C18 UNL     1      28.277  -0.567  53.376  1.00  0.00     0.029 A 
HETATM   15  C19 UNL     1      29.101   0.099  54.414  1.00  0.00     0.030 A 
HETATM   16  C20 UNL     1      29.097   1.562  54.412  1.00  0.00    -0.010 A 
HETATM   17  C21 UNL     1      28.436   2.358  53.601  1.00  0.00     0.082 A 
HETATM   18  N2  UNL     1      27.654   1.697  52.640  1.00  0.00    -0.381 N 
HETATM   19  C22 UNL     1      26.756   2.100  51.553  1.00  0.00     0.158 C 
HETATM   20  H10 UNL     1      21.896   3.867  50.503  1.00  0.00     0.169 HD
ENDROOT
BRANCH   1  21
HETATM   21  C6  UNL     1      18.959  -0.104  52.343  1.00  0.00    -0.023 A 
HETATM   22  C5  UNL     1      18.450  -1.142  53.127  1.00  0.00     0.012 A 
HETATM   23  C4  UNL     1      17.092  -1.384  53.168  1.00  0.00     0.004 A 
HETATM   24  C3  UNL     1      16.228  -0.589  52.423  1.00  0.00     0.037 A 
HETATM   25  C2  UNL     1      16.723   0.453  51.633  1.00  0.00     0.069 A 
HETATM   26  C23 UNL     1      18.089   0.657  51.626  1.00  0.00     0.049 A 
BRANCH  25  27
HETATM   27  O1  UNL     1      15.752   1.159  50.949  1.00  0.00    -0.356 OA
HETATM   28  C1  UNL     1      15.919   2.525  50.670  1.00  0.00     0.210 C 
ENDBRANCH  25  27
ENDBRANCH   1  21
TORSDOF 2
ENDMDL
MODEL 4
REMARK VINA RESULT:      -9.3      6.398     10.115
REMARK  2 active torsions:
REMARK  status: ('A' for Active; 'I' for Inactive)
REMARK    1  A    between atoms: O1_2  and  C2_3 
REMARK    2  A    between atoms: C6_7  and  C7_8 
ROOT
HETATM    1  C7  UNL     1      24.035   0.680  52.697  1.00  0.00    -0.024 A 
HETATM    2  C8  UNL     1      23.386   1.320  51.654  1.00  0.00     0.013 A 
HETATM    3  C9  UNL     1      22.037   1.081  51.488  1.00  0.00     0.015 A 
HETATM    4  C10 UNL     1      21.301   0.242  52.299  1.00  0.00     0.007 A 
HETATM    5  C11 UNL     1      21.959  -0.390  53.336  1.00  0.00     0.047 A 
HETATM    6  C12 UNL     1      23.324  -0.170  53.534  1.00  0.00     0.042 A 
HETATM    7  N1  UNL     1      21.023  -1.199  54.040  1.00  0.00    -0.322 N 
HETATM    8  C13 UNL     1      19.767  -1.048  53.408  1.00  0.00     0.257 A 
HETATM    9  O2  UNL     1      18.773  -1.657  53.836  1.00  0.00    -0.267 OA
HETATM   10  C14 UNL     1      19.895  -0.132  52.283  1.00  0.00     0.048 A 
HETATM   11  C15 UNL     1      18.926   0.239  51.469  1.00  0.00    -0.044 C 
HETATM   12  C16 UNL     1      18.948   1.158  50.303  1.00  0.00     0.062 C 
HETATM   13  C17 UNL     1      17.500   1.105  49.840  1.00  0.00     0.088 A 
HETATM   14  C18 UNL     1      17.096   2.230  48.971  1.00  0.00     0.029 A 
HETATM   15  C19 UNL     1      16.003   3.112  49.448  1.00  0.00     0.030 A 
HETATM   16  C20 UNL     1      15.407   2.771  50.741  1.00  0.00    -0.010 A 
HETATM   17  C21 UNL     1      15.737   1.777  51.536  1.00  0.00     0.082 A 
HETATM   18  N2  UNL     1      16.785   0.972  51.062  1.00  0.00    -0.381 N 
HETATM   19  C22 UNL     1      17.511  -0.207  51.546  1.00  0.00     0.158 C 
HETATM   20  H10 UNL     1      21.280  -1.789  54.883  1.00  0.00     0.169 HD
ENDROOT
BRANCH   1  21
HETATM   21  C6  UNL     1      25.453   0.826  53.006  1.00  0.00    -0.023 A 
HETATM   22  C5  UNL     1      26.109   2.047  53.185  1.00  0.00     0.012 A 
HETATM   23  C4  UNL     1      27.458   2.077  53.476  1.00  0.00     0.004 A 
HETATM   24  C3  UNL     1      28.165   0.885  53.592  1.00  0.00     0.037 A 
HETATM   25  C2  UNL     1      27.522  -0.344  53.414  1.00  0.00     0.069 A 
HETATM   26  C23 UNL     1      26.172  -0.323  53.126  1.00  0.00     0.049 A 
BRANCH  25  27
HETATM   27  O1  UNL     1      28.346  -1.443  53.559  1.00  0.00    -0.356 OA
HETATM   28  C1  UNL     1      29.742  -1.298  53.586  1.00  0.00     0.210 C 
ENDBRANCH  25  27
ENDBRANCH   1  21
TORSDOF 2
ENDMDL
MODEL 5
REMARK VINA RESULT:      -9.0      3.590      8.026
REMARK  2 active torsions:
REMARK  status: ('A' for Active; 'I' for Inactive)
REMARK    1  A    between atoms: O1_2  and  C2_3 
REMARK    2  A    between atoms: C6_7  and  C7_8 
ROOT
HETATM    1  C7  UNL     1      24.511   4.834  49.209  1.00  0.00    -0.024 A 
HETATM    2  C8  UNL     1      25.768   4.599  49.743  1.00  0.00     0.013 A 
HETATM    3  C9  UNL     1      25.913   3.534  50.608  1.00  0.00     0.015 A 
HETATM    4  C10 UNL     1      24.882   2.694  50.971  1.00  0.00     0.007 A 
HETATM    5  C11 UNL     1      23.633   2.937  50.433  1.00  0.00     0.047 A 
HETATM    6  C12 UNL     1      23.450   4.007  49.553  1.00  0.00     0.042 A 
HETATM    7  N1  UNL     1      22.726   1.963  50.934  1.00  0.00    -0.322 N 
HETATM    8  C13 UNL     1      23.449   1.109  51.798  1.00  0.00     0.257 A 
HETATM    9  O2  UNL     1      22.878   0.166  52.369  1.00  0.00    -0.267 OA
HETATM   10  C14 UNL     1      24.839   1.539  51.855  1.00  0.00     0.048 A 
HETATM   11  C15 UNL     1      25.799   0.973  52.562  1.00  0.00    -0.044 C 
HETATM   12  C16 UNL     1      27.235   1.328  52.691  1.00  0.00     0.062 C 
HETATM   13  C17 UNL     1      27.728   0.270  53.667  1.00  0.00     0.088 A 
HETATM   14  C18 UNL     1      29.194   0.080  53.672  1.00  0.00     0.029 A 
HETATM   15  C19 UNL     1      29.716  -1.259  53.304  1.00  0.00     0.030 A 
HETATM   16  C20 UNL     1      28.721  -2.283  52.987  1.00  0.00    -0.010 A 
HETATM   17  C21 UNL     1      27.413  -2.151  52.977  1.00  0.00     0.082 A 
HETATM   18  N2  UNL     1      26.952  -0.868  53.314  1.00  0.00    -0.381 N 
HETATM   19  C22 UNL     1      25.644  -0.216  53.438  1.00  0.00     0.158 C 
HETATM   20  H10 UNL     1      21.698   1.932  50.670  1.00  0.00     0.169 HD
ENDROOT
BRANCH   1  21
HETATM   21  C6  UNL     1      24.192   5.915  48.283  1.00  0.00    -0.023 A 
HETATM   22  C5  UNL     1      23.055   5.962  47.472  1.00  0.00     0.012 A 
HETATM   23  C4  UNL     1      22.845   7.034  46.628  1.00  0.00     0.004 A 
HETATM   24  C3  UNL     1      23.771   8.070  46.586  1.00  0.00     0.037 A 
HETATM   25  C2  UNL     1      24.914   8.036  47.390  1.00  0.00     0.069 A 
HETATM   26  C23 UNL     1      25.080   6.944  48.219  1.00  0.00     0.049 A 
BRANCH  25  27
HETATM   27  O1  UNL     1      25.745   9.130  47.246  1.00  0.00    -0.356 OA
HETATM   28  C1  UNL     1      25.856  10.089  48.265  1.00  0.00     0.210 C 
ENDBRANCH  25  27
ENDBRANCH   1  21
TORSDOF 2
ENDMDL
MODEL 6
REMARK VINA RESULT:      -9.0      1.606      2.253
REMARK  2 active torsions:
REMARK  status: ('A' for Active; 'I' for Inactive)
REMARK    1  A    between atoms: O1_2  and  C2_3 
REMARK    2  A    between atoms: C6_7  and  C7_8 
ROOT
HETATM    1  C7  UNL     1      24.577   3.518  50.528  1.00  0.00    -0.024 A 
HETATM    2  C8  UNL     1      25.910   3.162  50.401  1.00  0.00     0.013 A 
HETATM    3  C9  UNL     1      26.744   4.016  49.709  1.00  0.00     0.015 A 
HETATM    4  C10 UNL     1      26.327   5.201  49.139  1.00  0.00     0.007 A 
HETATM    5  C11 UNL     1      24.996   5.546  49.272  1.00  0.00     0.047 A 
HETATM    6  C12 UNL     1      24.123   4.704  49.966  1.00  0.00     0.042 A 
HETATM    7  N1  UNL     1      24.783   6.791  48.617  1.00  0.00    -0.322 N 
HETATM    8  C13 UNL     1      26.021   7.206  48.074  1.00  0.00     0.257 A 
HETATM    9  O2  UNL     1      26.103   8.275  47.447  1.00  0.00    -0.267 OA
HETATM   10  C14 UNL     1      27.044   6.217  48.384  1.00  0.00     0.048 A 
HETATM   11  C15 UNL     1      28.314   6.278  48.033  1.00  0.00    -0.044 C 
HETATM   12  C16 UNL     1      29.430   5.332  48.293  1.00  0.00     0.062 C 
HETATM   13  C17 UNL     1      30.590   6.025  47.595  1.00  0.00     0.088 A 
HETATM   14  C18 UNL     1      31.926   5.563  48.029  1.00  0.00     0.029 A 
HETATM   15  C19 UNL     1      32.833   6.562  48.645  1.00  0.00     0.030 A 
HETATM   16  C20 UNL     1      32.324   7.929  48.750  1.00  0.00    -0.010 A 
HETATM   17  C21 UNL     1      31.146   8.375  48.372  1.00  0.00     0.082 A 
HETATM   18  N2  UNL     1      30.307   7.402  47.807  1.00  0.00    -0.381 N 
HETATM   19  C22 UNL     1      28.947   7.373  47.256  1.00  0.00     0.158 C 
HETATM   20  H10 UNL     1      23.840   7.275  48.576  1.00  0.00     0.169 HD
ENDROOT
BRANCH   1  21
HETATM   21  C6  UNL     1      23.570   2.727  51.226  1.00  0.00    -0.023 A 
HETATM   22  C5  UNL     1      23.718   1.385  51.588  1.00  0.00     0.012 A 
HETATM   23  C4  UNL     1      22.702   0.725  52.249  1.00  0.00     0.004 A 
HETATM   24  C3  UNL     1      21.526   1.401  52.555  1.00  0.00     0.037 A 
HETATM   25  C2  UNL     1      21.363   2.743  52.199  1.00  0.00     0.069 A 
HETATM   26  C23 UNL     1      22.408   3.361  51.540  1.00  0.00     0.049 A 
BRANCH  25  27
HETATM   27  O1  UNL     1      20.147   3.286  52.567  1.00  0.00    -0.356 OA
HETATM   28  C1  UNL     1      19.117   3.446  51.626  1.00  0.00     0.210 C 
ENDBRANCH  25  27
ENDBRANCH   1  21
TORSDOF 2
ENDMDL
MODEL 7
REMARK VINA RESULT:      -8.9      3.153      4.319
REMARK  2 active torsions:
REMARK  status: ('A' for Active; 'I' for Inactive)
REMARK    1  A    between atoms: O1_2  and  C2_3 
REMARK    2  A    between atoms: C6_7  and  C7_8 
ROOT
HETATM    1  C7  UNL     1      26.008   5.396  49.310  1.00  0.00    -0.024 A 
HETATM    2  C8  UNL     1      26.924   4.388  49.053  1.00  0.00     0.013 A 
HETATM    3  C9  UNL     1      28.161   4.749  48.562  1.00  0.00     0.015 A 
HETATM    4  C10 UNL     1      28.537   6.052  48.313  1.00  0.00     0.007 A 
HETATM    5  C11 UNL     1      27.617   7.049  48.573  1.00  0.00     0.047 A 
HETATM    6  C12 UNL     1      26.354   6.719  49.071  1.00  0.00     0.042 A 
HETATM    7  N1  UNL     1      28.204   8.304  48.249  1.00  0.00    -0.322 N 
HETATM    8  C13 UNL     1      29.515   8.055  47.781  1.00  0.00     0.257 A 
HETATM    9  O2  UNL     1      30.245   8.997  47.431  1.00  0.00    -0.267 OA
HETATM   10  C14 UNL     1      29.775   6.622  47.804  1.00  0.00     0.048 A 
HETATM   11  C15 UNL     1      30.895   6.031  47.434  1.00  0.00    -0.044 C 
HETATM   12  C16 UNL     1      31.262   4.592  47.416  1.00  0.00     0.062 C 
HETATM   13  C17 UNL     1      32.680   4.642  46.868  1.00  0.00     0.088 A 
HETATM   14  C18 UNL     1      33.478   3.425  47.128  1.00  0.00     0.029 A 
HETATM   15  C19 UNL     1      34.712   3.570  47.938  1.00  0.00     0.030 A 
HETATM   16  C20 UNL     1      35.040   4.922  48.391  1.00  0.00    -0.010 A 
HETATM   17  C21 UNL     1      34.358   6.025  48.174  1.00  0.00     0.082 A 
HETATM   18  N2  UNL     1      33.187   5.850  47.419  1.00  0.00    -0.381 N 
HETATM   19  C22 UNL     1      32.111   6.716  46.926  1.00  0.00     0.158 C 
HETATM   20  H10 UNL     1      27.700   9.231  48.361  1.00  0.00     0.169 HD
ENDROOT
BRANCH   1  21
HETATM   21  C6  UNL     1      24.662   5.181  49.829  1.00  0.00    -0.023 A 
HETATM   22  C5  UNL     1      24.074   5.925  50.855  1.00  0.00     0.012 A 
HETATM   23  C4  UNL     1      22.790   5.641  51.274  1.00  0.00     0.004 A 
HETATM   24  C3  UNL     1      22.080   4.610  50.670  1.00  0.00     0.037 A 
HETATM   25  C2  UNL     1      22.655   3.856  49.642  1.00  0.00     0.069 A 
HETATM   26  C23 UNL     1      23.942   4.178  49.257  1.00  0.00     0.049 A 
BRANCH  25  27
HETATM   27  O1  UNL     1      21.837   2.866  49.136  1.00  0.00    -0.356 OA
HETATM   28  C1  UNL     1      22.242   2.089  48.038  1.00  0.00     0.210 C 
ENDBRANCH  25  27
ENDBRANCH   1  21
TORSDOF 2
ENDMDL
MODEL 8
REMARK VINA RESULT:      -8.8      2.610      4.822
REMARK  2 active torsions:
REMARK  status: ('A' for Active; 'I' for Inactive)
REMARK    1  A    between atoms: O1_2  and  C2_3 
REMARK    2  A    between atoms: C6_7  and  C7_8 
ROOT
HETATM    1  C7  UNL     1      25.226   2.437  51.167  1.00  0.00    -0.024 A 
HETATM    2  C8  UNL     1      24.066   3.063  50.742  1.00  0.00     0.013 A 
HETATM    3  C9  UNL     1      24.190   4.167  49.924  1.00  0.00     0.015 A 
HETATM    4  C10 UNL     1      25.400   4.681  49.507  1.00  0.00     0.007 A 
HETATM    5  C11 UNL     1      26.550   4.048  49.936  1.00  0.00     0.047 A 
HETATM    6  C12 UNL     1      26.462   2.927  50.765  1.00  0.00     0.042 A 
HETATM    7  N1  UNL     1      27.673   4.734  49.395  1.00  0.00    -0.322 N 
HETATM    8  C13 UNL     1      27.185   5.810  48.618  1.00  0.00     0.257 A 
HETATM    9  O2  UNL     1      27.974   6.569  48.033  1.00  0.00    -0.267 OA
HETATM   10  C14 UNL     1      25.729   5.817  48.659  1.00  0.00     0.048 A 
HETATM   11  C15 UNL     1      24.939   6.680  48.050  1.00  0.00    -0.044 C 
HETATM   12  C16 UNL     1      23.458   6.778  48.027  1.00  0.00     0.062 C 
HETATM   13  C17 UNL     1      23.243   8.002  47.149  1.00  0.00     0.088 A 
HETATM   14  C18 UNL     1      21.883   8.114  46.581  1.00  0.00     0.029 A 
HETATM   15  C19 UNL     1      21.751   8.105  45.103  1.00  0.00     0.030 A 
HETATM   16  C20 UNL     1      22.994   8.006  44.338  1.00  0.00    -0.010 A 
HETATM   17  C21 UNL     1      24.218   7.911  44.809  1.00  0.00     0.082 A 
HETATM   18  N2  UNL     1      24.306   7.905  46.210  1.00  0.00    -0.381 N 
HETATM   19  C22 UNL     1      25.386   7.812  47.199  1.00  0.00     0.158 C 
HETATM   20  H10 UNL     1      28.678   4.444  49.576  1.00  0.00     0.169 HD
ENDROOT
BRANCH   1  21
HETATM   21  C6  UNL     1      25.266   1.263  52.032  1.00  0.00    -0.023 A 
HETATM   22  C5  UNL     1      24.159   0.713  52.683  1.00  0.00     0.012 A 
HETATM   23  C4  UNL     1      24.304  -0.404  53.481  1.00  0.00     0.004 A 
HETATM   24  C3  UNL     1      25.558  -0.982  53.636  1.00  0.00     0.037 A 
HETATM   25  C2  UNL     1      26.676  -0.443  52.992  1.00  0.00     0.069 A 
HETATM   26  C23 UNL     1      26.481   0.674  52.203  1.00  0.00     0.049 A 
BRANCH  25  27
HETATM   27  O1  UNL     1      27.855  -1.119  53.235  1.00  0.00    -0.356 OA
HETATM   28  C1  UNL     1      28.930  -0.483  53.878  1.00  0.00     0.210 C 
ENDBRANCH  25  27
ENDBRANCH   1  21
TORSDOF 2
ENDMDL
MODEL 9
REMARK VINA RESULT:      -8.8      2.635      8.555
REMARK  2 active torsions:
REMARK  status: ('A' for Active; 'I' for Inactive)
REMARK    1  A    between atoms: O1_2  and  C2_3 
REMARK    2  A    between atoms: C6_7  and  C7_8 
ROOT
HETATM    1  C7  UNL     1      27.690   5.851  48.582  1.00  0.00    -0.024 A 
HETATM    2  C8  UNL     1      27.409   4.553  48.975  1.00  0.00     0.013 A 
HETATM    3  C9  UNL     1      26.219   4.322  49.635  1.00  0.00     0.015 A 
HETATM    4  C10 UNL     1      25.298   5.306  49.924  1.00  0.00     0.007 A 
HETATM    5  C11 UNL     1      25.589   6.597  49.527  1.00  0.00     0.047 A 
HETATM    6  C12 UNL     1      26.784   6.867  48.857  1.00  0.00     0.042 A 
HETATM    7  N1  UNL     1      24.516   7.444  49.920  1.00  0.00    -0.322 N 
HETATM    8  C13 UNL     1      23.553   6.641  50.572  1.00  0.00     0.257 A 
HETATM    9  O2  UNL     1      22.509   7.148  51.015  1.00  0.00    -0.267 OA
HETATM   10  C14 UNL     1      24.010   5.258  50.599  1.00  0.00     0.048 A 
HETATM   11  C15 UNL     1      23.365   4.237  51.129  1.00  0.00    -0.044 C 
HETATM   12  C16 UNL     1      23.738   2.802  51.211  1.00  0.00     0.062 C 
HETATM   13  C17 UNL     1      22.548   2.216  51.955  1.00  0.00     0.088 A 
HETATM   14  C18 UNL     1      22.406   0.750  51.821  1.00  0.00     0.029 A 
HETATM   15  C19 UNL     1      21.165   0.233  51.195  1.00  0.00     0.030 A 
HETATM   16  C20 UNL     1      20.178   1.230  50.781  1.00  0.00    -0.010 A 
HETATM   17  C21 UNL     1      20.268   2.537  50.889  1.00  0.00     0.082 A 
HETATM   18  N2  UNL     1      21.461   2.995  51.472  1.00  0.00    -0.381 N 
HETATM   19  C22 UNL     1      22.041   4.301  51.799  1.00  0.00     0.158 C 
HETATM   20  H10 UNL     1      24.497   8.488  49.731  1.00  0.00     0.169 HD
ENDROOT
BRANCH   1  21
HETATM   21  C6  UNL     1      28.901   6.261  47.879  1.00  0.00    -0.023 A 
HETATM   22  C5  UNL     1      29.002   7.381  47.049  1.00  0.00     0.012 A 
HETATM   23  C4  UNL     1      30.197   7.683  46.428  1.00  0.00     0.004 A 
HETATM   24  C3  UNL     1      31.305   6.868  46.631  1.00  0.00     0.037 A 
HETATM   25  C2  UNL     1      31.218   5.743  47.457  1.00  0.00     0.069 A 
HETATM   26  C23 UNL     1      30.002   5.483  48.058  1.00  0.00     0.049 A 
BRANCH  25  27
HETATM   27  O1  UNL     1      32.394   5.026  47.567  1.00  0.00    -0.356 OA
HETATM   28  C1  UNL     1      32.433   3.656  47.262  1.00  0.00     0.210 C 
ENDBRANCH  25  27
ENDBRANCH   1  21
TORSDOF 2
ENDMDL
