MODEL 1
REMARK VINA RESULT:      -7.6      0.000      0.000
REMARK  8 active torsions:
REMARK  status: ('A' for Active; 'I' for Inactive)
REMARK    1  A    between atoms: O1_2  and  C2_3 
REMARK    2  A    between atoms: C6_9  and  N3_10 
REMARK    3  A    between atoms: N3_10  and  C7_11 
REMARK    4  A    between atoms: C7_11  and  C8_12 
REMARK    5  A    between atoms: C9_13  and  C11_15 
REMARK    6  A    between atoms: C15_21  and  C16_22 
REMARK    7  A    between atoms: C16_22  and  C17_23 
REMARK    8  A    between atoms: C17_23  and  N4_24 
ROOT
HETATM    1  C2  UNL     1      25.589   3.059  50.221  1.00  0.00     0.077 C 
HETATM    2  C3  UNL     1      24.560   3.184  49.378  1.00  0.00     0.067 C 
HETATM    3  C4  UNL     1      23.171   2.877  49.708  1.00  0.00     0.074 A 
HETATM    4  N1  UNL     1      22.579   2.578  48.549  1.00  0.00    -0.241 NA
HETATM    5  C5  UNL     1      21.272   2.240  48.538  1.00  0.00     0.235 A 
HETATM    6  N2  UNL     1      20.560   2.199  49.663  1.00  0.00    -0.224 NA
HETATM    7  C6  UNL     1      21.035   2.474  50.877  1.00  0.00     0.137 A 
HETATM    8  C12 UNL     1      22.369   2.813  50.832  1.00  0.00     0.040 A 
HETATM    9  C13 UNL     1      22.725   3.109  52.231  1.00  0.00     0.041 C 
HETATM   10  C14 UNL     1      23.858   3.035  52.933  1.00  0.00     0.137 C 
HETATM   11  O2  UNL     1      25.139   2.647  52.587  1.00  0.00    -0.351 OA
HETATM   12  C15 UNL     1      26.042   2.695  51.551  1.00  0.00     0.185 C 
ENDROOT
BRANCH   7  13
HETATM   13  N3  UNL     1      20.249   2.391  52.050  1.00  0.00    -0.371 N 
HETATM   14  H6  UNL     1      19.936   2.990  52.814  1.00  0.00     0.161 HD
BRANCH  13  15
HETATM   15  C7  UNL     1      19.708   1.080  52.314  1.00  0.00     0.149 C 
BRANCH  15  16
HETATM   16  C8  UNL     1      20.362   0.404  53.472  1.00  0.00    -0.003 C 
HETATM   17  C9  UNL     1      21.482  -0.290  53.630  1.00  0.00    -0.058 C 
HETATM   18  C10 UNL     1      22.438  -0.567  52.528  1.00  0.00     0.045 C 
BRANCH  17  19
HETATM   19  C11 UNL     1      21.745  -0.791  55.002  1.00  0.00     0.256 C 
HETATM   20  F1  UNL     1      22.167  -2.091  55.000  1.00  0.00    -0.251 F 
ENDBRANCH  17  19
ENDBRANCH  15  16
ENDBRANCH  13  15
ENDBRANCH   7  13
BRANCH   1  21
HETATM   21  O1  UNL     1      26.713   3.459  49.485  1.00  0.00    -0.357 OA
HETATM   22  C1  UNL     1      26.822   4.761  49.002  1.00  0.00     0.209 C 
ENDBRANCH   1  21
BRANCH  12  23
HETATM   23  C16 UNL     1      26.872   1.397  51.542  1.00  0.00     0.058 C 
BRANCH  23  24
HETATM   24  C17 UNL     1      27.561   1.391  52.915  1.00  0.00     0.120 C 
BRANCH  24  25
HETATM   25  N4  UNL     1      27.644   0.020  53.309  1.00  0.00    -0.408 N 
HETATM   26  C18 UNL     1      28.915  -0.515  53.534  1.00  0.00     0.143 C 
HETATM   27  C19 UNL     1      29.091  -1.974  53.267  1.00  0.00     0.187 C 
HETATM   28  O3  UNL     1      27.912  -2.680  53.143  1.00  0.00    -0.388 OA
HETATM   29  C20 UNL     1      26.943  -2.057  52.373  1.00  0.00     0.187 C 
HETATM   30  C21 UNL     1      26.532  -0.805  53.097  1.00  0.00     0.143 C 
ENDBRANCH  24  25
ENDBRANCH  23  24
ENDBRANCH  12  23
TORSDOF 8
ENDMDL
MODEL 2
REMARK VINA RESULT:      -7.6      3.198      7.628
REMARK  8 active torsions:
REMARK  status: ('A' for Active; 'I' for Inactive)
REMARK    1  A    between atoms: O1_2  and  C2_3 
REMARK    2  A    between atoms: C6_9  and  N3_10 
REMARK    3  A    between atoms: N3_10  and  C7_11 
REMARK    4  A    between atoms: C7_11  and  C8_12 
REMARK    5  A    between atoms: C9_13  and  C11_15 
REMARK    6  A    between atoms: C15_21  and  C16_22 
REMARK    7  A    between atoms: C16_22  and  C17_23 
REMARK    8  A    between atoms: C17_23  and  N4_24 
ROOT
HETATM    1  C2  UNL     1      22.067   0.493  53.450  1.00  0.00     0.077 C 
HETATM    2  C3  UNL     1      23.293  -0.001  53.647  1.00  0.00     0.067 C 
HETATM    3  C4  UNL     1      24.508   0.511  53.020  1.00  0.00     0.074 A 
HETATM    4  N1  UNL     1      25.363  -0.514  52.992  1.00  0.00    -0.241 NA
HETATM    5  C5  UNL     1      26.589  -0.342  52.454  1.00  0.00     0.235 A 
HETATM    6  N2  UNL     1      26.963   0.832  51.950  1.00  0.00    -0.224 NA
HETATM    7  C6  UNL     1      26.203   1.926  51.919  1.00  0.00     0.137 A 
HETATM    8  C12 UNL     1      24.966   1.697  52.479  1.00  0.00     0.040 A 
HETATM    9  C13 UNL     1      24.272   2.994  52.390  1.00  0.00     0.041 C 
HETATM   10  C14 UNL     1      22.989   3.353  52.303  1.00  0.00     0.137 C 
HETATM   11  O2  UNL     1      21.821   2.614  52.265  1.00  0.00    -0.351 OA
HETATM   12  C15 UNL     1      21.241   1.480  52.782  1.00  0.00     0.185 C 
ENDROOT
BRANCH   7  13
HETATM   13  N3  UNL     1      26.631   3.147  51.348  1.00  0.00    -0.371 N 
HETATM   14  H6  UNL     1      26.990   4.056  51.644  1.00  0.00     0.161 HD
BRANCH  13  15
HETATM   15  C7  UNL     1      26.543   3.196  49.908  1.00  0.00     0.149 C 
BRANCH  15  16
HETATM   16  C8  UNL     1      26.234   4.560  49.390  1.00  0.00    -0.003 C 
HETATM   17  C9  UNL     1      26.931   5.491  48.752  1.00  0.00    -0.058 C 
HETATM   18  C10 UNL     1      28.359   5.332  48.376  1.00  0.00     0.045 C 
BRANCH  17  19
HETATM   19  C11 UNL     1      26.197   6.737  48.419  1.00  0.00     0.256 C 
HETATM   20  F1  UNL     1      24.944   6.479  47.938  1.00  0.00    -0.251 F 
ENDBRANCH  17  19
ENDBRANCH  15  16
ENDBRANCH  13  15
ENDBRANCH   7  13
BRANCH   1  21
HETATM   21  O1  UNL     1      21.224  -0.299  54.243  1.00  0.00    -0.357 OA
HETATM   22  C1  UNL     1      21.530  -1.635  54.494  1.00  0.00     0.209 C 
ENDBRANCH   1  21
BRANCH  12  23
HETATM   23  C16 UNL     1      20.333   0.843  51.712  1.00  0.00     0.058 C 
BRANCH  23  24
HETATM   24  C17 UNL     1      21.298   0.499  50.567  1.00  0.00     0.120 C 
BRANCH  24  25
HETATM   25  N4  UNL     1      20.782   1.152  49.406  1.00  0.00    -0.408 N 
HETATM   26  C18 UNL     1      21.692   1.524  48.413  1.00  0.00     0.143 C 
HETATM   27  C19 UNL     1      21.348   2.728  47.598  1.00  0.00     0.187 C 
HETATM   28  O3  UNL     1      20.033   3.134  47.703  1.00  0.00    -0.388 OA
HETATM   29  C20 UNL     1      19.531   3.137  48.994  1.00  0.00     0.187 C 
HETATM   30  C21 UNL     1      19.500   1.711  49.468  1.00  0.00     0.143 C 
ENDBRANCH  24  25
ENDBRANCH  23  24
ENDBRANCH  12  23
TORSDOF 8
ENDMDL
MODEL 3
REMARK VINA RESULT:      -7.1      3.786      8.177
REMARK  8 active torsions:
REMARK  status: ('A' for Active; 'I' for Inactive)
REMARK    1  A    between atoms: O1_2  and  C2_3 
REMARK    2  A    between atoms: C6_9  and  N3_10 
REMARK    3  A    between atoms: N3_10  and  C7_11 
REMARK    4  A    between atoms: C7_11  and  C8_12 
REMARK    5  A    between atoms: C9_13  and  C11_15 
REMARK    6  A    between atoms: C15_21  and  C16_22 
REMARK    7  A    between atoms: C16_22  and  C17_23 
REMARK    8  A    between atoms: C17_23  and  N4_24 
ROOT
HETATM    1  C2  UNL     1      22.218   0.276  53.474  1.00  0.00     0.077 C 
HETATM    2  C3  UNL     1      23.470  -0.129  53.704  1.00  0.00     0.067 C 
HETATM    3  C4  UNL     1      24.658   0.430  53.064  1.00  0.00     0.074 A 
HETATM    4  N1  UNL     1      25.576  -0.539  53.091  1.00  0.00    -0.241 NA
HETATM    5  C5  UNL     1      26.795  -0.314  52.556  1.00  0.00     0.235 A 
HETATM    6  N2  UNL     1      27.099   0.857  52.001  1.00  0.00    -0.224 NA
HETATM    7  C6  UNL     1      26.273   1.898  51.912  1.00  0.00     0.137 A 
HETATM    8  C12 UNL     1      25.046   1.617  52.473  1.00  0.00     0.040 A 
HETATM    9  C13 UNL     1      24.273   2.861  52.318  1.00  0.00     0.041 C 
HETATM   10  C14 UNL     1      22.970   3.134  52.202  1.00  0.00     0.137 C 
HETATM   11  O2  UNL     1      21.852   2.321  52.189  1.00  0.00    -0.351 OA
HETATM   12  C15 UNL     1      21.339   1.177  52.754  1.00  0.00     0.185 C 
ENDROOT
BRANCH   7  13
HETATM   13  N3  UNL     1      26.629   3.116  51.289  1.00  0.00    -0.371 N 
HETATM   14  H6  UNL     1      26.903   4.065  51.545  1.00  0.00     0.161 HD
BRANCH  13  15
HETATM   15  C7  UNL     1      26.601   3.079  49.846  1.00  0.00     0.149 C 
BRANCH  15  16
HETATM   16  C8  UNL     1      27.008   4.371  49.223  1.00  0.00    -0.003 C 
HETATM   17  C9  UNL     1      26.367   5.482  48.886  1.00  0.00    -0.058 C 
HETATM   18  C10 UNL     1      24.910   5.684  49.094  1.00  0.00     0.045 C 
BRANCH  17  19
HETATM   19  C11 UNL     1      27.197   6.549  48.274  1.00  0.00     0.256 C 
HETATM   20  F1  UNL     1      28.358   6.057  47.748  1.00  0.00    -0.251 F 
ENDBRANCH  17  19
ENDBRANCH  15  16
ENDBRANCH  13  15
ENDBRANCH   7  13
BRANCH   1  21
HETATM   21  O1  UNL     1      21.418  -0.530  54.296  1.00  0.00    -0.357 OA
HETATM   22  C1  UNL     1      21.551  -1.917  54.280  1.00  0.00     0.209 C 
ENDBRANCH   1  21
BRANCH  12  23
HETATM   23  C16 UNL     1      20.485   0.435  51.707  1.00  0.00     0.058 C 
BRANCH  23  24
HETATM   24  C17 UNL     1      19.073   1.004  51.913  1.00  0.00     0.120 C 
BRANCH  24  25
HETATM   25  N4  UNL     1      18.171  -0.067  51.630  1.00  0.00    -0.408 N 
HETATM   26  C18 UNL     1      17.449  -0.010  50.436  1.00  0.00     0.143 C 
HETATM   27  C19 UNL     1      16.103  -0.656  50.428  1.00  0.00     0.187 C 
HETATM   28  O3  UNL     1      15.870  -1.508  51.489  1.00  0.00    -0.388 OA
HETATM   29  C20 UNL     1      16.279  -1.021  52.720  1.00  0.00     0.187 C 
HETATM   30  C21 UNL     1      17.777  -0.905  52.682  1.00  0.00     0.143 C 
ENDBRANCH  24  25
ENDBRANCH  23  24
ENDBRANCH  12  23
TORSDOF 8
ENDMDL
MODEL 4
REMARK VINA RESULT:      -7.1      3.392      8.052
REMARK  8 active torsions:
REMARK  status: ('A' for Active; 'I' for Inactive)
REMARK    1  A    between atoms: O1_2  and  C2_3 
REMARK    2  A    between atoms: C6_9  and  N3_10 
REMARK    3  A    between atoms: N3_10  and  C7_11 
REMARK    4  A    between atoms: C7_11  and  C8_12 
REMARK    5  A    between atoms: C9_13  and  C11_15 
REMARK    6  A    between atoms: C15_21  and  C16_22 
REMARK    7  A    between atoms: C16_22  and  C17_23 
REMARK    8  A    between atoms: C17_23  and  N4_24 
ROOT
HETATM    1  C2  UNL     1      22.196   0.345  53.416  1.00  0.00     0.077 C 
HETATM    2  C3  UNL     1      23.455  -0.059  53.608  1.00  0.00     0.067 C 
HETATM    3  C4  UNL     1      24.627   0.541  52.976  1.00  0.00     0.074 A 
HETATM    4  N1  UNL     1      25.554  -0.421  52.943  1.00  0.00    -0.241 NA
HETATM    5  C5  UNL     1      26.763  -0.160  52.400  1.00  0.00     0.235 A 
HETATM    6  N2  UNL     1      27.048   1.039  51.896  1.00  0.00    -0.224 NA
HETATM    7  C6  UNL     1      26.211   2.075  51.870  1.00  0.00     0.137 A 
HETATM    8  C12 UNL     1      24.996   1.757  52.436  1.00  0.00     0.040 A 
HETATM    9  C13 UNL     1      24.210   3.000  52.351  1.00  0.00     0.041 C 
HETATM   10  C14 UNL     1      22.904   3.266  52.269  1.00  0.00     0.137 C 
HETATM   11  O2  UNL     1      21.792   2.445  52.235  1.00  0.00    -0.351 OA
HETATM   12  C15 UNL     1      21.298   1.271  52.753  1.00  0.00     0.185 C 
ENDROOT
BRANCH   7  13
HETATM   13  N3  UNL     1      26.547   3.325  51.299  1.00  0.00    -0.371 N 
HETATM   14  H6  UNL     1      26.790   4.271  51.596  1.00  0.00     0.161 HD
BRANCH  13  15
HETATM   15  C7  UNL     1      26.549   3.341  49.856  1.00  0.00     0.149 C 
BRANCH  15  16
HETATM   16  C8  UNL     1      26.349   4.706  49.289  1.00  0.00    -0.003 C 
HETATM   17  C9  UNL     1      27.125   5.564  48.641  1.00  0.00    -0.058 C 
HETATM   18  C10 UNL     1      28.546   5.294  48.305  1.00  0.00     0.045 C 
BRANCH  17  19
HETATM   19  C11 UNL     1      26.489   6.847  48.251  1.00  0.00     0.256 C 
HETATM   20  F1  UNL     1      26.588   7.788  49.236  1.00  0.00    -0.251 F 
ENDBRANCH  17  19
ENDBRANCH  15  16
ENDBRANCH  13  15
ENDBRANCH   7  13
BRANCH   1  21
HETATM   21  O1  UNL     1      21.416  -0.507  54.211  1.00  0.00    -0.357 OA
HETATM   22  C1  UNL     1      21.654  -1.879  54.232  1.00  0.00     0.209 C 
ENDBRANCH   1  21
BRANCH  12  23
HETATM   23  C16 UNL     1      20.434   0.571  51.686  1.00  0.00     0.058 C 
BRANCH  23  24
HETATM   24  C17 UNL     1      19.004   1.028  52.012  1.00  0.00     0.120 C 
BRANCH  24  25
HETATM   25  N4  UNL     1      18.664   1.999  51.022  1.00  0.00    -0.408 N 
HETATM   26  C18 UNL     1      18.935   1.688  49.686  1.00  0.00     0.143 C 
HETATM   27  C19 UNL     1      19.242   2.830  48.775  1.00  0.00     0.187 C 
HETATM   28  O3  UNL     1      18.906   4.070  49.277  1.00  0.00    -0.388 OA
HETATM   29  C20 UNL     1      19.253   4.270  50.603  1.00  0.00     0.187 C 
HETATM   30  C21 UNL     1      18.434   3.319  51.430  1.00  0.00     0.143 C 
ENDBRANCH  24  25
ENDBRANCH  23  24
ENDBRANCH  12  23
TORSDOF 8
ENDMDL
MODEL 5
REMARK VINA RESULT:      -7.0      4.519      7.316
REMARK  8 active torsions:
REMARK  status: ('A' for Active; 'I' for Inactive)
REMARK    1  A    between atoms: O1_2  and  C2_3 
REMARK    2  A    between atoms: C6_9  and  N3_10 
REMARK    3  A    between atoms: N3_10  and  C7_11 
REMARK    4  A    between atoms: C7_11  and  C8_12 
REMARK    5  A    between atoms: C9_13  and  C11_15 
REMARK    6  A    between atoms: C15_21  and  C16_22 
REMARK    7  A    between atoms: C16_22  and  C17_23 
REMARK    8  A    between atoms: C17_23  and  N4_24 
ROOT
HETATM    1  C2  UNL     1      23.518   2.925  51.497  1.00  0.00     0.077 C 
HETATM    2  C3  UNL     1      23.127   4.145  51.116  1.00  0.00     0.067 C 
HETATM    3  C4  UNL     1      24.026   5.211  50.683  1.00  0.00     0.074 A 
HETATM    4  N1  UNL     1      23.384   6.354  50.937  1.00  0.00    -0.241 NA
HETATM    5  C5  UNL     1      23.979   7.529  50.644  1.00  0.00     0.235 A 
HETATM    6  N2  UNL     1      25.198   7.571  50.107  1.00  0.00    -0.224 NA
HETATM    7  C6  UNL     1      25.938   6.504  49.810  1.00  0.00     0.137 A 
HETATM    8  C12 UNL     1      25.285   5.333  50.126  1.00  0.00     0.040 A 
HETATM    9  C13 UNL     1      26.215   4.266  49.717  1.00  0.00     0.041 C 
HETATM   10  C14 UNL     1      26.429   3.015  50.132  1.00  0.00     0.137 C 
HETATM   11  O2  UNL     1      25.836   2.253  51.121  1.00  0.00    -0.351 OA
HETATM   12  C15 UNL     1      24.621   2.009  51.717  1.00  0.00     0.185 C 
ENDROOT
BRANCH   7  13
HETATM   13  N3  UNL     1      27.240   6.595  49.266  1.00  0.00    -0.371 N 
HETATM   14  H6  UNL     1      28.107   6.057  49.240  1.00  0.00     0.161 HD
BRANCH  13  15
HETATM   15  C7  UNL     1      27.491   7.804  48.518  1.00  0.00     0.149 C 
BRANCH  15  16
HETATM   16  C8  UNL     1      28.775   8.463  48.893  1.00  0.00    -0.003 C 
HETATM   17  C9  UNL     1      29.150   9.721  49.085  1.00  0.00    -0.058 C 
HETATM   18  C10 UNL     1      28.235  10.882  48.944  1.00  0.00     0.045 C 
BRANCH  17  19
HETATM   19  C11 UNL     1      30.571   9.923  49.462  1.00  0.00     0.256 C 
HETATM   20  F1  UNL     1      30.853  11.236  49.713  1.00  0.00    -0.251 F 
ENDBRANCH  17  19
ENDBRANCH  15  16
ENDBRANCH  13  15
ENDBRANCH   7  13
BRANCH   1  21
HETATM   21  O1  UNL     1      22.334   2.248  51.821  1.00  0.00    -0.357 OA
HETATM   22  C1  UNL     1      21.819   1.268  50.975  1.00  0.00     0.209 C 
ENDBRANCH   1  21
BRANCH  12  23
HETATM   23  C16 UNL     1      24.841   1.720  53.214  1.00  0.00     0.058 C 
BRANCH  23  24
HETATM   24  C17 UNL     1      24.579   0.212  53.340  1.00  0.00     0.120 C 
BRANCH  24  25
HETATM   25  N4  UNL     1      25.797  -0.362  53.818  1.00  0.00    -0.408 N 
HETATM   26  C18 UNL     1      26.443   0.277  54.880  1.00  0.00     0.143 C 
HETATM   27  C19 UNL     1      27.931   0.155  54.937  1.00  0.00     0.187 C 
HETATM   28  O3  UNL     1      28.457  -0.832  54.130  1.00  0.00    -0.388 OA
HETATM   29  C20 UNL     1      27.913  -0.888  52.857  1.00  0.00     0.187 C 
HETATM   30  C21 UNL     1      26.469  -1.280  53.001  1.00  0.00     0.143 C 
ENDBRANCH  24  25
ENDBRANCH  23  24
ENDBRANCH  12  23
TORSDOF 8
ENDMDL
MODEL 6
REMARK VINA RESULT:      -6.8      4.425      7.759
REMARK  8 active torsions:
REMARK  status: ('A' for Active; 'I' for Inactive)
REMARK    1  A    between atoms: O1_2  and  C2_3 
REMARK    2  A    between atoms: C6_9  and  N3_10 
REMARK    3  A    between atoms: N3_10  and  C7_11 
REMARK    4  A    between atoms: C7_11  and  C8_12 
REMARK    5  A    between atoms: C9_13  and  C11_15 
REMARK    6  A    between atoms: C15_21  and  C16_22 
REMARK    7  A    between atoms: C16_22  and  C17_23 
REMARK    8  A    between atoms: C17_23  and  N4_24 
ROOT
HETATM    1  C2  UNL     1      23.214   3.127  49.896  1.00  0.00     0.077 C 
HETATM    2  C3  UNL     1      23.223   4.156  49.044  1.00  0.00     0.067 C 
HETATM    3  C4  UNL     1      24.349   5.066  48.851  1.00  0.00     0.074 A 
HETATM    4  N1  UNL     1      23.819   6.210  48.407  1.00  0.00    -0.241 NA
HETATM    5  C5  UNL     1      24.628   7.257  48.142  1.00  0.00     0.235 A 
HETATM    6  N2  UNL     1      25.946   7.173  48.315  1.00  0.00    -0.224 NA
HETATM    7  C6  UNL     1      26.591   6.092  48.752  1.00  0.00     0.137 A 
HETATM    8  C12 UNL     1      25.721   5.054  49.005  1.00  0.00     0.040 A 
HETATM    9  C13 UNL     1      26.585   3.946  49.447  1.00  0.00     0.041 C 
HETATM   10  C14 UNL     1      26.403   2.891  50.246  1.00  0.00     0.137 C 
HETATM   11  O2  UNL     1      25.305   2.451  50.962  1.00  0.00    -0.351 OA
HETATM   12  C15 UNL     1      23.935   2.362  50.896  1.00  0.00     0.185 C 
ENDROOT
BRANCH   7  13
HETATM   13  N3  UNL     1      27.991   6.055  48.947  1.00  0.00    -0.371 N 
HETATM   14  H6  UNL     1      28.668   5.701  49.623  1.00  0.00     0.161 HD
BRANCH  13  15
HETATM   15  C7  UNL     1      28.755   6.719  47.918  1.00  0.00     0.149 C 
BRANCH  15  16
HETATM   16  C8  UNL     1      29.749   7.686  48.465  1.00  0.00    -0.003 C 
HETATM   17  C9  UNL     1      29.662   8.847  49.101  1.00  0.00    -0.058 C 
HETATM   18  C10 UNL     1      28.374   9.503  49.440  1.00  0.00     0.045 C 
BRANCH  17  19
HETATM   19  C11 UNL     1      30.952   9.481  49.472  1.00  0.00     0.256 C 
HETATM   20  F1  UNL     1      31.979   9.058  48.676  1.00  0.00    -0.251 F 
ENDBRANCH  17  19
ENDBRANCH  15  16
ENDBRANCH  13  15
ENDBRANCH   7  13
BRANCH   1  21
HETATM   21  O1  UNL     1      21.948   2.543  49.747  1.00  0.00    -0.357 OA
HETATM   22  C1  UNL     1      21.802   1.313  49.110  1.00  0.00     0.209 C 
ENDBRANCH   1  21
BRANCH  12  23
HETATM   23  C16 UNL     1      23.346   2.555  52.306  1.00  0.00     0.058 C 
BRANCH  23  24
HETATM   24  C17 UNL     1      23.986   1.428  53.131  1.00  0.00     0.120 C 
BRANCH  24  25
HETATM   25  N4  UNL     1      22.966   0.444  53.312  1.00  0.00    -0.408 N 
HETATM   26  C18 UNL     1      21.638   0.879  53.318  1.00  0.00     0.143 C 
HETATM   27  C19 UNL     1      20.672   0.091  54.141  1.00  0.00     0.187 C 
HETATM   28  O3  UNL     1      21.132  -1.149  54.534  1.00  0.00    -0.388 OA
HETATM   29  C20 UNL     1      22.439  -1.161  54.992  1.00  0.00     0.187 C 
HETATM   30  C21 UNL     1      23.326  -0.805  53.832  1.00  0.00     0.143 C 
ENDBRANCH  24  25
ENDBRANCH  23  24
ENDBRANCH  12  23
TORSDOF 8
ENDMDL
MODEL 7
REMARK VINA RESULT:      -6.6      4.421      7.319
REMARK  8 active torsions:
REMARK  status: ('A' for Active; 'I' for Inactive)
REMARK    1  A    between atoms: O1_2  and  C2_3 
REMARK    2  A    between atoms: C6_9  and  N3_10 
REMARK    3  A    between atoms: N3_10  and  C7_11 
REMARK    4  A    between atoms: C7_11  and  C8_12 
REMARK    5  A    between atoms: C9_13  and  C11_15 
REMARK    6  A    between atoms: C15_21  and  C16_22 
REMARK    7  A    between atoms: C16_22  and  C17_23 
REMARK    8  A    between atoms: C17_23  and  N4_24 
ROOT
HETATM    1  C2  UNL     1      23.575   3.188  51.592  1.00  0.00     0.077 C 
HETATM    2  C3  UNL     1      23.250   4.439  51.254  1.00  0.00     0.067 C 
HETATM    3  C4  UNL     1      24.191   5.438  50.753  1.00  0.00     0.074 A 
HETATM    4  N1  UNL     1      23.664   6.624  51.068  1.00  0.00    -0.241 NA
HETATM    5  C5  UNL     1      24.323   7.754  50.733  1.00  0.00     0.235 A 
HETATM    6  N2  UNL     1      25.491   7.707  50.095  1.00  0.00    -0.224 NA
HETATM    7  C6  UNL     1      26.117   6.590  49.728  1.00  0.00     0.137 A 
HETATM    8  C12 UNL     1      25.403   5.470  50.091  1.00  0.00     0.040 A 
HETATM    9  C13 UNL     1      26.208   4.339  49.596  1.00  0.00     0.041 C 
HETATM   10  C14 UNL     1      26.358   3.070  49.982  1.00  0.00     0.137 C 
HETATM   11  O2  UNL     1      25.793   2.343  51.013  1.00  0.00    -0.351 OA
HETATM   12  C15 UNL     1      24.618   2.186  51.710  1.00  0.00     0.185 C 
ENDROOT
BRANCH   7  13
HETATM   13  N3  UNL     1      27.371   6.587  49.074  1.00  0.00    -0.371 N 
HETATM   14  H6  UNL     1      28.122   5.935  48.846  1.00  0.00     0.161 HD
BRANCH  13  15
HETATM   15  C7  UNL     1      27.780   7.873  48.562  1.00  0.00     0.149 C 
BRANCH  15  16
HETATM   16  C8  UNL     1      27.343   8.105  47.156  1.00  0.00    -0.003 C 
HETATM   17  C9  UNL     1      27.976   8.332  46.012  1.00  0.00    -0.058 C 
HETATM   18  C10 UNL     1      29.454   8.409  45.894  1.00  0.00     0.045 C 
BRANCH  17  19
HETATM   19  C11 UNL     1      27.114   8.509  44.818  1.00  0.00     0.256 C 
HETATM   20  F1  UNL     1      27.056   9.814  44.416  1.00  0.00    -0.251 F 
ENDBRANCH  17  19
ENDBRANCH  15  16
ENDBRANCH  13  15
ENDBRANCH   7  13
BRANCH   1  21
HETATM   21  O1  UNL     1      22.373   2.601  52.012  1.00  0.00    -0.357 OA
HETATM   22  C1  UNL     1      21.163   2.953  51.419  1.00  0.00     0.209 C 
ENDBRANCH   1  21
BRANCH  12  23
HETATM   23  C16 UNL     1      24.941   1.861  53.181  1.00  0.00     0.058 C 
BRANCH  23  24
HETATM   24  C17 UNL     1      24.620   0.364  53.306  1.00  0.00     0.120 C 
BRANCH  24  25
HETATM   25  N4  UNL     1      25.804  -0.252  53.815  1.00  0.00    -0.408 N 
HETATM   26  C18 UNL     1      26.487   0.403  54.843  1.00  0.00     0.143 C 
HETATM   27  C19 UNL     1      27.965   0.200  54.909  1.00  0.00     0.187 C 
HETATM   28  O3  UNL     1      28.433  -0.857  54.156  1.00  0.00    -0.388 OA
HETATM   29  C20 UNL     1      27.885  -0.948  52.886  1.00  0.00     0.187 C 
HETATM   30  C21 UNL     1      26.421  -1.249  53.049  1.00  0.00     0.143 C 
ENDBRANCH  24  25
ENDBRANCH  23  24
ENDBRANCH  12  23
TORSDOF 8
ENDMDL
MODEL 8
REMARK VINA RESULT:      -6.5      3.234      4.153
REMARK  8 active torsions:
REMARK  status: ('A' for Active; 'I' for Inactive)
REMARK    1  A    between atoms: O1_2  and  C2_3 
REMARK    2  A    between atoms: C6_9  and  N3_10 
REMARK    3  A    between atoms: N3_10  and  C7_11 
REMARK    4  A    between atoms: C7_11  and  C8_12 
REMARK    5  A    between atoms: C9_13  and  C11_15 
REMARK    6  A    between atoms: C15_21  and  C16_22 
REMARK    7  A    between atoms: C16_22  and  C17_23 
REMARK    8  A    between atoms: C17_23  and  N4_24 
ROOT
HETATM    1  C2  UNL     1      22.513   2.506  52.289  1.00  0.00     0.077 C 
HETATM    2  C3  UNL     1      21.314   2.671  51.723  1.00  0.00     0.067 C 
HETATM    3  C4  UNL     1      20.251   1.670  51.719  1.00  0.00     0.074 A 
HETATM    4  N1  UNL     1      19.503   1.939  50.645  1.00  0.00    -0.241 NA
HETATM    5  C5  UNL     1      18.431   1.165  50.371  1.00  0.00     0.235 A 
HETATM    6  N2  UNL     1      18.106   0.135  51.151  1.00  0.00    -0.224 NA
HETATM    7  C6  UNL     1      18.771  -0.234  52.245  1.00  0.00     0.137 A 
HETATM    8  C12 UNL     1      19.852   0.588  52.479  1.00  0.00     0.040 A 
HETATM    9  C13 UNL     1      20.453   0.067  53.720  1.00  0.00     0.041 C 
HETATM   10  C14 UNL     1      21.691   0.067  54.220  1.00  0.00     0.137 C 
HETATM   11  O2  UNL     1      22.883   0.575  53.739  1.00  0.00    -0.351 OA
HETATM   12  C15 UNL     1      23.403   1.636  53.035  1.00  0.00     0.185 C 
ENDROOT
BRANCH   7  13
HETATM   13  N3  UNL     1      18.406  -1.352  53.030  1.00  0.00    -0.371 N 
HETATM   14  H6  UNL     1      18.825  -1.993  53.705  1.00  0.00     0.161 HD
BRANCH  13  15
HETATM   15  C7  UNL     1      17.038  -1.779  52.859  1.00  0.00     0.149 C 
BRANCH  15  16
HETATM   16  C8  UNL     1      16.802  -3.175  53.329  1.00  0.00    -0.003 C 
HETATM   17  C9  UNL     1      15.957  -4.139  52.988  1.00  0.00    -0.058 C 
HETATM   18  C10 UNL     1      14.936  -3.994  51.919  1.00  0.00     0.045 C 
BRANCH  17  19
HETATM   19  C11 UNL     1      16.083  -5.409  53.745  1.00  0.00     0.256 C 
HETATM   20  F1  UNL     1      16.375  -5.193  55.062  1.00  0.00    -0.251 F 
ENDBRANCH  17  19
ENDBRANCH  15  16
ENDBRANCH  13  15
ENDBRANCH   7  13
BRANCH   1  21
HETATM   21  O1  UNL     1      23.197   3.706  52.050  1.00  0.00    -0.357 OA
HETATM   22  C1  UNL     1      22.548   4.790  51.462  1.00  0.00     0.209 C 
ENDBRANCH   1  21
BRANCH  12  23
HETATM   23  C16 UNL     1      24.583   1.143  52.176  1.00  0.00     0.058 C 
BRANCH  23  24
HETATM   24  C17 UNL     1      25.821   1.695  52.898  1.00  0.00     0.120 C 
BRANCH  24  25
HETATM   25  N4  UNL     1      26.469   0.568  53.488  1.00  0.00    -0.408 N 
HETATM   26  C18 UNL     1      27.674   0.789  54.161  1.00  0.00     0.143 C 
HETATM   27  C19 UNL     1      28.660  -0.332  54.169  1.00  0.00     0.187 C 
HETATM   28  O3  UNL     1      28.141  -1.555  53.795  1.00  0.00    -0.388 OA
HETATM   29  C20 UNL     1      27.309  -1.514  52.688  1.00  0.00     0.187 C 
HETATM   30  C21 UNL     1      26.093  -0.715  53.068  1.00  0.00     0.143 C 
ENDBRANCH  24  25
ENDBRANCH  23  24
ENDBRANCH  12  23
TORSDOF 8
ENDMDL
MODEL 9
REMARK VINA RESULT:      -6.5      4.385      7.465
REMARK  8 active torsions:
REMARK  status: ('A' for Active; 'I' for Inactive)
REMARK    1  A    between atoms: O1_2  and  C2_3 
REMARK    2  A    between atoms: C6_9  and  N3_10 
REMARK    3  A    between atoms: N3_10  and  C7_11 
REMARK    4  A    between atoms: C7_11  and  C8_12 
REMARK    5  A    between atoms: C9_13  and  C11_15 
REMARK    6  A    between atoms: C15_21  and  C16_22 
REMARK    7  A    between atoms: C16_22  and  C17_23 
REMARK    8  A    between atoms: C17_23  and  N4_24 
ROOT
HETATM    1  C2  UNL     1      23.423   3.399  50.019  1.00  0.00     0.077 C 
HETATM    2  C3  UNL     1      23.370   4.503  49.268  1.00  0.00     0.067 C 
HETATM    3  C4  UNL     1      24.496   5.401  49.027  1.00  0.00     0.074 A 
HETATM    4  N1  UNL     1      23.958   6.593  48.754  1.00  0.00    -0.241 NA
HETATM    5  C5  UNL     1      24.766   7.642  48.492  1.00  0.00     0.235 A 
HETATM    6  N2  UNL     1      26.091   7.512  48.502  1.00  0.00    -0.224 NA
HETATM    7  C6  UNL     1      26.745   6.380  48.759  1.00  0.00     0.137 A 
HETATM    8  C12 UNL     1      25.876   5.343  49.018  1.00  0.00     0.040 A 
HETATM    9  C13 UNL     1      26.747   4.178  49.253  1.00  0.00     0.041 C 
HETATM   10  C14 UNL     1      26.621   3.058  49.969  1.00  0.00     0.137 C 
HETATM   11  O2  UNL     1      25.599   2.578  50.766  1.00  0.00    -0.351 OA
HETATM   12  C15 UNL     1      24.228   2.527  50.853  1.00  0.00     0.185 C 
ENDROOT
BRANCH   7  13
HETATM   13  N3  UNL     1      28.156   6.292  48.785  1.00  0.00    -0.371 N 
HETATM   14  H6  UNL     1      28.897   5.918  49.379  1.00  0.00     0.161 HD
BRANCH  13  15
HETATM   15  C7  UNL     1      28.814   6.921  47.665  1.00  0.00     0.149 C 
BRANCH  15  16
HETATM   16  C8  UNL     1      30.257   6.561  47.561  1.00  0.00    -0.003 C 
HETATM   17  C9  UNL     1      31.361   6.963  48.177  1.00  0.00    -0.058 C 
HETATM   18  C10 UNL     1      31.376   7.997  49.242  1.00  0.00     0.045 C 
BRANCH  17  19
HETATM   19  C11 UNL     1      32.620   6.310  47.741  1.00  0.00     0.256 C 
HETATM   20  F1  UNL     1      32.741   6.287  46.380  1.00  0.00    -0.251 F 
ENDBRANCH  17  19
ENDBRANCH  15  16
ENDBRANCH  13  15
ENDBRANCH   7  13
BRANCH   1  21
HETATM   21  O1  UNL     1      22.129   2.861  49.967  1.00  0.00    -0.357 OA
HETATM   22  C1  UNL     1      21.882   1.664  49.297  1.00  0.00     0.209 C 
ENDBRANCH   1  21
BRANCH  12  23
HETATM   23  C16 UNL     1      23.811   2.600  52.335  1.00  0.00     0.058 C 
BRANCH  23  24
HETATM   24  C17 UNL     1      23.659   1.129  52.748  1.00  0.00     0.120 C 
BRANCH  24  25
HETATM   25  N4  UNL     1      24.917   0.743  53.304  1.00  0.00    -0.408 N 
HETATM   26  C18 UNL     1      25.692   1.736  53.910  1.00  0.00     0.143 C 
HETATM   27  C19 UNL     1      27.174   1.558  53.865  1.00  0.00     0.187 C 
HETATM   28  O3  UNL     1      27.588   0.287  53.523  1.00  0.00    -0.388 OA
HETATM   29  C20 UNL     1      26.899  -0.280  52.464  1.00  0.00     0.187 C 
HETATM   30  C21 UNL     1      25.476  -0.479  52.909  1.00  0.00     0.143 C 
ENDBRANCH  24  25
ENDBRANCH  23  24
ENDBRANCH  12  23
TORSDOF 8
ENDMDL
