MODEL 1
REMARK VINA RESULT:      -7.2      0.000      0.000
REMARK  10 active torsions:
REMARK  status: ('A' for Active; 'I' for Inactive)
REMARK    1  A    between atoms: C2_2  and  C3_3 
REMARK       I    between atoms: C3_3  and  N1_5 
REMARK    2  A    between atoms: N1_5  and  C4_6 
REMARK    3  A    between atoms: C4_6  and  C5_7 
REMARK    4  A    between atoms: C4_6  and  C17_25 
REMARK    5  A    between atoms: C5_7  and  C6_8 
REMARK    6  A    between atoms: C16_23  and  N7_24 
REMARK    7  A    between atoms: C17_25  and  N8_26 
REMARK    8  A    between atoms: N8_26  and  C19_28 
REMARK    9  A    between atoms: C19_28  and  C20_29 
REMARK   10  A    between atoms: C20_29  and  N9_30 
ROOT
HETATM    1  C6  UNL     1      23.997   2.560  50.995  1.00  0.00     0.119 A 
HETATM    2  C7  UNL     1      24.416   1.461  51.890  1.00  0.00     0.080 A 
HETATM    3  N2  UNL     1      23.365   0.907  52.423  1.00  0.00    -0.158 NA
HETATM    4  N3  UNL     1      23.606  -0.169  53.318  1.00  0.00    -0.184 N 
HETATM    5  C8  UNL     1      24.874  -0.801  53.606  1.00  0.00     0.165 A 
HETATM    6  C9  UNL     1      25.127  -0.875  55.097  1.00  0.00     0.082 C 
HETATM    7  C10 UNL     1      23.904  -1.414  55.784  1.00  0.00     0.116 C 
HETATM    8  N4  UNL     1      22.696  -1.353  55.322  1.00  0.00    -0.172 NA
HETATM    9  N5  UNL     1      22.529  -0.719  54.065  1.00  0.00    -0.197 N 
HETATM   10  C11 UNL     1      21.179  -0.632  53.532  1.00  0.00     0.204 C 
HETATM   11  C12 UNL     1      25.981  -0.092  52.963  1.00  0.00    -0.043 A 
HETATM   12  C13 UNL     1      27.394  -0.450  53.128  1.00  0.00     0.046 C 
HETATM   13  C14 UNL     1      25.734   0.926  52.191  1.00  0.00     0.012 A 
HETATM   14  C15 UNL     1      26.698   1.740  51.471  1.00  0.00     0.126 A 
HETATM   15  N6  UNL     1      26.410   2.707  50.742  1.00  0.00    -0.265 NA
HETATM   16  C16 UNL     1      25.176   3.261  50.420  1.00  0.00     0.352 A 
ENDROOT
BRANCH   1  17
HETATM   17  C5  UNL     1      22.969   2.141  50.018  1.00  0.00     0.015 C 
BRANCH  17  18
HETATM   18  C4  UNL     1      21.918   1.857  49.271  1.00  0.00     0.026 C 
BRANCH  18  19
HETATM   19  N1  UNL     1      20.874   0.972  49.648  1.00  0.00    -0.326 N 
HETATM   20  C3  UNL     1      19.790   1.168  50.531  1.00  0.00     0.244 C 
HETATM   21  O1  UNL     1      19.627   2.256  51.127  1.00  0.00    -0.268 OA
HETATM   22  H4  UNL     1      20.706  -0.010  49.340  1.00  0.00     0.169 HD
BRANCH  20  23
HETATM   23  C2  UNL     1      18.693   0.327  50.965  1.00  0.00     0.064 C 
HETATM   24  C1  UNL     1      17.674   0.331  50.122  1.00  0.00     0.017 C 
ENDBRANCH  20  23
ENDBRANCH  18  19
BRANCH  18  25
HETATM   25  C17 UNL     1      21.561   2.383  47.933  1.00  0.00     0.173 C 
BRANCH  25  26
HETATM   26  N8  UNL     1      20.655   3.461  48.039  1.00  0.00    -0.410 N 
HETATM   27  C18 UNL     1      19.399   3.348  47.382  1.00  0.00     0.143 C 
BRANCH  26  28
HETATM   28  C19 UNL     1      21.248   4.759  48.083  1.00  0.00     0.147 C 
BRANCH  28  29
HETATM   29  C20 UNL     1      20.794   5.587  49.265  1.00  0.00     0.290 C 
BRANCH  29  30
HETATM   30  N9  UNL     1      21.869   5.894  50.191  1.00  0.00     0.081 N 
HETATM   31  C21 UNL     1      21.519   5.248  51.459  1.00  0.00     0.309 C 
HETATM   32  C22 UNL     1      21.855   7.321  50.473  1.00  0.00     0.309 C 
ENDBRANCH  29  30
ENDBRANCH  28  29
ENDBRANCH  26  28
ENDBRANCH  25  26
ENDBRANCH  18  25
ENDBRANCH  17  18
ENDBRANCH   1  17
BRANCH  16  33
HETATM   33  N7  UNL     1      25.174   4.689  50.770  1.00  0.00     0.104 N 
HETATM   34  H19 UNL     1      25.665   5.252  50.028  1.00  0.00     0.315 HD
HETATM   35  H20 UNL     1      25.745   4.775  51.630  1.00  0.00     0.315 HD
ENDBRANCH  16  33
TORSDOF 10
ENDMDL
MODEL 2
REMARK VINA RESULT:      -7.1      1.832      3.606
REMARK  10 active torsions:
REMARK  status: ('A' for Active; 'I' for Inactive)
REMARK    1  A    between atoms: C2_2  and  C3_3 
REMARK       I    between atoms: C3_3  and  N1_5 
REMARK    2  A    between atoms: N1_5  and  C4_6 
REMARK    3  A    between atoms: C4_6  and  C5_7 
REMARK    4  A    between atoms: C4_6  and  C17_25 
REMARK    5  A    between atoms: C5_7  and  C6_8 
REMARK    6  A    between atoms: C16_23  and  N7_24 
REMARK    7  A    between atoms: C17_25  and  N8_26 
REMARK    8  A    between atoms: N8_26  and  C19_28 
REMARK    9  A    between atoms: C19_28  and  C20_29 
REMARK   10  A    between atoms: C20_29  and  N9_30 
ROOT
HETATM    1  C6  UNL     1      24.247   2.589  50.894  1.00  0.00     0.119 A 
HETATM    2  C7  UNL     1      24.520   1.468  51.818  1.00  0.00     0.080 A 
HETATM    3  N2  UNL     1      23.396   0.994  52.273  1.00  0.00    -0.158 NA
HETATM    4  N3  UNL     1      23.496  -0.092  53.184  1.00  0.00    -0.184 N 
HETATM    5  C8  UNL     1      24.691  -0.811  53.564  1.00  0.00     0.165 A 
HETATM    6  C9  UNL     1      24.829  -0.893  55.069  1.00  0.00     0.082 C 
HETATM    7  C10 UNL     1      23.524  -1.341  55.666  1.00  0.00     0.116 C 
HETATM    8  N4  UNL     1      22.359  -1.197  55.117  1.00  0.00    -0.172 NA
HETATM    9  N5  UNL     1      22.331  -0.560  53.851  1.00  0.00    -0.197 N 
HETATM   10  C11 UNL     1      21.032  -0.381  53.220  1.00  0.00     0.204 C 
HETATM   11  C12 UNL     1      25.889  -0.185  53.003  1.00  0.00    -0.043 A 
HETATM   12  C13 UNL     1      27.258  -0.641  53.270  1.00  0.00     0.046 C 
HETATM   13  C14 UNL     1      25.772   0.843  52.214  1.00  0.00     0.012 A 
HETATM   14  C15 UNL     1      26.841   1.583  51.567  1.00  0.00     0.126 A 
HETATM   15  N6  UNL     1      26.676   2.564  50.818  1.00  0.00    -0.265 NA
HETATM   16  C16 UNL     1      25.511   3.202  50.406  1.00  0.00     0.352 A 
ENDROOT
BRANCH   1  17
HETATM   17  C5  UNL     1      23.266   2.238  49.845  1.00  0.00     0.015 C 
BRANCH  17  18
HETATM   18  C4  UNL     1      22.248   1.979  49.045  1.00  0.00     0.026 C 
BRANCH  18  19
HETATM   19  N1  UNL     1      22.235   2.231  47.647  1.00  0.00    -0.326 N 
HETATM   20  C3  UNL     1      21.926   3.411  46.938  1.00  0.00     0.244 C 
HETATM   21  O1  UNL     1      21.601   4.461  47.536  1.00  0.00    -0.268 OA
HETATM   22  H4  UNL     1      22.455   1.578  46.864  1.00  0.00     0.169 HD
BRANCH  20  23
HETATM   23  C2  UNL     1      21.890   3.747  45.529  1.00  0.00     0.064 C 
HETATM   24  C1  UNL     1      21.849   5.051  45.310  1.00  0.00     0.017 C 
ENDBRANCH  20  23
ENDBRANCH  18  19
BRANCH  18  25
HETATM   25  C17 UNL     1      20.942   1.364  49.373  1.00  0.00     0.173 C 
BRANCH  25  26
HETATM   26  N8  UNL     1      20.029   2.335  49.841  1.00  0.00    -0.410 N 
HETATM   27  C18 UNL     1      20.078   2.694  51.216  1.00  0.00     0.143 C 
BRANCH  26  28
HETATM   28  C19 UNL     1      18.743   2.316  49.223  1.00  0.00     0.147 C 
BRANCH  28  29
HETATM   29  C20 UNL     1      17.674   1.672  50.078  1.00  0.00     0.290 C 
BRANCH  29  30
HETATM   30  N9  UNL     1      17.686   0.222  50.007  1.00  0.00     0.081 N 
HETATM   31  C21 UNL     1      16.359  -0.180  49.532  1.00  0.00     0.309 C 
HETATM   32  C22 UNL     1      17.787  -0.314  51.356  1.00  0.00     0.309 C 
ENDBRANCH  29  30
ENDBRANCH  28  29
ENDBRANCH  26  28
ENDBRANCH  25  26
ENDBRANCH  18  25
ENDBRANCH  17  18
ENDBRANCH   1  17
BRANCH  16  33
HETATM   33  N7  UNL     1      25.586   4.628  50.754  1.00  0.00     0.104 N 
HETATM   34  H19 UNL     1      25.506   4.759  51.796  1.00  0.00     0.315 HD
HETATM   35  H20 UNL     1      24.746   5.069  50.337  1.00  0.00     0.315 HD
ENDBRANCH  16  33
TORSDOF 10
ENDMDL
MODEL 3
REMARK VINA RESULT:      -7.1      1.455      2.517
REMARK  10 active torsions:
REMARK  status: ('A' for Active; 'I' for Inactive)
REMARK    1  A    between atoms: C2_2  and  C3_3 
REMARK       I    between atoms: C3_3  and  N1_5 
REMARK    2  A    between atoms: N1_5  and  C4_6 
REMARK    3  A    between atoms: C4_6  and  C5_7 
REMARK    4  A    between atoms: C4_6  and  C17_25 
REMARK    5  A    between atoms: C5_7  and  C6_8 
REMARK    6  A    between atoms: C16_23  and  N7_24 
REMARK    7  A    between atoms: C17_25  and  N8_26 
REMARK    8  A    between atoms: N8_26  and  C19_28 
REMARK    9  A    between atoms: C19_28  and  C20_29 
REMARK   10  A    between atoms: C20_29  and  N9_30 
ROOT
HETATM    1  C6  UNL     1      24.237   2.635  50.842  1.00  0.00     0.119 A 
HETATM    2  C7  UNL     1      24.462   1.491  51.750  1.00  0.00     0.080 A 
HETATM    3  N2  UNL     1      23.318   1.059  52.200  1.00  0.00    -0.158 NA
HETATM    4  N3  UNL     1      23.371  -0.042  53.096  1.00  0.00    -0.184 N 
HETATM    5  C8  UNL     1      24.534  -0.817  53.466  1.00  0.00     0.165 A 
HETATM    6  C9  UNL     1      24.668  -0.925  54.970  1.00  0.00     0.082 C 
HETATM    7  C10 UNL     1      23.345  -1.324  55.561  1.00  0.00     0.116 C 
HETATM    8  N4  UNL     1      22.188  -1.123  55.015  1.00  0.00    -0.172 NA
HETATM    9  N5  UNL     1      22.186  -0.469  53.757  1.00  0.00    -0.197 N 
HETATM   10  C11 UNL     1      20.897  -0.225  53.130  1.00  0.00     0.204 C 
HETATM   11  C12 UNL     1      25.757  -0.236  52.913  1.00  0.00    -0.043 A 
HETATM   12  C13 UNL     1      27.106  -0.754  53.174  1.00  0.00     0.046 C 
HETATM   13  C14 UNL     1      25.685   0.807  52.138  1.00  0.00     0.012 A 
HETATM   14  C15 UNL     1      26.785   1.509  51.500  1.00  0.00     0.126 A 
HETATM   15  N6  UNL     1      26.663   2.506  50.764  1.00  0.00    -0.265 NA
HETATM   16  C16 UNL     1      25.527   3.199  50.362  1.00  0.00     0.352 A 
ENDROOT
BRANCH   1  17
HETATM   17  C5  UNL     1      23.242   2.340  49.789  1.00  0.00     0.015 C 
BRANCH  17  18
HETATM   18  C4  UNL     1      22.235   2.010  49.001  1.00  0.00     0.026 C 
BRANCH  18  19
HETATM   19  N1  UNL     1      22.199   2.236  47.599  1.00  0.00    -0.326 N 
HETATM   20  C3  UNL     1      21.990   3.429  46.875  1.00  0.00     0.244 C 
HETATM   21  O1  UNL     1      21.796   4.518  47.460  1.00  0.00    -0.268 OA
HETATM   22  H4  UNL     1      22.322   1.550  46.823  1.00  0.00     0.169 HD
BRANCH  20  23
HETATM   23  C2  UNL     1      21.939   3.741  45.461  1.00  0.00     0.064 C 
HETATM   24  C1  UNL     1      21.918   5.041  45.219  1.00  0.00     0.017 C 
ENDBRANCH  20  23
ENDBRANCH  18  19
BRANCH  18  25
HETATM   25  C17 UNL     1      20.968   1.329  49.350  1.00  0.00     0.173 C 
BRANCH  25  26
HETATM   26  N8  UNL     1      20.026   2.246  49.867  1.00  0.00    -0.410 N 
HETATM   27  C18 UNL     1      19.083   2.818  48.969  1.00  0.00     0.143 C 
BRANCH  26  28
HETATM   28  C19 UNL     1      20.499   3.080  50.925  1.00  0.00     0.147 C 
BRANCH  28  29
HETATM   29  C20 UNL     1      20.261   4.553  50.681  1.00  0.00     0.290 C 
BRANCH  29  30
HETATM   30  N9  UNL     1      21.486   5.332  50.660  1.00  0.00     0.081 N 
HETATM   31  C21 UNL     1      22.083   5.203  51.991  1.00  0.00     0.309 C 
HETATM   32  C22 UNL     1      21.146   6.740  50.528  1.00  0.00     0.309 C 
ENDBRANCH  29  30
ENDBRANCH  28  29
ENDBRANCH  26  28
ENDBRANCH  25  26
ENDBRANCH  18  25
ENDBRANCH  17  18
ENDBRANCH   1  17
BRANCH  16  33
HETATM   33  N7  UNL     1      25.662   4.615  50.729  1.00  0.00     0.104 N 
HETATM   34  H19 UNL     1      25.107   4.827  51.597  1.00  0.00     0.315 HD
HETATM   35  H20 UNL     1      25.224   5.155  49.960  1.00  0.00     0.315 HD
ENDBRANCH  16  33
TORSDOF 10
ENDMDL
MODEL 4
REMARK VINA RESULT:      -6.8      2.073      6.463
REMARK  10 active torsions:
REMARK  status: ('A' for Active; 'I' for Inactive)
REMARK    1  A    between atoms: C2_2  and  C3_3 
REMARK       I    between atoms: C3_3  and  N1_5 
REMARK    2  A    between atoms: N1_5  and  C4_6 
REMARK    3  A    between atoms: C4_6  and  C5_7 
REMARK    4  A    between atoms: C4_6  and  C17_25 
REMARK    5  A    between atoms: C5_7  and  C6_8 
REMARK    6  A    between atoms: C16_23  and  N7_24 
REMARK    7  A    between atoms: C17_25  and  N8_26 
REMARK    8  A    between atoms: N8_26  and  C19_28 
REMARK    9  A    between atoms: C19_28  and  C20_29 
REMARK   10  A    between atoms: C20_29  and  N9_30 
ROOT
HETATM    1  C6  UNL     1      22.977   2.108  49.757  1.00  0.00     0.119 A 
HETATM    2  C7  UNL     1      21.973   1.688  50.757  1.00  0.00     0.080 A 
HETATM    3  N2  UNL     1      22.541   0.936  51.656  1.00  0.00    -0.158 NA
HETATM    4  N3  UNL     1      21.697   0.446  52.688  1.00  0.00    -0.184 N 
HETATM    5  C8  UNL     1      20.313   0.789  52.927  1.00  0.00     0.165 A 
HETATM    6  C9  UNL     1      19.455  -0.450  53.065  1.00  0.00     0.082 C 
HETATM    7  C10 UNL     1      20.112  -1.408  54.019  1.00  0.00     0.116 C 
HETATM    8  N4  UNL     1      21.379  -1.450  54.286  1.00  0.00    -0.172 NA
HETATM    9  N5  UNL     1      22.199  -0.510  53.613  1.00  0.00    -0.197 N 
HETATM   10  C11 UNL     1      23.627  -0.545  53.892  1.00  0.00     0.204 C 
HETATM   11  C12 UNL     1      19.781   1.627  51.853  1.00  0.00    -0.043 A 
HETATM   12  C13 UNL     1      18.386   2.077  51.775  1.00  0.00     0.046 C 
HETATM   13  C14 UNL     1      20.562   2.018  50.889  1.00  0.00     0.012 A 
HETATM   14  C15 UNL     1      20.212   2.850  49.752  1.00  0.00     0.126 A 
HETATM   15  N6  UNL     1      21.000   3.197  48.852  1.00  0.00    -0.265 NA
HETATM   16  C16 UNL     1      22.350   2.914  48.675  1.00  0.00     0.352 A 
ENDROOT
BRANCH   1  17
HETATM   17  C5  UNL     1      24.183   2.701  50.372  1.00  0.00     0.015 C 
BRANCH  17  18
HETATM   18  C4  UNL     1      25.352   3.191  50.745  1.00  0.00     0.026 C 
BRANCH  18  19
HETATM   19  N1  UNL     1      25.705   4.565  50.696  1.00  0.00    -0.326 N 
HETATM   20  C3  UNL     1      24.887   5.713  50.616  1.00  0.00     0.244 C 
HETATM   21  O1  UNL     1      23.640   5.619  50.578  1.00  0.00    -0.268 OA
HETATM   22  H4  UNL     1      26.654   4.997  50.709  1.00  0.00     0.169 HD
BRANCH  20  23
HETATM   23  C2  UNL     1      25.165   7.133  50.563  1.00  0.00     0.064 C 
HETATM   24  C1  UNL     1      24.073   7.876  50.631  1.00  0.00     0.017 C 
ENDBRANCH  20  23
ENDBRANCH  18  19
BRANCH  18  25
HETATM   25  C17 UNL     1      26.520   2.476  51.308  1.00  0.00     0.173 C 
BRANCH  25  26
HETATM   26  N8  UNL     1      26.158   1.744  52.461  1.00  0.00    -0.410 N 
HETATM   27  C18 UNL     1      25.652   2.462  53.579  1.00  0.00     0.143 C 
BRANCH  26  28
HETATM   28  C19 UNL     1      26.962   0.598  52.738  1.00  0.00     0.147 C 
BRANCH  28  29
HETATM   29  C20 UNL     1      27.147   0.337  54.216  1.00  0.00     0.290 C 
BRANCH  29  30
HETATM   30  N9  UNL     1      28.529   0.080  54.580  1.00  0.00     0.081 N 
HETATM   31  C21 UNL     1      29.259   1.327  54.339  1.00  0.00     0.309 C 
HETATM   32  C22 UNL     1      29.092  -0.879  53.643  1.00  0.00     0.309 C 
ENDBRANCH  29  30
ENDBRANCH  28  29
ENDBRANCH  26  28
ENDBRANCH  25  26
ENDBRANCH  18  25
ENDBRANCH  17  18
ENDBRANCH   1  17
BRANCH  16  33
HETATM   33  N7  UNL     1      22.550   2.292  47.358  1.00  0.00     0.104 N 
HETATM   34  H19 UNL     1      21.633   2.194  46.852  1.00  0.00     0.315 HD
HETATM   35  H20 UNL     1      22.888   1.330  47.543  1.00  0.00     0.315 HD
ENDBRANCH  16  33
TORSDOF 10
ENDMDL
MODEL 5
REMARK VINA RESULT:      -6.8      2.653      5.460
REMARK  10 active torsions:
REMARK  status: ('A' for Active; 'I' for Inactive)
REMARK    1  A    between atoms: C2_2  and  C3_3 
REMARK       I    between atoms: C3_3  and  N1_5 
REMARK    2  A    between atoms: N1_5  and  C4_6 
REMARK    3  A    between atoms: C4_6  and  C5_7 
REMARK    4  A    between atoms: C4_6  and  C17_25 
REMARK    5  A    between atoms: C5_7  and  C6_8 
REMARK    6  A    between atoms: C16_23  and  N7_24 
REMARK    7  A    between atoms: C17_25  and  N8_26 
REMARK    8  A    between atoms: N8_26  and  C19_28 
REMARK    9  A    between atoms: C19_28  and  C20_29 
REMARK   10  A    between atoms: C20_29  and  N9_30 
ROOT
HETATM    1  C6  UNL     1      23.819   3.249  49.611  1.00  0.00     0.119 A 
HETATM    2  C7  UNL     1      23.825   2.373  50.801  1.00  0.00     0.080 A 
HETATM    3  N2  UNL     1      25.035   2.287  51.275  1.00  0.00    -0.158 NA
HETATM    4  N3  UNL     1      25.204   1.469  52.423  1.00  0.00    -0.184 N 
HETATM    5  C8  UNL     1      24.170   0.824  53.201  1.00  0.00     0.165 A 
HETATM    6  C9  UNL     1      24.462  -0.649  53.392  1.00  0.00     0.082 C 
HETATM    7  C10 UNL     1      25.885  -0.821  53.843  1.00  0.00     0.116 C 
HETATM    8  N4  UNL     1      26.847   0.020  53.629  1.00  0.00    -0.172 NA
HETATM    9  N5  UNL     1      26.513   1.192  52.904  1.00  0.00    -0.197 N 
HETATM   10  C11 UNL     1      27.581   2.146  52.645  1.00  0.00     0.204 C 
HETATM   11  C12 UNL     1      22.858   0.978  52.572  1.00  0.00    -0.043 A 
HETATM   12  C13 UNL     1      21.623   0.373  53.084  1.00  0.00     0.046 C 
HETATM   13  C14 UNL     1      22.740   1.689  51.488  1.00  0.00     0.012 A 
HETATM   14  C15 UNL     1      21.527   1.954  50.735  1.00  0.00     0.126 A 
HETATM   15  N6  UNL     1      21.466   2.643  49.700  1.00  0.00    -0.265 NA
HETATM   16  C16 UNL     1      22.463   3.316  49.002  1.00  0.00     0.352 A 
ENDROOT
BRANCH   1  17
HETATM   17  C5  UNL     1      24.467   4.554  49.861  1.00  0.00     0.015 C 
BRANCH  17  18
HETATM   18  C4  UNL     1      25.110   5.707  49.890  1.00  0.00     0.026 C 
BRANCH  18  19
HETATM   19  N1  UNL     1      26.344   5.961  49.234  1.00  0.00    -0.326 N 
HETATM   20  C3  UNL     1      27.396   5.081  48.902  1.00  0.00     0.244 C 
HETATM   21  O1  UNL     1      27.337   3.863  49.183  1.00  0.00    -0.268 OA
HETATM   22  H4  UNL     1      26.715   6.864  48.866  1.00  0.00     0.169 HD
BRANCH  20  23
HETATM   23  C2  UNL     1      28.673   5.258  48.241  1.00  0.00     0.064 C 
HETATM   24  C1  UNL     1      28.931   6.521  47.947  1.00  0.00     0.017 C 
ENDBRANCH  20  23
ENDBRANCH  18  19
BRANCH  18  25
HETATM   25  C17 UNL     1      24.717   6.972  50.551  1.00  0.00     0.173 C 
BRANCH  25  26
HETATM   26  N8  UNL     1      23.587   7.542  49.923  1.00  0.00    -0.410 N 
HETATM   27  C18 UNL     1      23.801   8.563  48.958  1.00  0.00     0.143 C 
BRANCH  26  28
HETATM   28  C19 UNL     1      22.424   7.658  50.741  1.00  0.00     0.147 C 
BRANCH  28  29
HETATM   29  C20 UNL     1      21.463   6.500  50.589  1.00  0.00     0.290 C 
BRANCH  29  30
HETATM   30  N9  UNL     1      20.565   6.650  49.459  1.00  0.00     0.081 N 
HETATM   31  C21 UNL     1      19.951   7.974  49.590  1.00  0.00     0.309 C 
HETATM   32  C22 UNL     1      19.468   5.705  49.600  1.00  0.00     0.309 C 
ENDBRANCH  29  30
ENDBRANCH  28  29
ENDBRANCH  26  28
ENDBRANCH  25  26
ENDBRANCH  18  25
ENDBRANCH  17  18
ENDBRANCH   1  17
BRANCH  16  33
HETATM   33  N7  UNL     1      22.480   2.855  47.607  1.00  0.00     0.104 N 
HETATM   34  H19 UNL     1      21.848   2.022  47.485  1.00  0.00     0.315 HD
HETATM   35  H20 UNL     1      23.444   2.522  47.425  1.00  0.00     0.315 HD
ENDBRANCH  16  33
TORSDOF 10
ENDMDL
MODEL 6
REMARK VINA RESULT:      -6.6      1.586      2.409
REMARK  10 active torsions:
REMARK  status: ('A' for Active; 'I' for Inactive)
REMARK    1  A    between atoms: C2_2  and  C3_3 
REMARK       I    between atoms: C3_3  and  N1_5 
REMARK    2  A    between atoms: N1_5  and  C4_6 
REMARK    3  A    between atoms: C4_6  and  C5_7 
REMARK    4  A    between atoms: C4_6  and  C17_25 
REMARK    5  A    between atoms: C5_7  and  C6_8 
REMARK    6  A    between atoms: C16_23  and  N7_24 
REMARK    7  A    between atoms: C17_25  and  N8_26 
REMARK    8  A    between atoms: N8_26  and  C19_28 
REMARK    9  A    between atoms: C19_28  and  C20_29 
REMARK   10  A    between atoms: C20_29  and  N9_30 
ROOT
HETATM    1  C6  UNL     1      22.798   3.648  52.041  1.00  0.00     0.119 A 
HETATM    2  C7  UNL     1      23.422   2.366  52.429  1.00  0.00     0.080 A 
HETATM    3  N2  UNL     1      22.574   1.658  53.119  1.00  0.00    -0.158 NA
HETATM    4  N3  UNL     1      23.033   0.393  53.572  1.00  0.00    -0.184 N 
HETATM    5  C8  UNL     1      24.285  -0.253  53.247  1.00  0.00     0.165 A 
HETATM    6  C9  UNL     1      25.010  -0.709  54.495  1.00  0.00     0.082 C 
HETATM    7  C10 UNL     1      24.052  -1.449  55.386  1.00  0.00     0.116 C 
HETATM    8  N4  UNL     1      22.765  -1.306  55.386  1.00  0.00    -0.172 NA
HETATM    9  N5  UNL     1      22.232  -0.369  54.465  1.00  0.00    -0.197 N 
HETATM   10  C11 UNL     1      20.788  -0.187  54.454  1.00  0.00     0.204 C 
HETATM   11  C12 UNL     1      25.158   0.635  52.479  1.00  0.00    -0.043 A 
HETATM   12  C13 UNL     1      26.524   0.291  52.064  1.00  0.00     0.046 C 
HETATM   13  C14 UNL     1      24.732   1.812  52.124  1.00  0.00     0.012 A 
HETATM   14  C15 UNL     1      25.452   2.817  51.362  1.00  0.00     0.126 A 
HETATM   15  N6  UNL     1      24.998   3.933  51.046  1.00  0.00    -0.265 NA
HETATM   16  C16 UNL     1      23.762   4.513  51.309  1.00  0.00     0.352 A 
ENDROOT
BRANCH   1  17
HETATM   17  C5  UNL     1      21.483   3.469  51.390  1.00  0.00     0.015 C 
BRANCH  17  18
HETATM   18  C4  UNL     1      20.411   3.202  50.667  1.00  0.00     0.026 C 
BRANCH  18  19
HETATM   19  N1  UNL     1      19.401   2.273  51.032  1.00  0.00    -0.326 N 
HETATM   20  C3  UNL     1      19.453   0.866  51.135  1.00  0.00     0.244 C 
HETATM   21  O1  UNL     1      20.505   0.236  50.888  1.00  0.00    -0.268 OA
HETATM   22  H4  UNL     1      18.410   2.457  51.299  1.00  0.00     0.169 HD
BRANCH  20  23
HETATM   23  C2  UNL     1      18.479  -0.143  51.497  1.00  0.00     0.064 C 
HETATM   24  C1  UNL     1      17.281   0.359  51.741  1.00  0.00     0.017 C 
ENDBRANCH  20  23
ENDBRANCH  18  19
BRANCH  18  25
HETATM   25  C17 UNL     1      19.991   3.793  49.376  1.00  0.00     0.173 C 
BRANCH  25  26
HETATM   26  N8  UNL     1      20.593   5.055  49.178  1.00  0.00    -0.410 N 
HETATM   27  C18 UNL     1      19.867   6.213  49.570  1.00  0.00     0.143 C 
BRANCH  26  28
HETATM   28  C19 UNL     1      21.412   5.169  48.014  1.00  0.00     0.147 C 
BRANCH  28  29
HETATM   29  C20 UNL     1      20.626   5.437  46.750  1.00  0.00     0.290 C 
BRANCH  29  30
HETATM   30  N9  UNL     1      20.702   4.350  45.791  1.00  0.00     0.081 N 
HETATM   31  C21 UNL     1      21.923   3.604  46.106  1.00  0.00     0.309 C 
HETATM   32  C22 UNL     1      20.925   4.906  44.465  1.00  0.00     0.309 C 
ENDBRANCH  29  30
ENDBRANCH  28  29
ENDBRANCH  26  28
ENDBRANCH  25  26
ENDBRANCH  18  25
ENDBRANCH  17  18
ENDBRANCH   1  17
BRANCH  16  33
HETATM   33  N7  UNL     1      23.960   5.797  51.996  1.00  0.00     0.104 N 
HETATM   34  H19 UNL     1      23.067   6.111  52.457  1.00  0.00     0.315 HD
HETATM   35  H20 UNL     1      24.169   6.490  51.255  1.00  0.00     0.315 HD
ENDBRANCH  16  33
TORSDOF 10
ENDMDL
MODEL 7
REMARK VINA RESULT:      -6.5      2.110      4.938
REMARK  10 active torsions:
REMARK  status: ('A' for Active; 'I' for Inactive)
REMARK    1  A    between atoms: C2_2  and  C3_3 
REMARK       I    between atoms: C3_3  and  N1_5 
REMARK    2  A    between atoms: N1_5  and  C4_6 
REMARK    3  A    between atoms: C4_6  and  C5_7 
REMARK    4  A    between atoms: C4_6  and  C17_25 
REMARK    5  A    between atoms: C5_7  and  C6_8 
REMARK    6  A    between atoms: C16_23  and  N7_24 
REMARK    7  A    between atoms: C17_25  and  N8_26 
REMARK    8  A    between atoms: N8_26  and  C19_28 
REMARK    9  A    between atoms: C19_28  and  C20_29 
REMARK   10  A    between atoms: C20_29  and  N9_30 
ROOT
HETATM    1  C6  UNL     1      21.964   2.100  50.583  1.00  0.00     0.119 A 
HETATM    2  C7  UNL     1      22.781   1.363  51.571  1.00  0.00     0.080 A 
HETATM    3  N2  UNL     1      24.032   1.698  51.439  1.00  0.00    -0.158 NA
HETATM    4  N3  UNL     1      24.949   1.065  52.320  1.00  0.00    -0.184 N 
HETATM    5  C8  UNL     1      24.637   0.190  53.428  1.00  0.00     0.165 A 
HETATM    6  C9  UNL     1      25.428  -1.098  53.353  1.00  0.00     0.082 C 
HETATM    7  C10 UNL     1      26.875  -0.780  53.098  1.00  0.00     0.116 C 
HETATM    8  N4  UNL     1      27.319   0.301  52.539  1.00  0.00    -0.172 NA
HETATM    9  N5  UNL     1      26.346   1.250  52.136  1.00  0.00    -0.197 N 
HETATM   10  C11 UNL     1      26.822   2.468  51.497  1.00  0.00     0.204 C 
HETATM   11  C12 UNL     1      23.209  -0.124  53.473  1.00  0.00    -0.043 A 
HETATM   12  C13 UNL     1      22.597  -1.044  54.439  1.00  0.00     0.046 C 
HETATM   13  C14 UNL     1      22.398   0.429  52.618  1.00  0.00     0.012 A 
HETATM   14  C15 UNL     1      20.962   0.241  52.516  1.00  0.00     0.126 A 
HETATM   15  N6  UNL     1      20.228   0.796  51.676  1.00  0.00    -0.265 NA
HETATM   16  C16 UNL     1      20.536   1.691  50.658  1.00  0.00     0.352 A 
ENDROOT
BRANCH   1  17
HETATM   17  C5  UNL     1      22.210   3.557  50.613  1.00  0.00     0.015 C 
BRANCH  17  18
HETATM   18  C4  UNL     1      22.292   4.869  50.489  1.00  0.00     0.026 C 
BRANCH  18  19
HETATM   19  N1  UNL     1      23.488   5.582  50.211  1.00  0.00    -0.326 N 
HETATM   20  C3  UNL     1      24.628   5.193  49.475  1.00  0.00     0.244 C 
HETATM   21  O1  UNL     1      24.701   4.066  48.939  1.00  0.00    -0.268 OA
HETATM   22  H4  UNL     1      23.758   6.545  50.505  1.00  0.00     0.169 HD
BRANCH  20  23
HETATM   23  C2  UNL     1      25.876   5.853  49.148  1.00  0.00     0.064 C 
HETATM   24  C1  UNL     1      26.859   5.005  48.900  1.00  0.00     0.017 C 
ENDBRANCH  20  23
ENDBRANCH  18  19
BRANCH  18  25
HETATM   25  C17 UNL     1      21.211   5.879  50.573  1.00  0.00     0.173 C 
BRANCH  25  26
HETATM   26  N8  UNL     1      21.043   6.543  49.337  1.00  0.00    -0.410 N 
HETATM   27  C18 UNL     1      20.902   7.957  49.350  1.00  0.00     0.143 C 
BRANCH  26  28
HETATM   28  C19 UNL     1      20.297   5.827  48.353  1.00  0.00     0.147 C 
BRANCH  28  29
HETATM   29  C20 UNL     1      21.123   5.416  47.155  1.00  0.00     0.290 C 
BRANCH  29  30
HETATM   30  N9  UNL     1      21.126   3.982  46.930  1.00  0.00     0.081 N 
HETATM   31  C21 UNL     1      21.853   3.759  45.678  1.00  0.00     0.309 C 
HETATM   32  C22 UNL     1      19.764   3.544  46.664  1.00  0.00     0.309 C 
ENDBRANCH  29  30
ENDBRANCH  28  29
ENDBRANCH  26  28
ENDBRANCH  25  26
ENDBRANCH  18  25
ENDBRANCH  17  18
ENDBRANCH   1  17
BRANCH  16  33
HETATM   33  N7  UNL     1      20.064   1.153  49.374  1.00  0.00     0.104 N 
HETATM   34  H19 UNL     1      19.931   0.111  49.437  1.00  0.00     0.315 HD
HETATM   35  H20 UNL     1      20.831   1.312  48.697  1.00  0.00     0.315 HD
ENDBRANCH  16  33
TORSDOF 10
ENDMDL
MODEL 8
REMARK VINA RESULT:      -6.4      2.870      6.746
REMARK  10 active torsions:
REMARK  status: ('A' for Active; 'I' for Inactive)
REMARK    1  A    between atoms: C2_2  and  C3_3 
REMARK       I    between atoms: C3_3  and  N1_5 
REMARK    2  A    between atoms: N1_5  and  C4_6 
REMARK    3  A    between atoms: C4_6  and  C5_7 
REMARK    4  A    between atoms: C4_6  and  C17_25 
REMARK    5  A    between atoms: C5_7  and  C6_8 
REMARK    6  A    between atoms: C16_23  and  N7_24 
REMARK    7  A    between atoms: C17_25  and  N8_26 
REMARK    8  A    between atoms: N8_26  and  C19_28 
REMARK    9  A    between atoms: C19_28  and  C20_29 
REMARK   10  A    between atoms: C20_29  and  N9_30 
ROOT
HETATM    1  C6  UNL     1      25.559   3.728  49.454  1.00  0.00     0.119 A 
HETATM    2  C7  UNL     1      24.229   4.229  49.049  1.00  0.00     0.080 A 
HETATM    3  N2  UNL     1      23.397   3.232  48.956  1.00  0.00    -0.158 NA
HETATM    4  N3  UNL     1      22.070   3.556  48.567  1.00  0.00    -0.184 N 
HETATM    5  C8  UNL     1      21.506   4.875  48.387  1.00  0.00     0.165 A 
HETATM    6  C9  UNL     1      20.820   5.002  47.044  1.00  0.00     0.082 C 
HETATM    7  C10 UNL     1      19.916   3.820  46.832  1.00  0.00     0.116 C 
HETATM    8  N4  UNL     1      20.049   2.663  47.397  1.00  0.00    -0.172 NA
HETATM    9  N5  UNL     1      21.145   2.514  48.284  1.00  0.00    -0.197 N 
HETATM   10  C11 UNL     1      21.318   1.218  48.924  1.00  0.00     0.204 C 
HETATM   11  C12 UNL     1      22.531   5.912  48.506  1.00  0.00    -0.043 A 
HETATM   12  C13 UNL     1      22.281   7.344  48.301  1.00  0.00     0.046 C 
HETATM   13  C14 UNL     1      23.752   5.582  48.810  1.00  0.00     0.012 A 
HETATM   14  C15 UNL     1      24.890   6.469  48.974  1.00  0.00     0.126 A 
HETATM   15  N6  UNL     1      26.044   6.103  49.267  1.00  0.00    -0.265 NA
HETATM   16  C16 UNL     1      26.555   4.832  49.505  1.00  0.00     0.352 A 
ENDROOT
BRANCH   1  17
HETATM   17  C5  UNL     1      25.504   2.868  50.656  1.00  0.00     0.015 C 
BRANCH  17  18
HETATM   18  C4  UNL     1      25.373   2.262  51.822  1.00  0.00     0.026 C 
BRANCH  18  19
HETATM   19  N1  UNL     1      26.246   1.255  52.311  1.00  0.00    -0.326 N 
HETATM   20  C3  UNL     1      27.196   1.302  53.354  1.00  0.00     0.244 C 
HETATM   21  O1  UNL     1      27.378   2.346  54.019  1.00  0.00    -0.268 OA
HETATM   22  H4  UNL     1      26.354   0.269  51.986  1.00  0.00     0.169 HD
BRANCH  20  23
HETATM   23  C2  UNL     1      28.115   0.330  53.910  1.00  0.00     0.064 C 
HETATM   24  C1  UNL     1      29.373   0.737  53.887  1.00  0.00     0.017 C 
ENDBRANCH  20  23
ENDBRANCH  18  19
BRANCH  18  25
HETATM   25  C17 UNL     1      24.356   2.486  52.875  1.00  0.00     0.173 C 
BRANCH  25  26
HETATM   26  N8  UNL     1      23.367   3.394  52.438  1.00  0.00    -0.410 N 
HETATM   27  C18 UNL     1      23.501   4.760  52.807  1.00  0.00     0.143 C 
BRANCH  26  28
HETATM   28  C19 UNL     1      22.041   2.870  52.368  1.00  0.00     0.147 C 
BRANCH  28  29
HETATM   29  C20 UNL     1      21.011   3.894  51.947  1.00  0.00     0.290 C 
BRANCH  29  30
HETATM   30  N9  UNL     1      19.646   3.425  52.097  1.00  0.00     0.081 N 
HETATM   31  C21 UNL     1      19.707   1.961  52.079  1.00  0.00     0.309 C 
HETATM   32  C22 UNL     1      18.889   3.790  50.910  1.00  0.00     0.309 C 
ENDBRANCH  29  30
ENDBRANCH  28  29
ENDBRANCH  26  28
ENDBRANCH  25  26
ENDBRANCH  18  25
ENDBRANCH  17  18
ENDBRANCH   1  17
BRANCH  16  33
HETATM   33  N7  UNL     1      27.682   4.580  48.596  1.00  0.00     0.104 N 
HETATM   34  H19 UNL     1      27.773   3.550  48.396  1.00  0.00     0.315 HD
HETATM   35  H20 UNL     1      28.536   4.856  49.113  1.00  0.00     0.315 HD
ENDBRANCH  16  33
TORSDOF 10
ENDMDL
MODEL 9
REMARK VINA RESULT:      -6.4      2.639      5.288
REMARK  10 active torsions:
REMARK  status: ('A' for Active; 'I' for Inactive)
REMARK    1  A    between atoms: C2_2  and  C3_3 
REMARK       I    between atoms: C3_3  and  N1_5 
REMARK    2  A    between atoms: N1_5  and  C4_6 
REMARK    3  A    between atoms: C4_6  and  C5_7 
REMARK    4  A    between atoms: C4_6  and  C17_25 
REMARK    5  A    between atoms: C5_7  and  C6_8 
REMARK    6  A    between atoms: C16_23  and  N7_24 
REMARK    7  A    between atoms: C17_25  and  N8_26 
REMARK    8  A    between atoms: N8_26  and  C19_28 
REMARK    9  A    between atoms: C19_28  and  C20_29 
REMARK   10  A    between atoms: C20_29  and  N9_30 
ROOT
HETATM    1  C6  UNL     1      22.870   2.178  49.964  1.00  0.00     0.119 A 
HETATM    2  C7  UNL     1      22.821   1.537  51.295  1.00  0.00     0.080 A 
HETATM    3  N2  UNL     1      24.025   1.454  51.784  1.00  0.00    -0.158 NA
HETATM    4  N3  UNL     1      24.143   0.851  53.064  1.00  0.00    -0.184 N 
HETATM    5  C8  UNL     1      23.070   0.436  53.940  1.00  0.00     0.165 A 
HETATM    6  C9  UNL     1      23.257  -0.994  54.401  1.00  0.00     0.082 C 
HETATM    7  C10 UNL     1      24.667  -1.182  54.885  1.00  0.00     0.116 C 
HETATM    8  N4  UNL     1      25.685  -0.466  54.526  1.00  0.00    -0.172 NA
HETATM    9  N5  UNL     1      25.432   0.574  53.596  1.00  0.00    -0.197 N 
HETATM   10  C11 UNL     1      26.563   1.384  53.172  1.00  0.00     0.204 C 
HETATM   11  C12 UNL     1      21.769   0.566  53.285  1.00  0.00    -0.043 A 
HETATM   12  C13 UNL     1      20.497   0.156  53.892  1.00  0.00     0.046 C 
HETATM   13  C14 UNL     1      21.694   1.072  52.089  1.00  0.00     0.012 A 
HETATM   14  C15 UNL     1      20.498   1.280  51.292  1.00  0.00     0.126 A 
HETATM   15  N6  UNL     1      20.480   1.770  50.148  1.00  0.00    -0.265 NA
HETATM   16  C16 UNL     1      21.518   2.229  49.345  1.00  0.00     0.352 A 
ENDROOT
BRANCH   1  17
HETATM   17  C5  UNL     1      23.612   3.457  49.973  1.00  0.00     0.015 C 
BRANCH  17  18
HETATM   18  C4  UNL     1      24.257   4.590  50.184  1.00  0.00     0.026 C 
BRANCH  18  19
HETATM   19  N1  UNL     1      25.352   5.052  49.407  1.00  0.00    -0.326 N 
HETATM   20  C3  UNL     1      26.669   4.555  49.302  1.00  0.00     0.244 C 
HETATM   21  O1  UNL     1      27.036   3.551  49.952  1.00  0.00    -0.268 OA
HETATM   22  H4  UNL     1      25.392   5.864  48.753  1.00  0.00     0.169 HD
BRANCH  20  23
HETATM   23  C2  UNL     1      27.831   4.964  48.540  1.00  0.00     0.064 C 
HETATM   24  C1  UNL     1      27.864   6.266  48.309  1.00  0.00     0.017 C 
ENDBRANCH  20  23
ENDBRANCH  18  19
BRANCH  18  25
HETATM   25  C17 UNL     1      24.001   5.627  51.209  1.00  0.00     0.173 C 
BRANCH  25  26
HETATM   26  N8  UNL     1      23.123   6.618  50.716  1.00  0.00    -0.410 N 
HETATM   27  C18 UNL     1      22.163   6.238  49.739  1.00  0.00     0.143 C 
BRANCH  26  28
HETATM   28  C19 UNL     1      23.679   7.928  50.601  1.00  0.00     0.147 C 
BRANCH  28  29
HETATM   29  C20 UNL     1      23.632   8.479  49.193  1.00  0.00     0.290 C 
BRANCH  29  30
HETATM   30  N9  UNL     1      24.912   8.412  48.512  1.00  0.00     0.081 N 
HETATM   31  C21 UNL     1      25.387   9.791  48.385  1.00  0.00     0.309 C 
HETATM   32  C22 UNL     1      24.694   7.955  47.147  1.00  0.00     0.309 C 
ENDBRANCH  29  30
ENDBRANCH  28  29
ENDBRANCH  26  28
ENDBRANCH  25  26
ENDBRANCH  18  25
ENDBRANCH  17  18
ENDBRANCH   1  17
BRANCH  16  33
HETATM   33  N7  UNL     1      21.492   1.520  48.058  1.00  0.00     0.104 N 
HETATM   34  H19 UNL     1      20.908   2.046  47.357  1.00  0.00     0.315 HD
HETATM   35  H20 UNL     1      21.002   0.624  48.233  1.00  0.00     0.315 HD
ENDBRANCH  16  33
TORSDOF 10
ENDMDL
