MODEL 1
REMARK VINA RESULT:      -8.5      0.000      0.000
REMARK  7 active torsions:
REMARK  status: ('A' for Active; 'I' for Inactive)
REMARK    1  A    between atoms: O1_2  and  C2_3 
REMARK    2  A    between atoms: C6_9  and  N3_10 
REMARK    3  A    between atoms: N3_10  and  C7_11 
REMARK    4  A    between atoms: C15_21  and  O2_22 
REMARK    5  A    between atoms: O2_22  and  C16_23 
REMARK    6  A    between atoms: C16_23  and  C17_24 
REMARK    7  A    between atoms: C17_24  and  N4_25 
ROOT
HETATM    1  C2  UNL     1      22.020   0.553  53.669  1.00  0.00     0.103 A 
HETATM    2  C3  UNL     1      20.802   1.216  53.492  1.00  0.00     0.072 A 
HETATM    3  C4  UNL     1      20.740   2.171  52.511  1.00  0.00     0.075 A 
HETATM    4  N1  UNL     1      19.567   2.787  52.344  1.00  0.00    -0.241 NA
HETATM    5  C5  UNL     1      19.420   3.722  51.400  1.00  0.00     0.236 A 
HETATM    6  N2  UNL     1      20.474   4.008  50.644  1.00  0.00    -0.224 NA
HETATM    7  C6  UNL     1      21.691   3.462  50.717  1.00  0.00     0.142 A 
HETATM    8  C13 UNL     1      21.781   2.528  51.687  1.00  0.00     0.042 A 
HETATM    9  C14 UNL     1      22.927   1.816  51.947  1.00  0.00     0.057 A 
HETATM   10  C15 UNL     1      23.152   0.831  52.890  1.00  0.00     0.103 A 
ENDROOT
BRANCH   7  11
HETATM   11  N3  UNL     1      22.786   3.763  49.873  1.00  0.00    -0.340 N 
HETATM   12  H6  UNL     1      23.036   3.217  49.051  1.00  0.00     0.167 HD
BRANCH  11  13
HETATM   13  C7  UNL     1      23.702   4.842  50.021  1.00  0.00     0.035 A 
HETATM   14  C8  UNL     1      23.522   5.940  50.875  1.00  0.00     0.032 A 
HETATM   15  C9  UNL     1      24.437   6.938  50.995  1.00  0.00     0.046 A 
HETATM   16  C10 UNL     1      25.617   6.924  50.270  1.00  0.00     0.138 A 
HETATM   17  F1  UNL     1      26.542   7.912  50.379  1.00  0.00    -0.204 F 
HETATM   18  C11 UNL     1      25.872   5.861  49.395  1.00  0.00     0.074 A 
HETATM   19 CL1  UNL     1      27.361   5.827  48.463  1.00  0.00    -0.081 Cl
HETATM   20  C12 UNL     1      24.888   4.881  49.328  1.00  0.00     0.056 A 
ENDBRANCH  11  13
ENDBRANCH   7  11
BRANCH  10  21
HETATM   21  O2  UNL     1      24.177   0.160  53.160  1.00  0.00    -0.347 OA
BRANCH  21  22
HETATM   22  C16 UNL     1      25.247  -0.540  53.444  1.00  0.00     0.206 C 
BRANCH  22  23
HETATM   23  C17 UNL     1      26.390  -0.659  52.467  1.00  0.00     0.299 C 
BRANCH  23  24
HETATM   24  N4  UNL     1      27.532   0.127  52.677  1.00  0.00     0.094 N 
HETATM   25  C18 UNL     1      28.526  -0.444  53.509  1.00  0.00     0.298 C 
HETATM   26  C19 UNL     1      28.618   0.277  54.854  1.00  0.00     0.198 C 
HETATM   27  O3  UNL     1      28.837   1.621  54.755  1.00  0.00    -0.388 OA
HETATM   28  C20 UNL     1      28.383   2.228  53.603  1.00  0.00     0.198 C 
HETATM   29  C21 UNL     1      27.212   1.469  53.041  1.00  0.00     0.298 C 
ENDBRANCH  23  24
ENDBRANCH  22  23
ENDBRANCH  21  22
ENDBRANCH  10  21
BRANCH   1  30
HETATM   30  O1  UNL     1      22.033  -0.412  54.681  1.00  0.00    -0.353 OA
HETATM   31  C1  UNL     1      21.499  -1.688  54.532  1.00  0.00     0.210 C 
ENDBRANCH   1  30
TORSDOF 7
ENDMDL
MODEL 2
REMARK VINA RESULT:      -8.2      3.684      6.598
REMARK  7 active torsions:
REMARK  status: ('A' for Active; 'I' for Inactive)
REMARK    1  A    between atoms: O1_2  and  C2_3 
REMARK    2  A    between atoms: C6_9  and  N3_10 
REMARK    3  A    between atoms: N3_10  and  C7_11 
REMARK    4  A    between atoms: C15_21  and  O2_22 
REMARK    5  A    between atoms: O2_22  and  C16_23 
REMARK    6  A    between atoms: C16_23  and  C17_24 
REMARK    7  A    between atoms: C17_24  and  N4_25 
ROOT
HETATM    1  C2  UNL     1      19.950  -0.248  52.673  1.00  0.00     0.103 A 
HETATM    2  C3  UNL     1      20.357  -0.858  53.864  1.00  0.00     0.072 A 
HETATM    3  C4  UNL     1      21.698  -0.852  54.150  1.00  0.00     0.075 A 
HETATM    4  N1  UNL     1      22.072  -1.426  55.296  1.00  0.00    -0.241 NA
HETATM    5  C5  UNL     1      23.359  -1.450  55.655  1.00  0.00     0.236 A 
HETATM    6  N2  UNL     1      24.240  -0.886  54.836  1.00  0.00    -0.224 NA
HETATM    7  C6  UNL     1      23.987  -0.285  53.670  1.00  0.00     0.142 A 
HETATM    8  C13 UNL     1      22.673  -0.292  53.359  1.00  0.00     0.042 A 
HETATM    9  C14 UNL     1      22.164   0.277  52.217  1.00  0.00     0.057 A 
HETATM   10  C15 UNL     1      20.853   0.355  51.786  1.00  0.00     0.103 A 
ENDROOT
BRANCH   7  11
HETATM   11  N3  UNL     1      24.944   0.339  52.835  1.00  0.00    -0.340 N 
HETATM   12  H6  UNL     1      24.706   0.886  52.010  1.00  0.00     0.167 HD
BRANCH  11  13
HETATM   13  C7  UNL     1      26.358   0.308  52.992  1.00  0.00     0.035 A 
HETATM   14  C8  UNL     1      27.178   1.437  53.124  1.00  0.00     0.032 A 
HETATM   15  C9  UNL     1      28.525   1.354  53.290  1.00  0.00     0.046 A 
HETATM   16  C10 UNL     1      29.170   0.130  53.342  1.00  0.00     0.138 A 
HETATM   17  F1  UNL     1      30.514   0.030  53.510  1.00  0.00    -0.204 F 
HETATM   18  C11 UNL     1      28.420  -1.046  53.218  1.00  0.00     0.074 A 
HETATM   19 CL1  UNL     1      29.221  -2.609  53.276  1.00  0.00    -0.081 Cl
HETATM   20  C12 UNL     1      27.050  -0.877  53.049  1.00  0.00     0.056 A 
ENDBRANCH  11  13
ENDBRANCH   7  11
BRANCH  10  21
HETATM   21  O2  UNL     1      20.348   0.862  50.756  1.00  0.00    -0.347 OA
BRANCH  21  22
HETATM   22  C16 UNL     1      19.818   1.391  49.682  1.00  0.00     0.206 C 
BRANCH  22  23
HETATM   23  C17 UNL     1      20.612   2.305  48.782  1.00  0.00     0.299 C 
BRANCH  23  24
HETATM   24  N4  UNL     1      21.581   3.136  49.362  1.00  0.00     0.094 N 
HETATM   25  C18 UNL     1      21.464   4.515  49.067  1.00  0.00     0.298 C 
HETATM   26  C19 UNL     1      22.588   4.993  48.148  1.00  0.00     0.198 C 
HETATM   27  O3  UNL     1      23.844   4.744  48.623  1.00  0.00    -0.388 OA
HETATM   28  C20 UNL     1      23.970   3.664  49.470  1.00  0.00     0.198 C 
HETATM   29  C21 UNL     1      22.907   2.642  49.173  1.00  0.00     0.298 C 
ENDBRANCH  23  24
ENDBRANCH  22  23
ENDBRANCH  21  22
ENDBRANCH  10  21
BRANCH   1  30
HETATM   30  O1  UNL     1      18.574  -0.281  52.425  1.00  0.00    -0.353 OA
HETATM   31  C1  UNL     1      17.709  -1.192  53.023  1.00  0.00     0.210 C 
ENDBRANCH   1  30
TORSDOF 7
ENDMDL
MODEL 3
REMARK VINA RESULT:      -8.2      1.619      2.051
REMARK  7 active torsions:
REMARK  status: ('A' for Active; 'I' for Inactive)
REMARK    1  A    between atoms: O1_2  and  C2_3 
REMARK    2  A    between atoms: C6_9  and  N3_10 
REMARK    3  A    between atoms: N3_10  and  C7_11 
REMARK    4  A    between atoms: C15_21  and  O2_22 
REMARK    5  A    between atoms: O2_22  and  C16_23 
REMARK    6  A    between atoms: C16_23  and  C17_24 
REMARK    7  A    between atoms: C17_24  and  N4_25 
ROOT
HETATM    1  C2  UNL     1      22.160   0.287  52.918  1.00  0.00     0.103 A 
HETATM    2  C3  UNL     1      21.084   0.932  52.300  1.00  0.00     0.072 A 
HETATM    3  C4  UNL     1      21.277   2.226  51.886  1.00  0.00     0.075 A 
HETATM    4  N1  UNL     1      20.246   2.825  51.287  1.00  0.00    -0.241 NA
HETATM    5  C5  UNL     1      20.356   4.081  50.843  1.00  0.00     0.236 A 
HETATM    6  N2  UNL     1      21.519   4.700  51.019  1.00  0.00    -0.224 NA
HETATM    7  C6  UNL     1      22.615   4.205  51.602  1.00  0.00     0.142 A 
HETATM    8  C13 UNL     1      22.445   2.937  52.031  1.00  0.00     0.042 A 
HETATM    9  C14 UNL     1      23.432   2.209  52.649  1.00  0.00     0.057 A 
HETATM   10  C15 UNL     1      23.399   0.910  53.121  1.00  0.00     0.103 A 
ENDROOT
BRANCH   7  11
HETATM   11  N3  UNL     1      23.852   4.877  51.745  1.00  0.00    -0.340 N 
HETATM   12  H6  UNL     1      24.125   5.390  52.582  1.00  0.00     0.167 HD
BRANCH  11  13
HETATM   13  C7  UNL     1      24.894   4.955  50.779  1.00  0.00     0.035 A 
HETATM   14  C8  UNL     1      25.604   3.859  50.270  1.00  0.00     0.032 A 
HETATM   15  C9  UNL     1      26.580   3.985  49.332  1.00  0.00     0.046 A 
HETATM   16  C10 UNL     1      26.930   5.222  48.819  1.00  0.00     0.138 A 
HETATM   17  F1  UNL     1      27.901   5.365  47.880  1.00  0.00    -0.204 F 
HETATM   18  C11 UNL     1      26.266   6.367  49.276  1.00  0.00     0.074 A 
HETATM   19 CL1  UNL     1      26.699   7.947  48.639  1.00  0.00    -0.081 Cl
HETATM   20  C12 UNL     1      25.282   6.156  50.235  1.00  0.00     0.056 A 
ENDBRANCH  11  13
ENDBRANCH   7  11
BRANCH  10  21
HETATM   21  O2  UNL     1      24.273   0.212  53.689  1.00  0.00    -0.347 OA
BRANCH  21  22
HETATM   22  C16 UNL     1      25.184  -0.517  54.284  1.00  0.00     0.206 C 
BRANCH  22  23
HETATM   23  C17 UNL     1      26.479   0.086  54.768  1.00  0.00     0.299 C 
BRANCH  23  24
HETATM   24  N4  UNL     1      27.596   0.036  53.923  1.00  0.00     0.094 N 
HETATM   25  C18 UNL     1      27.526  -0.904  52.867  1.00  0.00     0.298 C 
HETATM   26  C19 UNL     1      28.490  -2.070  53.083  1.00  0.00     0.198 C 
HETATM   27  O3  UNL     1      29.792  -1.694  53.259  1.00  0.00    -0.388 OA
HETATM   28  C20 UNL     1      29.995  -0.438  53.790  1.00  0.00     0.198 C 
HETATM   29  C21 UNL     1      28.824  -0.038  54.646  1.00  0.00     0.298 C 
ENDBRANCH  23  24
ENDBRANCH  22  23
ENDBRANCH  21  22
ENDBRANCH  10  21
BRANCH   1  30
HETATM   30  O1  UNL     1      21.915  -1.029  53.321  1.00  0.00    -0.353 OA
HETATM   31  C1  UNL     1      21.306  -1.360  54.528  1.00  0.00     0.210 C 
ENDBRANCH   1  30
TORSDOF 7
ENDMDL
MODEL 4
REMARK VINA RESULT:      -8.1      3.591      6.493
REMARK  7 active torsions:
REMARK  status: ('A' for Active; 'I' for Inactive)
REMARK    1  A    between atoms: O1_2  and  C2_3 
REMARK    2  A    between atoms: C6_9  and  N3_10 
REMARK    3  A    between atoms: N3_10  and  C7_11 
REMARK    4  A    between atoms: C15_21  and  O2_22 
REMARK    5  A    between atoms: O2_22  and  C16_23 
REMARK    6  A    between atoms: C16_23  and  C17_24 
REMARK    7  A    between atoms: C17_24  and  N4_25 
ROOT
HETATM    1  C2  UNL     1      20.798   2.965  52.358  1.00  0.00     0.103 A 
HETATM    2  C3  UNL     1      20.719   1.686  52.917  1.00  0.00     0.072 A 
HETATM    3  C4  UNL     1      21.890   0.989  53.069  1.00  0.00     0.075 A 
HETATM    4  N1  UNL     1      21.801  -0.226  53.615  1.00  0.00    -0.241 NA
HETATM    5  C5  UNL     1      22.898  -0.965  53.810  1.00  0.00     0.236 A 
HETATM    6  N2  UNL     1      24.065  -0.447  53.443  1.00  0.00    -0.224 NA
HETATM    7  C6  UNL     1      24.277   0.750  52.889  1.00  0.00     0.142 A 
HETATM    8  C13 UNL     1      23.136   1.450  52.715  1.00  0.00     0.042 A 
HETATM    9  C14 UNL     1      23.098   2.713  52.177  1.00  0.00     0.057 A 
HETATM   10  C15 UNL     1      22.013   3.540  51.959  1.00  0.00     0.103 A 
ENDROOT
BRANCH   7  11
HETATM   11  N3  UNL     1      25.539   1.289  52.539  1.00  0.00    -0.340 N 
HETATM   12  H6  UNL     1      25.660   2.124  51.968  1.00  0.00     0.167 HD
BRANCH  11  13
HETATM   13  C7  UNL     1      26.814   0.777  52.907  1.00  0.00     0.035 A 
HETATM   14  C8  UNL     1      27.868   1.539  53.428  1.00  0.00     0.032 A 
HETATM   15  C9  UNL     1      29.064   0.998  53.783  1.00  0.00     0.046 A 
HETATM   16  C10 UNL     1      29.309  -0.358  53.648  1.00  0.00     0.138 A 
HETATM   17  F1  UNL     1      30.497  -0.916  53.999  1.00  0.00    -0.204 F 
HETATM   18  C11 UNL     1      28.305  -1.189  53.135  1.00  0.00     0.074 A 
HETATM   19 CL1  UNL     1      28.597  -2.912  52.953  1.00  0.00    -0.081 Cl
HETATM   20  C12 UNL     1      27.112  -0.560  52.795  1.00  0.00     0.056 A 
ENDBRANCH  11  13
ENDBRANCH   7  11
BRANCH  10  21
HETATM   21  O2  UNL     1      21.934   4.694  51.472  1.00  0.00    -0.347 OA
BRANCH  21  22
HETATM   22  C16 UNL     1      21.853   5.898  50.962  1.00  0.00     0.206 C 
BRANCH  22  23
HETATM   23  C17 UNL     1      22.942   6.451  50.078  1.00  0.00     0.299 C 
BRANCH  23  24
HETATM   24  N4  UNL     1      24.258   6.014  50.286  1.00  0.00     0.094 N 
HETATM   25  C18 UNL     1      25.225   7.033  50.460  1.00  0.00     0.298 C 
HETATM   26  C19 UNL     1      26.169   7.126  49.263  1.00  0.00     0.198 C 
HETATM   27  O3  UNL     1      26.805   5.956  48.959  1.00  0.00    -0.388 OA
HETATM   28  C20 UNL     1      26.148   4.798  49.313  1.00  0.00     0.198 C 
HETATM   29  C21 UNL     1      24.661   5.028  49.336  1.00  0.00     0.298 C 
ENDBRANCH  23  24
ENDBRANCH  22  23
ENDBRANCH  21  22
ENDBRANCH  10  21
BRANCH   1  30
HETATM   30  O1  UNL     1      19.578   3.635  52.224  1.00  0.00    -0.353 OA
HETATM   31  C1  UNL     1      18.640   3.330  51.243  1.00  0.00     0.210 C 
ENDBRANCH   1  30
TORSDOF 7
ENDMDL
MODEL 5
REMARK VINA RESULT:      -7.9      5.569      8.268
REMARK  7 active torsions:
REMARK  status: ('A' for Active; 'I' for Inactive)
REMARK    1  A    between atoms: O1_2  and  C2_3 
REMARK    2  A    between atoms: C6_9  and  N3_10 
REMARK    3  A    between atoms: N3_10  and  C7_11 
REMARK    4  A    between atoms: C15_21  and  O2_22 
REMARK    5  A    between atoms: O2_22  and  C16_23 
REMARK    6  A    between atoms: C16_23  and  C17_24 
REMARK    7  A    between atoms: C17_24  and  N4_25 
ROOT
HETATM    1  C2  UNL     1      27.995   6.753  48.037  1.00  0.00     0.103 A 
HETATM    2  C3  UNL     1      26.667   7.138  48.241  1.00  0.00     0.072 A 
HETATM    3  C4  UNL     1      25.808   6.199  48.751  1.00  0.00     0.075 A 
HETATM    4  N1  UNL     1      24.546   6.584  48.952  1.00  0.00    -0.241 NA
HETATM    5  C5  UNL     1      23.648   5.733  49.459  1.00  0.00     0.236 A 
HETATM    6  N2  UNL     1      24.060   4.504  49.751  1.00  0.00    -0.224 NA
HETATM    7  C6  UNL     1      25.290   4.006  49.594  1.00  0.00     0.142 A 
HETATM    8  C13 UNL     1      26.151   4.909  49.078  1.00  0.00     0.042 A 
HETATM    9  C14 UNL     1      27.476   4.638  48.839  1.00  0.00     0.057 A 
HETATM   10  C15 UNL     1      28.462   5.464  48.333  1.00  0.00     0.103 A 
ENDROOT
BRANCH   7  11
HETATM   11  N3  UNL     1      25.707   2.700  49.948  1.00  0.00    -0.340 N 
HETATM   12  H6  UNL     1      25.902   1.965  49.271  1.00  0.00     0.167 HD
BRANCH  11  13
HETATM   13  C7  UNL     1      25.915   2.202  51.264  1.00  0.00     0.035 A 
HETATM   14  C8  UNL     1      24.998   1.424  51.985  1.00  0.00     0.032 A 
HETATM   15  C9  UNL     1      25.253   0.956  53.235  1.00  0.00     0.046 A 
HETATM   16  C10 UNL     1      26.452   1.223  53.874  1.00  0.00     0.138 A 
HETATM   17  F1  UNL     1      26.723   0.761  55.123  1.00  0.00    -0.204 F 
HETATM   18  C11 UNL     1      27.421   1.993  53.220  1.00  0.00     0.074 A 
HETATM   19 CL1  UNL     1      28.947   2.347  54.015  1.00  0.00    -0.081 Cl
HETATM   20  C12 UNL     1      27.085   2.436  51.945  1.00  0.00     0.056 A 
ENDBRANCH  11  13
ENDBRANCH   7  11
BRANCH  10  21
HETATM   21  O2  UNL     1      29.677   5.258  48.099  1.00  0.00    -0.347 OA
BRANCH  21  22
HETATM   22  C16 UNL     1      30.945   5.045  47.853  1.00  0.00     0.206 C 
BRANCH  22  23
HETATM   23  C17 UNL     1      32.025   5.627  48.731  1.00  0.00     0.299 C 
BRANCH  23  24
HETATM   24  N4  UNL     1      33.220   6.047  48.130  1.00  0.00     0.094 N 
HETATM   25  C18 UNL     1      34.267   5.095  48.114  1.00  0.00     0.298 C 
HETATM   26  C19 UNL     1      35.402   5.487  49.059  1.00  0.00     0.198 C 
HETATM   27  O3  UNL     1      35.923   6.728  48.823  1.00  0.00    -0.388 OA
HETATM   28  C20 UNL     1      35.072   7.644  48.245  1.00  0.00     0.198 C 
HETATM   29  C21 UNL     1      33.645   7.327  48.598  1.00  0.00     0.298 C 
ENDBRANCH  23  24
ENDBRANCH  22  23
ENDBRANCH  21  22
ENDBRANCH  10  21
BRANCH   1  30
HETATM   30  O1  UNL     1      28.832   7.745  47.515  1.00  0.00    -0.353 OA
HETATM   31  C1  UNL     1      28.898   8.057  46.161  1.00  0.00     0.210 C 
ENDBRANCH   1  30
TORSDOF 7
ENDMDL
MODEL 6
REMARK VINA RESULT:      -7.9      2.367      5.783
REMARK  7 active torsions:
REMARK  status: ('A' for Active; 'I' for Inactive)
REMARK    1  A    between atoms: O1_2  and  C2_3 
REMARK    2  A    between atoms: C6_9  and  N3_10 
REMARK    3  A    between atoms: N3_10  and  C7_11 
REMARK    4  A    between atoms: C15_21  and  O2_22 
REMARK    5  A    between atoms: O2_22  and  C16_23 
REMARK    6  A    between atoms: C16_23  and  C17_24 
REMARK    7  A    between atoms: C17_24  and  N4_25 
ROOT
HETATM    1  C2  UNL     1      25.219  -0.498  54.705  1.00  0.00     0.103 A 
HETATM    2  C3  UNL     1      26.459   0.074  55.006  1.00  0.00     0.072 A 
HETATM    3  C4  UNL     1      27.008   0.919  54.075  1.00  0.00     0.075 A 
HETATM    4  N1  UNL     1      28.185   1.468  54.381  1.00  0.00    -0.241 NA
HETATM    5  C5  UNL     1      28.781   2.312  53.534  1.00  0.00     0.236 A 
HETATM    6  N2  UNL     1      28.161   2.580  52.390  1.00  0.00    -0.224 NA
HETATM    7  C6  UNL     1      26.987   2.094  51.976  1.00  0.00     0.142 A 
HETATM    8  C13 UNL     1      26.434   1.248  52.870  1.00  0.00     0.042 A 
HETATM    9  C14 UNL     1      25.222   0.632  52.677  1.00  0.00     0.057 A 
HETATM   10  C15 UNL     1      24.538  -0.238  53.507  1.00  0.00     0.103 A 
ENDROOT
BRANCH   7  11
HETATM   11  N3  UNL     1      26.334   2.426  50.765  1.00  0.00    -0.340 N 
HETATM   12  H6  UNL     1      25.862   1.747  50.171  1.00  0.00     0.167 HD
BRANCH  11  13
HETATM   13  C7  UNL     1      26.228   3.720  50.183  1.00  0.00     0.035 A 
HETATM   14  C8  UNL     1      27.079   4.228  49.192  1.00  0.00     0.032 A 
HETATM   15  C9  UNL     1      26.925   5.467  48.653  1.00  0.00     0.046 A 
HETATM   16  C10 UNL     1      25.902   6.307  49.059  1.00  0.00     0.138 A 
HETATM   17  F1  UNL     1      25.732   7.546  48.530  1.00  0.00    -0.204 F 
HETATM   18  C11 UNL     1      25.008   5.872  50.046  1.00  0.00     0.074 A 
HETATM   19 CL1  UNL     1      23.705   6.924  50.578  1.00  0.00    -0.081 Cl
HETATM   20  C12 UNL     1      25.233   4.594  50.548  1.00  0.00     0.056 A 
ENDBRANCH  11  13
ENDBRANCH   7  11
BRANCH  10  21
HETATM   21  O2  UNL     1      23.436  -0.821  53.370  1.00  0.00    -0.347 OA
BRANCH  21  22
HETATM   22  C16 UNL     1      22.286  -1.431  53.227  1.00  0.00     0.206 C 
BRANCH  22  23
HETATM   23  C17 UNL     1      21.126  -1.146  54.147  1.00  0.00     0.299 C 
BRANCH  23  24
HETATM   24  N4  UNL     1      20.241  -0.113  53.806  1.00  0.00     0.094 N 
HETATM   25  C18 UNL     1      19.117  -0.495  53.036  1.00  0.00     0.298 C 
HETATM   26  C19 UNL     1      19.207   0.033  51.605  1.00  0.00     0.198 C 
HETATM   27  O3  UNL     1      19.368   1.386  51.517  1.00  0.00    -0.388 OA
HETATM   28  C20 UNL     1      19.990   1.995  52.586  1.00  0.00     0.198 C 
HETATM   29  C21 UNL     1      20.914   1.027  53.272  1.00  0.00     0.298 C 
ENDBRANCH  23  24
ENDBRANCH  22  23
ENDBRANCH  21  22
ENDBRANCH  10  21
BRANCH   1  30
HETATM   30  O1  UNL     1      24.701  -1.352  55.684  1.00  0.00    -0.353 OA
HETATM   31  C1  UNL     1      24.926  -1.182  57.046  1.00  0.00     0.210 C 
ENDBRANCH   1  30
TORSDOF 7
ENDMDL
MODEL 7
REMARK VINA RESULT:      -7.7      4.462      7.870
REMARK  7 active torsions:
REMARK  status: ('A' for Active; 'I' for Inactive)
REMARK    1  A    between atoms: O1_2  and  C2_3 
REMARK    2  A    between atoms: C6_9  and  N3_10 
REMARK    3  A    between atoms: N3_10  and  C7_11 
REMARK    4  A    between atoms: C15_21  and  O2_22 
REMARK    5  A    between atoms: O2_22  and  C16_23 
REMARK    6  A    between atoms: C16_23  and  C17_24 
REMARK    7  A    between atoms: C17_24  and  N4_25 
ROOT
HETATM    1  C2  UNL     1      19.567  -0.025  52.493  1.00  0.00     0.103 A 
HETATM    2  C3  UNL     1      19.959  -0.714  53.645  1.00  0.00     0.072 A 
HETATM    3  C4  UNL     1      21.300  -0.755  53.930  1.00  0.00     0.075 A 
HETATM    4  N1  UNL     1      21.659  -1.405  55.040  1.00  0.00    -0.241 NA
HETATM    5  C5  UNL     1      22.945  -1.480  55.396  1.00  0.00     0.236 A 
HETATM    6  N2  UNL     1      23.839  -0.889  54.611  1.00  0.00    -0.224 NA
HETATM    7  C6  UNL     1      23.601  -0.215  53.483  1.00  0.00     0.142 A 
HETATM    8  C13 UNL     1      22.288  -0.173  53.173  1.00  0.00     0.042 A 
HETATM    9  C14 UNL     1      21.792   0.475  52.067  1.00  0.00     0.057 A 
HETATM   10  C15 UNL     1      20.484   0.608  51.642  1.00  0.00     0.103 A 
ENDROOT
BRANCH   7  11
HETATM   11  N3  UNL     1      24.573   0.435  52.685  1.00  0.00    -0.340 N 
HETATM   12  H6  UNL     1      24.357   0.940  51.827  1.00  0.00     0.167 HD
BRANCH  11  13
HETATM   13  C7  UNL     1      25.973   0.492  52.929  1.00  0.00     0.035 A 
HETATM   14  C8  UNL     1      26.695   1.660  53.208  1.00  0.00     0.032 A 
HETATM   15  C9  UNL     1      28.032   1.659  53.453  1.00  0.00     0.046 A 
HETATM   16  C10 UNL     1      28.766   0.485  53.442  1.00  0.00     0.138 A 
HETATM   17  F1  UNL     1      30.102   0.466  53.687  1.00  0.00    -0.204 F 
HETATM   18  C11 UNL     1      28.117  -0.726  53.172  1.00  0.00     0.074 A 
HETATM   19 CL1  UNL     1      29.030  -2.227  53.150  1.00  0.00    -0.081 Cl
HETATM   20  C12 UNL     1      26.750  -0.642  52.931  1.00  0.00     0.056 A 
ENDBRANCH  11  13
ENDBRANCH   7  11
BRANCH  10  21
HETATM   21  O2  UNL     1      19.991   1.187  50.644  1.00  0.00    -0.347 OA
BRANCH  21  22
HETATM   22  C16 UNL     1      19.474   1.789  49.603  1.00  0.00     0.206 C 
BRANCH  22  23
HETATM   23  C17 UNL     1      17.982   1.935  49.439  1.00  0.00     0.299 C 
BRANCH  23  24
HETATM   24  N4  UNL     1      17.229   2.373  50.538  1.00  0.00     0.094 N 
HETATM   25  C18 UNL     1      15.856   2.028  50.520  1.00  0.00     0.298 C 
HETATM   26  C19 UNL     1      14.970   3.251  50.291  1.00  0.00     0.198 C 
HETATM   27  O3  UNL     1      15.164   4.259  51.193  1.00  0.00    -0.388 OA
HETATM   28  C20 UNL     1      16.417   4.331  51.763  1.00  0.00     0.198 C 
HETATM   29  C21 UNL     1      17.447   3.752  50.833  1.00  0.00     0.298 C 
ENDBRANCH  23  24
ENDBRANCH  22  23
ENDBRANCH  21  22
ENDBRANCH  10  21
BRANCH   1  30
HETATM   30  O1  UNL     1      18.190  -0.011  52.245  1.00  0.00    -0.353 OA
HETATM   31  C1  UNL     1      17.357  -1.099  52.485  1.00  0.00     0.210 C 
ENDBRANCH   1  30
TORSDOF 7
ENDMDL
MODEL 8
REMARK VINA RESULT:      -7.7      5.560      8.289
REMARK  7 active torsions:
REMARK  status: ('A' for Active; 'I' for Inactive)
REMARK    1  A    between atoms: O1_2  and  C2_3 
REMARK    2  A    between atoms: C6_9  and  N3_10 
REMARK    3  A    between atoms: N3_10  and  C7_11 
REMARK    4  A    between atoms: C15_21  and  O2_22 
REMARK    5  A    between atoms: O2_22  and  C16_23 
REMARK    6  A    between atoms: C16_23  and  C17_24 
REMARK    7  A    between atoms: C17_24  and  N4_25 
ROOT
HETATM    1  C2  UNL     1      27.561   6.851  48.012  1.00  0.00     0.103 A 
HETATM    2  C3  UNL     1      26.206   6.954  48.340  1.00  0.00     0.072 A 
HETATM    3  C4  UNL     1      25.628   5.888  48.981  1.00  0.00     0.075 A 
HETATM    4  N1  UNL     1      24.338   6.005  49.300  1.00  0.00    -0.241 NA
HETATM    5  C5  UNL     1      23.703   5.017  49.937  1.00  0.00     0.236 A 
HETATM    6  N2  UNL     1      24.402   3.927  50.238  1.00  0.00    -0.224 NA
HETATM    7  C6  UNL     1      25.690   3.697  49.971  1.00  0.00     0.142 A 
HETATM    8  C13 UNL     1      26.278   4.727  49.326  1.00  0.00     0.042 A 
HETATM    9  C14 UNL     1      27.600   4.732  48.958  1.00  0.00     0.057 A 
HETATM   10  C15 UNL     1      28.327   5.715  48.312  1.00  0.00     0.103 A 
ENDROOT
BRANCH   7  11
HETATM   11  N3  UNL     1      26.417   2.538  50.335  1.00  0.00    -0.340 N 
HETATM   12  H6  UNL     1      26.991   2.002  49.687  1.00  0.00     0.167 HD
BRANCH  11  13
HETATM   13  C7  UNL     1      26.470   1.937  51.624  1.00  0.00     0.035 A 
HETATM   14  C8  UNL     1      27.508   2.107  52.550  1.00  0.00     0.032 A 
HETATM   15  C9  UNL     1      27.503   1.525  53.778  1.00  0.00     0.046 A 
HETATM   16  C10 UNL     1      26.453   0.721  54.190  1.00  0.00     0.138 A 
HETATM   17  F1  UNL     1      26.431   0.134  55.414  1.00  0.00    -0.204 F 
HETATM   18  C11 UNL     1      25.376   0.502  53.322  1.00  0.00     0.074 A 
HETATM   19 CL1  UNL     1      24.036  -0.517  53.823  1.00  0.00    -0.081 Cl
HETATM   20  C12 UNL     1      25.456   1.131  52.084  1.00  0.00     0.056 A 
ENDBRANCH  11  13
ENDBRANCH   7  11
BRANCH  10  21
HETATM   21  O2  UNL     1      29.529   5.761  47.958  1.00  0.00    -0.347 OA
BRANCH  21  22
HETATM   22  C16 UNL     1      30.785   5.810  47.589  1.00  0.00     0.206 C 
BRANCH  22  23
HETATM   23  C17 UNL     1      31.903   5.586  48.575  1.00  0.00     0.299 C 
BRANCH  23  24
HETATM   24  N4  UNL     1      32.864   4.607  48.285  1.00  0.00     0.094 N 
HETATM   25  C18 UNL     1      34.176   5.083  48.051  1.00  0.00     0.298 C 
HETATM   26  C19 UNL     1      34.576   4.938  46.584  1.00  0.00     0.198 C 
HETATM   27  O3  UNL     1      34.471   3.665  46.098  1.00  0.00    -0.388 OA
HETATM   28  C20 UNL     1      33.536   2.858  46.709  1.00  0.00     0.198 C 
HETATM   29  C21 UNL     1      32.423   3.690  47.284  1.00  0.00     0.298 C 
ENDBRANCH  23  24
ENDBRANCH  22  23
ENDBRANCH  21  22
ENDBRANCH  10  21
BRANCH   1  30
HETATM   30  O1  UNL     1      28.104   7.962  47.359  1.00  0.00    -0.353 OA
HETATM   31  C1  UNL     1      28.302   9.193  47.977  1.00  0.00     0.210 C 
ENDBRANCH   1  30
TORSDOF 7
ENDMDL
MODEL 9
REMARK VINA RESULT:      -7.7      3.704      5.964
REMARK  7 active torsions:
REMARK  status: ('A' for Active; 'I' for Inactive)
REMARK    1  A    between atoms: O1_2  and  C2_3 
REMARK    2  A    between atoms: C6_9  and  N3_10 
REMARK    3  A    between atoms: N3_10  and  C7_11 
REMARK    4  A    between atoms: C15_21  and  O2_22 
REMARK    5  A    between atoms: O2_22  and  C16_23 
REMARK    6  A    between atoms: C16_23  and  C17_24 
REMARK    7  A    between atoms: C17_24  and  N4_25 
ROOT
HETATM    1  C2  UNL     1      25.603   3.532  49.813  1.00  0.00     0.103 A 
HETATM    2  C3  UNL     1      24.613   4.049  48.971  1.00  0.00     0.072 A 
HETATM    3  C4  UNL     1      23.322   4.038  49.434  1.00  0.00     0.075 A 
HETATM    4  N1  UNL     1      22.389   4.546  48.626  1.00  0.00    -0.241 NA
HETATM    5  C5  UNL     1      21.108   4.585  49.007  1.00  0.00     0.236 A 
HETATM    6  N2  UNL     1      20.807   4.105  50.209  1.00  0.00    -0.224 NA
HETATM    7  C6  UNL     1      21.649   3.575  51.100  1.00  0.00     0.142 A 
HETATM    8  C13 UNL     1      22.925   3.560  50.660  1.00  0.00     0.042 A 
HETATM    9  C14 UNL     1      23.975   3.078  51.403  1.00  0.00     0.057 A 
HETATM   10  C15 UNL     1      25.319   3.016  51.085  1.00  0.00     0.103 A 
ENDROOT
BRANCH   7  11
HETATM   11  N3  UNL     1      21.303   3.102  52.389  1.00  0.00    -0.340 N 
HETATM   12  H6  UNL     1      21.380   3.661  53.237  1.00  0.00     0.167 HD
BRANCH  11  13
HETATM   13  C7  UNL     1      20.807   1.809  52.715  1.00  0.00     0.035 A 
HETATM   14  C8  UNL     1      19.602   1.267  52.248  1.00  0.00     0.032 A 
HETATM   15  C9  UNL     1      19.181   0.017  52.574  1.00  0.00     0.046 A 
HETATM   16  C10 UNL     1      19.933  -0.804  53.398  1.00  0.00     0.138 A 
HETATM   17  F1  UNL     1      19.528  -2.057  53.733  1.00  0.00    -0.204 F 
HETATM   18  C11 UNL     1      21.151  -0.336  53.906  1.00  0.00     0.074 A 
HETATM   19 CL1  UNL     1      22.118  -1.360  54.956  1.00  0.00    -0.081 Cl
HETATM   20  C12 UNL     1      21.511   0.953  53.527  1.00  0.00     0.056 A 
ENDBRANCH  11  13
ENDBRANCH   7  11
BRANCH  10  21
HETATM   21  O2  UNL     1      26.305   2.585  51.730  1.00  0.00    -0.347 OA
BRANCH  21  22
HETATM   22  C16 UNL     1      27.333   2.136  52.405  1.00  0.00     0.206 C 
BRANCH  22  23
HETATM   23  C17 UNL     1      27.189   1.647  53.824  1.00  0.00     0.299 C 
BRANCH  23  24
HETATM   24  N4  UNL     1      27.391   0.284  54.085  1.00  0.00     0.094 N 
HETATM   25  C18 UNL     1      28.602  -0.043  54.742  1.00  0.00     0.298 C 
HETATM   26  C19 UNL     1      29.568  -0.776  53.813  1.00  0.00     0.198 C 
HETATM   27  O3  UNL     1      29.050  -1.906  53.245  1.00  0.00    -0.388 OA
HETATM   28  C20 UNL     1      27.681  -1.931  53.083  1.00  0.00     0.198 C 
HETATM   29  C21 UNL     1      27.147  -0.532  52.940  1.00  0.00     0.298 C 
ENDBRANCH  23  24
ENDBRANCH  22  23
ENDBRANCH  21  22
ENDBRANCH  10  21
BRANCH   1  30
HETATM   30  O1  UNL     1      26.902   3.564  49.296  1.00  0.00    -0.353 OA
HETATM   31  C1  UNL     1      27.528   4.730  48.867  1.00  0.00     0.210 C 
ENDBRANCH   1  30
TORSDOF 7
ENDMDL
