MODEL 1
REMARK VINA RESULT:      -7.7      0.000      0.000
REMARK  6 active torsions:
REMARK  status: ('A' for Active; 'I' for Inactive)
REMARK    1  A    between atoms: C2_2  and  O1_3 
REMARK    2  A    between atoms: O1_3  and  C3_4 
REMARK    3  A    between atoms: C3_4  and  C4_5 
REMARK    4  A    between atoms: C9_12  and  N2_13 
REMARK    5  A    between atoms: C15_19  and  N3_20 
REMARK    6  A    between atoms: C20_26  and  O4_27 
ROOT
HETATM    1  C4  UNL     1      25.723  -0.380  53.767  1.00  0.00     0.049 C 
HETATM    2  O2  UNL     1      25.343  -1.148  54.927  1.00  0.00     0.000 OA
HETATM    3  C5  UNL     1      23.929  -1.249  55.160  1.00  0.00     0.002 C 
HETATM    4  C6  UNL     1      22.810  -0.935  54.554  1.00  0.00     0.032 C 
HETATM    5  C7  UNL     1      22.018  -0.403  53.504  1.00  0.00     0.063 A 
HETATM    6  N1  UNL     1      20.862  -0.763  53.857  1.00  0.00    -0.283 NA
HETATM    7  C8  UNL     1      19.619  -0.518  53.188  1.00  0.00     0.206 A 
HETATM    8  C9  UNL     1      19.795   0.259  51.959  1.00  0.00     0.030 A 
HETATM    9  C16 UNL     1      20.997   0.644  51.577  1.00  0.00     0.042 A 
HETATM   10  C17 UNL     1      22.226   0.357  52.301  1.00  0.00     0.016 A 
HETATM   11  C18 UNL     1      23.195   0.895  51.586  1.00  0.00     0.148 C 
HETATM   12  O3  UNL     1      24.554   0.937  51.740  1.00  0.00    -0.360 OA
HETATM   13  C19 UNL     1      25.252   1.782  52.670  1.00  0.00     0.206 C 
HETATM   14  C20 UNL     1      25.343   1.055  53.977  1.00  0.00     0.149 C 
ENDROOT
BRANCH   8  15
HETATM   15  N2  UNL     1      18.521   0.447  51.387  1.00  0.00    -0.358 N 
HETATM   16  C10 UNL     1      17.318  -0.328  51.621  1.00  0.00     0.152 C 
HETATM   17  C11 UNL     1      16.173   0.557  52.002  1.00  0.00    -0.005 C 
HETATM   18  C12 UNL     1      16.282   1.886  51.797  1.00  0.00    -0.082 C 
HETATM   19  C13 UNL     1      15.131   2.744  52.184  1.00  0.00     0.043 C 
HETATM   20  C14 UNL     1      17.478   2.567  51.208  1.00  0.00     0.080 C 
HETATM   21  C15 UNL     1      18.283   1.520  50.438  1.00  0.00     0.181 C 
BRANCH  21  22
HETATM   22  N3  UNL     1      17.502   1.144  49.307  1.00  0.00    -0.410 N 
HETATM   23  H22 UNL     1      16.570   0.761  49.522  1.00  0.00     0.151 HD
HETATM   24  H23 UNL     1      18.000   0.749  48.504  1.00  0.00     0.151 HD
ENDBRANCH  21  22
ENDBRANCH   8  15
BRANCH  14  25
HETATM   25  O4  UNL     1      26.043   1.695  54.940  1.00  0.00    -0.393 OA
HETATM   26  H29 UNL     1      26.791   2.258  54.609  1.00  0.00     0.210 HD
ENDBRANCH  14  25
BRANCH   1  27
HETATM   27  C3  UNL     1      27.181  -0.518  53.465  1.00  0.00     0.175 C 
BRANCH  27  28
HETATM   28  O1  UNL     1      28.047  -0.513  54.502  1.00  0.00    -0.391 OA
BRANCH  28  29
HETATM   29  C2  UNL     1      29.188   0.225  54.327  1.00  0.00     0.163 C 
HETATM   30  C1  UNL     1      30.145  -0.596  53.457  1.00  0.00     0.033 C 
ENDBRANCH  28  29
ENDBRANCH  27  28
ENDBRANCH   1  27
TORSDOF 6
ENDMDL
MODEL 2
REMARK VINA RESULT:      -7.5      5.133      9.124
REMARK  6 active torsions:
REMARK  status: ('A' for Active; 'I' for Inactive)
REMARK    1  A    between atoms: C2_2  and  O1_3 
REMARK    2  A    between atoms: O1_3  and  C3_4 
REMARK    3  A    between atoms: C3_4  and  C4_5 
REMARK    4  A    between atoms: C9_12  and  N2_13 
REMARK    5  A    between atoms: C15_19  and  N3_20 
REMARK    6  A    between atoms: C20_26  and  O4_27 
ROOT
HETATM    1  C4  UNL     1      22.640   5.896  49.256  1.00  0.00     0.049 C 
HETATM    2  O2  UNL     1      23.843   6.354  48.604  1.00  0.00     0.000 OA
HETATM    3  C5  UNL     1      25.057   5.727  49.046  1.00  0.00     0.002 C 
HETATM    4  C6  UNL     1      25.424   4.738  49.824  1.00  0.00     0.032 C 
HETATM    5  C7  UNL     1      25.215   3.650  50.710  1.00  0.00     0.063 A 
HETATM    6  N1  UNL     1      26.382   3.179  50.804  1.00  0.00    -0.283 NA
HETATM    7  C8  UNL     1      26.819   2.051  51.573  1.00  0.00     0.206 A 
HETATM    8  C9  UNL     1      25.722   1.430  52.317  1.00  0.00     0.030 A 
HETATM    9  C16 UNL     1      24.498   1.911  52.231  1.00  0.00     0.042 A 
HETATM   10  C17 UNL     1      24.116   3.061  51.425  1.00  0.00     0.016 A 
HETATM   11  C18 UNL     1      22.816   3.203  51.598  1.00  0.00     0.148 C 
HETATM   12  O3  UNL     1      21.898   4.082  51.090  1.00  0.00    -0.360 OA
HETATM   13  C19 UNL     1      21.744   5.447  51.512  1.00  0.00     0.206 C 
HETATM   14  C20 UNL     1      22.680   6.290  50.702  1.00  0.00     0.149 C 
ENDROOT
BRANCH   8  15
HETATM   15  N2  UNL     1      26.257   0.344  53.038  1.00  0.00    -0.358 N 
HETATM   16  C10 UNL     1      26.469  -1.013  52.573  1.00  0.00     0.152 C 
HETATM   17  C11 UNL     1      27.878  -1.452  52.820  1.00  0.00    -0.005 C 
HETATM   18  C12 UNL     1      28.649  -0.729  53.656  1.00  0.00    -0.082 C 
HETATM   19  C13 UNL     1      30.045  -1.185  53.884  1.00  0.00     0.043 C 
HETATM   20  C14 UNL     1      28.204   0.506  54.378  1.00  0.00     0.080 C 
HETATM   21  C15 UNL     1      26.676   0.502  54.420  1.00  0.00     0.181 C 
BRANCH  21  22
HETATM   22  N3  UNL     1      26.286  -0.565  55.279  1.00  0.00    -0.410 N 
HETATM   23  H22 UNL     1      26.141  -0.306  56.267  1.00  0.00     0.151 HD
HETATM   24  H23 UNL     1      26.683  -1.489  55.089  1.00  0.00     0.151 HD
ENDBRANCH  21  22
ENDBRANCH   8  15
BRANCH  14  25
HETATM   25  O4  UNL     1      22.597   7.619  50.933  1.00  0.00    -0.393 OA
HETATM   26  H29 UNL     1      21.686   8.003  50.849  1.00  0.00     0.210 HD
ENDBRANCH  14  25
BRANCH   1  27
HETATM   27  C3  UNL     1      21.411   6.419  48.582  1.00  0.00     0.175 C 
BRANCH  27  28
HETATM   28  O1  UNL     1      20.600   5.532  47.966  1.00  0.00    -0.391 OA
BRANCH  28  29
HETATM   29  C2  UNL     1      21.224   4.519  47.288  1.00  0.00     0.163 C 
HETATM   30  C1  UNL     1      21.565   5.036  45.887  1.00  0.00     0.033 C 
ENDBRANCH  28  29
ENDBRANCH  27  28
ENDBRANCH   1  27
TORSDOF 6
ENDMDL
MODEL 3
REMARK VINA RESULT:      -7.5      4.514      5.828
REMARK  6 active torsions:
REMARK  status: ('A' for Active; 'I' for Inactive)
REMARK    1  A    between atoms: C2_2  and  O1_3 
REMARK    2  A    between atoms: O1_3  and  C3_4 
REMARK    3  A    between atoms: C3_4  and  C4_5 
REMARK    4  A    between atoms: C9_12  and  N2_13 
REMARK    5  A    between atoms: C15_19  and  N3_20 
REMARK    6  A    between atoms: C20_26  and  O4_27 
ROOT
HETATM    1  C4  UNL     1      26.070  -0.152  52.830  1.00  0.00     0.049 C 
HETATM    2  O2  UNL     1      24.818  -0.572  53.411  1.00  0.00     0.000 OA
HETATM    3  C5  UNL     1      23.732   0.357  53.266  1.00  0.00     0.002 C 
HETATM    4  C6  UNL     1      23.480   1.482  52.642  1.00  0.00     0.032 C 
HETATM    5  C7  UNL     1      23.779   2.584  51.801  1.00  0.00     0.063 A 
HETATM    6  N1  UNL     1      22.648   3.133  51.698  1.00  0.00    -0.283 NA
HETATM    7  C8  UNL     1      22.304   4.313  50.963  1.00  0.00     0.206 A 
HETATM    8  C9  UNL     1      23.461   4.898  50.282  1.00  0.00     0.030 A 
HETATM    9  C16 UNL     1      24.649   4.337  50.380  1.00  0.00     0.042 A 
HETATM   10  C17 UNL     1      24.934   3.131  51.142  1.00  0.00     0.016 A 
HETATM   11  C18 UNL     1      26.220   2.895  50.970  1.00  0.00     0.148 C 
HETATM   12  O3  UNL     1      27.053   1.904  51.413  1.00  0.00    -0.360 OA
HETATM   13  C19 UNL     1      27.576   1.802  52.748  1.00  0.00     0.206 C 
HETATM   14  C20 UNL     1      26.586   1.042  53.575  1.00  0.00     0.149 C 
ENDROOT
BRANCH   8  15
HETATM   15  N2  UNL     1      23.016   6.048  49.599  1.00  0.00    -0.358 N 
HETATM   16  C10 UNL     1      22.488   7.272  50.169  1.00  0.00     0.152 C 
HETATM   17  C11 UNL     1      23.219   8.468  49.644  1.00  0.00    -0.005 C 
HETATM   18  C12 UNL     1      24.005   8.326  48.558  1.00  0.00    -0.082 C 
HETATM   19  C13 UNL     1      24.721   9.529  48.056  1.00  0.00     0.043 C 
HETATM   20  C14 UNL     1      24.214   7.044  47.814  1.00  0.00     0.080 C 
HETATM   21  C15 UNL     1      23.050   6.111  48.148  1.00  0.00     0.181 C 
BRANCH  21  22
HETATM   22  N3  UNL     1      21.883   6.673  47.555  1.00  0.00    -0.410 N 
HETATM   23  H22 UNL     1      21.801   6.545  46.535  1.00  0.00     0.151 HD
HETATM   24  H23 UNL     1      21.534   7.550  47.949  1.00  0.00     0.151 HD
ENDBRANCH  21  22
ENDBRANCH   8  15
BRANCH  14  25
HETATM   25  O4  UNL     1      26.971   0.798  54.847  1.00  0.00    -0.393 OA
HETATM   26  H29 UNL     1      26.738  -0.104  55.190  1.00  0.00     0.210 HD
ENDBRANCH  14  25
BRANCH   1  27
HETATM   27  C3  UNL     1      27.074  -1.261  52.817  1.00  0.00     0.175 C 
BRANCH  27  28
HETATM   28  O1  UNL     1      28.005  -1.284  53.796  1.00  0.00    -0.391 OA
BRANCH  28  29
HETATM   29  C2  UNL     1      29.259  -1.691  53.421  1.00  0.00     0.163 C 
HETATM   30  C1  UNL     1      30.198  -0.487  53.553  1.00  0.00     0.033 C 
ENDBRANCH  28  29
ENDBRANCH  27  28
ENDBRANCH   1  27
TORSDOF 6
ENDMDL
MODEL 4
REMARK VINA RESULT:      -7.4      1.732      2.409
REMARK  6 active torsions:
REMARK  status: ('A' for Active; 'I' for Inactive)
REMARK    1  A    between atoms: C2_2  and  O1_3 
REMARK    2  A    between atoms: O1_3  and  C3_4 
REMARK    3  A    between atoms: C3_4  and  C4_5 
REMARK    4  A    between atoms: C9_12  and  N2_13 
REMARK    5  A    between atoms: C15_19  and  N3_20 
REMARK    6  A    between atoms: C20_26  and  O4_27 
ROOT
HETATM    1  C4  UNL     1      26.246  -0.351  53.258  1.00  0.00     0.049 C 
HETATM    2  O2  UNL     1      25.612  -1.189  54.246  1.00  0.00     0.000 OA
HETATM    3  C5  UNL     1      24.221  -0.918  54.479  1.00  0.00     0.002 C 
HETATM    4  C6  UNL     1      23.267  -0.177  53.969  1.00  0.00     0.032 C 
HETATM    5  C7  UNL     1      22.708   0.760  53.063  1.00  0.00     0.063 A 
HETATM    6  N1  UNL     1      21.483   0.689  53.356  1.00  0.00    -0.283 NA
HETATM    7  C8  UNL     1      20.393   1.415  52.774  1.00  0.00     0.206 A 
HETATM    8  C9  UNL     1      20.838   2.334  51.724  1.00  0.00     0.030 A 
HETATM    9  C16 UNL     1      22.114   2.420  51.407  1.00  0.00     0.042 A 
HETATM   10  C17 UNL     1      23.177   1.649  52.035  1.00  0.00     0.016 A 
HETATM   11  C18 UNL     1      24.289   2.012  51.427  1.00  0.00     0.148 C 
HETATM   12  O3  UNL     1      25.594   1.625  51.562  1.00  0.00    -0.360 OA
HETATM   13  C19 UNL     1      26.467   2.027  52.630  1.00  0.00     0.206 C 
HETATM   14  C20 UNL     1      26.289   1.061  53.761  1.00  0.00     0.149 C 
ENDROOT
BRANCH   8  15
HETATM   15  N2  UNL     1      19.698   2.995  51.226  1.00  0.00    -0.358 N 
HETATM   16  C10 UNL     1      19.628   4.310  50.617  1.00  0.00     0.152 C 
HETATM   17  C11 UNL     1      18.938   4.251  49.290  1.00  0.00    -0.005 C 
HETATM   18  C12 UNL     1      18.235   3.146  48.970  1.00  0.00    -0.082 C 
HETATM   19  C13 UNL     1      17.559   3.112  47.646  1.00  0.00     0.043 C 
HETATM   20  C14 UNL     1      18.082   1.944  49.849  1.00  0.00     0.080 C 
HETATM   21  C15 UNL     1      18.389   2.368  51.285  1.00  0.00     0.181 C 
BRANCH  21  22
HETATM   22  N3  UNL     1      17.337   3.238  51.695  1.00  0.00    -0.410 N 
HETATM   23  H22 UNL     1      16.878   2.987  52.583  1.00  0.00     0.151 HD
HETATM   24  H23 UNL     1      16.751   3.644  50.960  1.00  0.00     0.151 HD
ENDBRANCH  21  22
ENDBRANCH   8  15
BRANCH  14  25
HETATM   25  O4  UNL     1      27.102   1.265  54.820  1.00  0.00    -0.393 OA
HETATM   26  H29 UNL     1      27.167   0.501  55.451  1.00  0.00     0.210 HD
ENDBRANCH  14  25
BRANCH   1  27
HETATM   27  C3  UNL     1      27.614  -0.845  52.908  1.00  0.00     0.175 C 
BRANCH  27  28
HETATM   28  O1  UNL     1      28.334  -1.455  53.874  1.00  0.00    -0.391 OA
BRANCH  28  29
HETATM   29  C2  UNL     1      29.696  -1.357  53.760  1.00  0.00     0.163 C 
HETATM   30  C1  UNL     1      30.033   0.103  53.442  1.00  0.00     0.033 C 
ENDBRANCH  28  29
ENDBRANCH  27  28
ENDBRANCH   1  27
TORSDOF 6
ENDMDL
MODEL 5
REMARK VINA RESULT:      -7.4      7.520      9.537
REMARK  6 active torsions:
REMARK  status: ('A' for Active; 'I' for Inactive)
REMARK    1  A    between atoms: C2_2  and  O1_3 
REMARK    2  A    between atoms: O1_3  and  C3_4 
REMARK    3  A    between atoms: C3_4  and  C4_5 
REMARK    4  A    between atoms: C9_12  and  N2_13 
REMARK    5  A    between atoms: C15_19  and  N3_20 
REMARK    6  A    between atoms: C20_26  and  O4_27 
ROOT
HETATM    1  C4  UNL     1      28.659   8.923  47.884  1.00  0.00     0.049 C 
HETATM    2  O2  UNL     1      29.503   7.911  47.295  1.00  0.00     0.000 OA
HETATM    3  C5  UNL     1      29.165   6.557  47.634  1.00  0.00     0.002 C 
HETATM    4  C6  UNL     1      28.211   5.911  48.260  1.00  0.00     0.032 C 
HETATM    5  C7  UNL     1      26.996   5.789  48.982  1.00  0.00     0.063 A 
HETATM    6  N1  UNL     1      26.842   4.537  48.999  1.00  0.00    -0.283 NA
HETATM    7  C8  UNL     1      25.776   3.788  49.595  1.00  0.00     0.206 A 
HETATM    8  C9  UNL     1      24.792   4.651  50.252  1.00  0.00     0.030 A 
HETATM    9  C16 UNL     1      24.940   5.961  50.244  1.00  0.00     0.042 A 
HETATM   10  C17 UNL     1      26.047   6.665  49.614  1.00  0.00     0.016 A 
HETATM   11  C18 UNL     1      25.815   7.947  49.814  1.00  0.00     0.148 C 
HETATM   12  O3  UNL     1      26.481   9.084  49.445  1.00  0.00    -0.360 OA
HETATM   13  C19 UNL     1      27.687   9.569  50.059  1.00  0.00     0.206 C 
HETATM   14  C20 UNL     1      28.850   8.923  49.371  1.00  0.00     0.149 C 
ENDROOT
BRANCH   8  15
HETATM   15  N2  UNL     1      23.798   3.820  50.805  1.00  0.00    -0.358 N 
HETATM   16  C10 UNL     1      23.140   2.686  50.185  1.00  0.00     0.152 C 
HETATM   17  C11 UNL     1      23.223   1.473  51.057  1.00  0.00    -0.005 C 
HETATM   18  C12 UNL     1      23.587   1.622  52.347  1.00  0.00    -0.082 C 
HETATM   19  C13 UNL     1      23.663   0.401  53.192  1.00  0.00     0.043 C 
HETATM   20  C14 UNL     1      23.921   2.928  52.997  1.00  0.00     0.080 C 
HETATM   21  C15 UNL     1      23.306   4.045  52.153  1.00  0.00     0.181 C 
BRANCH  21  22
HETATM   22  N3  UNL     1      21.892   3.938  52.290  1.00  0.00    -0.410 N 
HETATM   23  H22 UNL     1      21.513   2.982  52.225  1.00  0.00     0.151 HD
HETATM   24  H23 UNL     1      21.325   4.697  51.901  1.00  0.00     0.151 HD
ENDBRANCH  21  22
ENDBRANCH   8  15
BRANCH  14  25
HETATM   25  O4  UNL     1      30.065   9.337  49.790  1.00  0.00    -0.393 OA
HETATM   26  H29 UNL     1      30.375   8.931  50.641  1.00  0.00     0.210 HD
ENDBRANCH  14  25
BRANCH   1  27
HETATM   27  C3  UNL     1      28.927  10.275  47.301  1.00  0.00     0.175 C 
BRANCH  27  28
HETATM   28  O1  UNL     1      30.143  10.824  47.507  1.00  0.00    -0.391 OA
BRANCH  28  29
HETATM   29  C2  UNL     1      30.184  12.193  47.547  1.00  0.00     0.163 C 
HETATM   30  C1  UNL     1      30.404  12.609  49.006  1.00  0.00     0.033 C 
ENDBRANCH  28  29
ENDBRANCH  27  28
ENDBRANCH   1  27
TORSDOF 6
ENDMDL
MODEL 6
REMARK VINA RESULT:      -7.3      4.153      8.476
REMARK  6 active torsions:
REMARK  status: ('A' for Active; 'I' for Inactive)
REMARK    1  A    between atoms: C2_2  and  O1_3 
REMARK    2  A    between atoms: O1_3  and  C3_4 
REMARK    3  A    between atoms: C3_4  and  C4_5 
REMARK    4  A    between atoms: C9_12  and  N2_13 
REMARK    5  A    between atoms: C15_19  and  N3_20 
REMARK    6  A    between atoms: C20_26  and  O4_27 
ROOT
HETATM    1  C4  UNL     1      21.467   5.463  49.720  1.00  0.00     0.049 C 
HETATM    2  O2  UNL     1      20.247   5.103  50.399  1.00  0.00     0.000 OA
HETATM    3  C5  UNL     1      20.327   3.931  51.227  1.00  0.00     0.002 C 
HETATM    4  C6  UNL     1      21.243   3.103  51.668  1.00  0.00     0.032 C 
HETATM    5  C7  UNL     1      22.559   2.595  51.812  1.00  0.00     0.063 A 
HETATM    6  N1  UNL     1      22.388   1.710  52.695  1.00  0.00    -0.283 NA
HETATM    7  C8  UNL     1      23.369   0.837  53.270  1.00  0.00     0.206 A 
HETATM    8  C9  UNL     1      24.703   1.055  52.706  1.00  0.00     0.030 A 
HETATM    9  C16 UNL     1      24.897   1.975  51.783  1.00  0.00     0.042 A 
HETATM   10  C17 UNL     1      23.856   2.836  51.241  1.00  0.00     0.016 A 
HETATM   11  C18 UNL     1      24.458   3.618  50.366  1.00  0.00     0.148 C 
HETATM   12  O3  UNL     1      24.015   4.633  49.563  1.00  0.00    -0.360 OA
HETATM   13  C19 UNL     1      23.260   4.456  48.353  1.00  0.00     0.206 C 
HETATM   14  C20 UNL     1      21.808   4.401  48.717  1.00  0.00     0.149 C 
ENDROOT
BRANCH   8  15
HETATM   15  N2  UNL     1      25.582   0.149  53.332  1.00  0.00    -0.358 N 
HETATM   16  C10 UNL     1      25.984  -1.164  52.866  1.00  0.00     0.152 C 
HETATM   17  C11 UNL     1      27.475  -1.291  52.838  1.00  0.00    -0.005 C 
HETATM   18  C12 UNL     1      28.219  -0.374  53.487  1.00  0.00    -0.082 C 
HETATM   19  C13 UNL     1      29.698  -0.521  53.443  1.00  0.00     0.043 C 
HETATM   20  C14 UNL     1      27.669   0.789  54.253  1.00  0.00     0.080 C 
HETATM   21  C15 UNL     1      26.213   0.478  54.598  1.00  0.00     0.181 C 
BRANCH  21  22
HETATM   22  N3  UNL     1      26.228  -0.588  55.543  1.00  0.00    -0.410 N 
HETATM   23  H22 UNL     1      27.164  -0.899  55.843  1.00  0.00     0.151 HD
HETATM   24  H23 UNL     1      25.500  -1.302  55.455  1.00  0.00     0.151 HD
ENDBRANCH  21  22
ENDBRANCH   8  15
BRANCH  14  25
HETATM   25  O4  UNL     1      20.959   4.312  47.671  1.00  0.00    -0.393 OA
HETATM   26  H29 UNL     1      19.998   4.411  47.902  1.00  0.00     0.210 HD
ENDBRANCH  14  25
BRANCH   1  27
HETATM   27  C3  UNL     1      21.366   6.809  49.075  1.00  0.00     0.175 C 
BRANCH  27  28
HETATM   28  O1  UNL     1      22.382   7.679  49.262  1.00  0.00    -0.391 OA
BRANCH  28  29
HETATM   29  C2  UNL     1      22.886   7.747  50.534  1.00  0.00     0.163 C 
HETATM   30  C1  UNL     1      24.351   8.184  50.432  1.00  0.00     0.033 C 
ENDBRANCH  28  29
ENDBRANCH  27  28
ENDBRANCH   1  27
TORSDOF 6
ENDMDL
MODEL 7
REMARK VINA RESULT:      -7.2     11.247     14.221
REMARK  6 active torsions:
REMARK  status: ('A' for Active; 'I' for Inactive)
REMARK    1  A    between atoms: C2_2  and  O1_3 
REMARK    2  A    between atoms: O1_3  and  C3_4 
REMARK    3  A    between atoms: C3_4  and  C4_5 
REMARK    4  A    between atoms: C9_12  and  N2_13 
REMARK    5  A    between atoms: C15_19  and  N3_20 
REMARK    6  A    between atoms: C20_26  and  O4_27 
ROOT
HETATM    1  C4  UNL     1      28.036  10.468  48.704  1.00  0.00     0.049 C 
HETATM    2  O2  UNL     1      29.085  11.383  49.083  1.00  0.00     0.000 OA
HETATM    3  C5  UNL     1      30.400  10.811  49.158  1.00  0.00     0.002 C 
HETATM    4  C6  UNL     1      30.996   9.679  48.869  1.00  0.00     0.032 C 
HETATM    5  C7  UNL     1      31.067   8.346  48.390  1.00  0.00     0.063 A 
HETATM    6  N1  UNL     1      32.313   8.146  48.397  1.00  0.00    -0.283 NA
HETATM    7  C8  UNL     1      33.018   6.959  48.012  1.00  0.00     0.206 A 
HETATM    8  C9  UNL     1      32.112   5.893  47.580  1.00  0.00     0.030 A 
HETATM    9  C16 UNL     1      30.808   6.086  47.569  1.00  0.00     0.042 A 
HETATM   10  C17 UNL     1      30.152   7.321  47.968  1.00  0.00     0.016 A 
HETATM   11  C18 UNL     1      28.861   7.112  47.796  1.00  0.00     0.148 C 
HETATM   12  O3  UNL     1      27.757   7.899  47.976  1.00  0.00    -0.360 OA
HETATM   13  C19 UNL     1      27.173   8.220  49.250  1.00  0.00     0.206 C 
HETATM   14  C20 UNL     1      27.862   9.439  49.781  1.00  0.00     0.149 C 
ENDROOT
BRANCH   8  15
HETATM   15  N2  UNL     1      32.901   4.779  47.232  1.00  0.00    -0.358 N 
HETATM   16  C10 UNL     1      33.916   4.123  48.035  1.00  0.00     0.152 C 
HETATM   17  C11 UNL     1      33.662   2.650  48.124  1.00  0.00    -0.005 C 
HETATM   18  C12 UNL     1      32.783   2.089  47.270  1.00  0.00    -0.082 C 
HETATM   19  C13 UNL     1      32.547   0.625  47.379  1.00  0.00     0.043 C 
HETATM   20  C14 UNL     1      32.022   2.829  46.214  1.00  0.00     0.080 C 
HETATM   21  C15 UNL     1      32.757   4.140  45.935  1.00  0.00     0.181 C 
BRANCH  21  22
HETATM   22  N3  UNL     1      33.988   3.800  45.305  1.00  0.00    -0.410 N 
HETATM   23  H22 UNL     1      33.938   3.026  44.627  1.00  0.00     0.151 HD
HETATM   24  H23 UNL     1      34.840   3.878  45.868  1.00  0.00     0.151 HD
ENDBRANCH  21  22
ENDBRANCH   8  15
BRANCH  14  25
HETATM   25  O4  UNL     1      27.370   9.912  50.947  1.00  0.00    -0.393 OA
HETATM   26  H29 UNL     1      26.393   9.790  51.069  1.00  0.00     0.210 HD
ENDBRANCH  14  25
BRANCH   1  27
HETATM   27  C3  UNL     1      26.752  11.183  48.422  1.00  0.00     0.175 C 
BRANCH  27  28
HETATM   28  O1  UNL     1      26.613  12.443  48.890  1.00  0.00    -0.391 OA
BRANCH  28  29
HETATM   29  C2  UNL     1      26.226  13.384  47.972  1.00  0.00     0.163 C 
HETATM   30  C1  UNL     1      27.464  14.205  47.595  1.00  0.00     0.033 C 
ENDBRANCH  28  29
ENDBRANCH  27  28
ENDBRANCH   1  27
TORSDOF 6
ENDMDL
MODEL 8
REMARK VINA RESULT:      -7.2      8.881     12.767
REMARK  6 active torsions:
REMARK  status: ('A' for Active; 'I' for Inactive)
REMARK    1  A    between atoms: C2_2  and  O1_3 
REMARK    2  A    between atoms: O1_3  and  C3_4 
REMARK    3  A    between atoms: C3_4  and  C4_5 
REMARK    4  A    between atoms: C9_12  and  N2_13 
REMARK    5  A    between atoms: C15_19  and  N3_20 
REMARK    6  A    between atoms: C20_26  and  O4_27 
ROOT
HETATM    1  C4  UNL     1      24.600   7.688  49.453  1.00  0.00     0.049 C 
HETATM    2  O2  UNL     1      24.953   9.079  49.608  1.00  0.00     0.000 OA
HETATM    3  C5  UNL     1      26.353   9.374  49.482  1.00  0.00     0.002 C 
HETATM    4  C6  UNL     1      27.459   8.757  49.145  1.00  0.00     0.032 C 
HETATM    5  C7  UNL     1      28.240   7.653  48.720  1.00  0.00     0.063 A 
HETATM    6  N1  UNL     1      29.359   8.201  48.522  1.00  0.00    -0.283 NA
HETATM    7  C8  UNL     1      30.575   7.588  48.075  1.00  0.00     0.206 A 
HETATM    8  C9  UNL     1      30.420   6.150  47.850  1.00  0.00     0.030 A 
HETATM    9  C16 UNL     1      29.258   5.562  48.053  1.00  0.00     0.042 A 
HETATM   10  C17 UNL     1      28.054   6.243  48.505  1.00  0.00     0.016 A 
HETATM   11  C18 UNL     1      27.119   5.315  48.564  1.00  0.00     0.148 C 
HETATM   12  O3  UNL     1      25.792   5.348  48.896  1.00  0.00    -0.360 OA
HETATM   13  C19 UNL     1      25.280   5.448  50.236  1.00  0.00     0.206 C 
HETATM   14  C20 UNL     1      25.183   6.900  50.588  1.00  0.00     0.149 C 
ENDROOT
BRANCH   8  15
HETATM   15  N2  UNL     1      31.666   5.649  47.422  1.00  0.00    -0.358 N 
HETATM   16  C10 UNL     1      32.082   4.263  47.328  1.00  0.00     0.152 C 
HETATM   17  C11 UNL     1      32.620   3.954  45.967  1.00  0.00    -0.005 C 
HETATM   18  C12 UNL     1      32.932   4.975  45.143  1.00  0.00    -0.082 C 
HETATM   19  C13 UNL     1      33.464   4.642  43.795  1.00  0.00     0.043 C 
HETATM   20  C14 UNL     1      32.782   6.425  45.482  1.00  0.00     0.080 C 
HETATM   21  C15 UNL     1      32.726   6.550  47.004  1.00  0.00     0.181 C 
BRANCH  21  22
HETATM   22  N3  UNL     1      34.018   6.207  47.497  1.00  0.00    -0.410 N 
HETATM   23  H22 UNL     1      34.126   6.249  48.521  1.00  0.00     0.151 HD
HETATM   24  H23 UNL     1      34.824   6.479  46.927  1.00  0.00     0.151 HD
ENDBRANCH  21  22
ENDBRANCH   8  15
BRANCH  14  25
HETATM   25  O4  UNL     1      24.644   7.160  51.799  1.00  0.00    -0.393 OA
HETATM   26  H29 UNL     1      24.417   8.113  51.960  1.00  0.00     0.210 HD
ENDBRANCH  14  25
BRANCH   1  27
HETATM   27  C3  UNL     1      23.119   7.499  49.364  1.00  0.00     0.175 C 
BRANCH  27  28
HETATM   28  O1  UNL     1      22.351   8.043  50.333  1.00  0.00    -0.391 OA
BRANCH  28  29
HETATM   29  C2  UNL     1      21.246   7.320  50.699  1.00  0.00     0.163 C 
HETATM   30  C1  UNL     1      21.499   5.857  50.321  1.00  0.00     0.033 C 
ENDBRANCH  28  29
ENDBRANCH  27  28
ENDBRANCH   1  27
TORSDOF 6
ENDMDL
MODEL 9
REMARK VINA RESULT:      -6.6      8.279     12.451
REMARK  6 active torsions:
REMARK  status: ('A' for Active; 'I' for Inactive)
REMARK    1  A    between atoms: C2_2  and  O1_3 
REMARK    2  A    between atoms: O1_3  and  C3_4 
REMARK    3  A    between atoms: C3_4  and  C4_5 
REMARK    4  A    between atoms: C9_12  and  N2_13 
REMARK    5  A    between atoms: C15_19  and  N3_20 
REMARK    6  A    between atoms: C20_26  and  O4_27 
ROOT
HETATM    1  C4  UNL     1      24.197   5.640  49.101  1.00  0.00     0.049 C 
HETATM    2  O2  UNL     1      23.868   7.038  48.961  1.00  0.00     0.000 OA
HETATM    3  C5  UNL     1      24.988   7.915  48.759  1.00  0.00     0.002 C 
HETATM    4  C6  UNL     1      26.278   7.825  48.543  1.00  0.00     0.032 C 
HETATM    5  C7  UNL     1      27.507   7.145  48.344  1.00  0.00     0.063 A 
HETATM    6  N1  UNL     1      28.269   8.098  48.023  1.00  0.00    -0.283 NA
HETATM    7  C8  UNL     1      29.663   8.042  47.697  1.00  0.00     0.206 A 
HETATM    8  C9  UNL     1      30.195   6.679  47.776  1.00  0.00     0.030 A 
HETATM    9  C16 UNL     1      29.412   5.673  48.111  1.00  0.00     0.042 A 
HETATM   10  C17 UNL     1      27.997   5.796  48.427  1.00  0.00     0.016 A 
HETATM   11  C18 UNL     1      27.582   4.572  48.689  1.00  0.00     0.148 C 
HETATM   12  O3  UNL     1      26.361   4.054  49.024  1.00  0.00    -0.360 OA
HETATM   13  C19 UNL     1      25.749   4.157  50.321  1.00  0.00     0.206 C 
HETATM   14  C20 UNL     1      24.976   5.439  50.366  1.00  0.00     0.149 C 
ENDROOT
BRANCH   8  15
HETATM   15  N2  UNL     1      31.563   6.737  47.444  1.00  0.00    -0.358 N 
HETATM   16  C10 UNL     1      32.501   7.809  47.719  1.00  0.00     0.152 C 
HETATM   17  C11 UNL     1      33.721   7.292  48.414  1.00  0.00    -0.005 C 
HETATM   18  C12 UNL     1      33.947   5.963  48.429  1.00  0.00    -0.082 C 
HETATM   19  C13 UNL     1      35.166   5.474  49.127  1.00  0.00     0.043 C 
HETATM   20  C14 UNL     1      33.063   4.936  47.793  1.00  0.00     0.080 C 
HETATM   21  C15 UNL     1      32.205   5.640  46.741  1.00  0.00     0.181 C 
BRANCH  21  22
HETATM   22  N3  UNL     1      33.082   6.043  45.693  1.00  0.00    -0.410 N 
HETATM   23  H22 UNL     1      34.084   6.054  45.935  1.00  0.00     0.151 HD
HETATM   24  H23 UNL     1      32.744   6.767  45.053  1.00  0.00     0.151 HD
ENDBRANCH  21  22
ENDBRANCH   8  15
BRANCH  14  25
HETATM   25  O4  UNL     1      24.279   5.646  51.505  1.00  0.00    -0.393 OA
HETATM   26  H29 UNL     1      23.682   6.439  51.491  1.00  0.00     0.210 HD
ENDBRANCH  14  25
BRANCH   1  27
HETATM   27  C3  UNL     1      22.975   4.778  49.072  1.00  0.00     0.175 C 
BRANCH  27  28
HETATM   28  O1  UNL     1      22.314   4.656  47.900  1.00  0.00    -0.391 OA
BRANCH  28  29
HETATM   29  C2  UNL     1      21.777   3.423  47.640  1.00  0.00     0.163 C 
HETATM   30  C1  UNL     1      22.700   2.372  48.265  1.00  0.00     0.033 C 
ENDBRANCH  28  29
ENDBRANCH  27  28
ENDBRANCH   1  27
TORSDOF 6
ENDMDL
