MODEL 1
REMARK VINA RESULT:      -8.9      0.000      0.000
REMARK  4 active torsions:
REMARK  status: ('A' for Active; 'I' for Inactive)
REMARK    1  A    between atoms: C2_2  and  C3_3 
REMARK    2  A    between atoms: C3_3  and  C4_4 
REMARK    3  A    between atoms: C5_5  and  C6_6 
REMARK    4  A    between atoms: C15_17  and  O2_18 
ROOT
HETATM    1  C6  UNL     1      22.725  -0.651  53.568  1.00  0.00     0.044 A 
HETATM    2  C7  UNL     1      21.840  -0.191  52.729  1.00  0.00     0.007 A 
HETATM    3  C8  UNL     1      21.918   0.492  51.440  1.00  0.00     0.027 C 
HETATM    4  C9  UNL     1      20.803   0.626  50.769  1.00  0.00    -0.025 C 
HETATM    5  C10 UNL     1      19.664   0.557  51.385  1.00  0.00     0.014 C 
HETATM    6  C11 UNL     1      19.458  -0.123  52.670  1.00  0.00     0.031 C 
HETATM    7  C12 UNL     1      20.560  -0.498  53.343  1.00  0.00     0.046 A 
HETATM    8  N1  UNL     1      20.730  -1.162  54.585  1.00  0.00    -0.322 N 
HETATM    9  C13 UNL     1      22.141  -1.271  54.750  1.00  0.00     0.257 A 
HETATM   10  O1  UNL     1      22.639  -1.815  55.758  1.00  0.00    -0.267 OA
HETATM   11  H11 UNL     1      19.908  -1.457  55.164  1.00  0.00     0.169 HD
ENDROOT
BRANCH   1  12
HETATM   12  C5  UNL     1      24.161  -0.551  53.336  1.00  0.00     0.015 C 
HETATM   13  C4  UNL     1      25.024   0.341  53.792  1.00  0.00    -0.012 C 
BRANCH  13  14
HETATM   14  C3  UNL     1      26.466   0.527  53.620  1.00  0.00    -0.003 C 
HETATM   15  C14 UNL     1      26.825   1.944  53.291  1.00  0.00     0.019 C 
HETATM   16  C15 UNL     1      26.858   2.043  51.974  1.00  0.00     0.040 C 
HETATM   17  C16 UNL     1      26.537   0.753  51.307  1.00  0.00     0.065 C 
HETATM   18  C17 UNL     1      26.946  -0.211  52.419  1.00  0.00     0.024 C 
BRANCH  14  19
HETATM   19  C2  UNL     1      27.209   0.185  54.884  1.00  0.00     0.013 C 
HETATM   20  C1  UNL     1      28.685   0.177  54.729  1.00  0.00     0.006 C 
ENDBRANCH  14  19
BRANCH  16  21
HETATM   21  O2  UNL     1      27.162   3.229  51.345  1.00  0.00    -0.365 OA
HETATM   22  H13 UNL     1      27.730   3.957  51.729  1.00  0.00     0.217 HD
ENDBRANCH  16  21
ENDBRANCH  13  14
ENDBRANCH   1  12
TORSDOF 4
ENDMDL
MODEL 2
REMARK VINA RESULT:      -8.7      1.435      2.392
REMARK  4 active torsions:
REMARK  status: ('A' for Active; 'I' for Inactive)
REMARK    1  A    between atoms: C2_2  and  C3_3 
REMARK    2  A    between atoms: C3_3  and  C4_4 
REMARK    3  A    between atoms: C5_5  and  C6_6 
REMARK    4  A    between atoms: C15_17  and  O2_18 
ROOT
HETATM    1  C6  UNL     1      22.643  -0.572  53.477  1.00  0.00     0.044 A 
HETATM    2  C7  UNL     1      21.646  -0.206  52.722  1.00  0.00     0.007 A 
HETATM    3  C8  UNL     1      21.543   0.436  51.413  1.00  0.00     0.027 C 
HETATM    4  C9  UNL     1      20.359   0.467  50.858  1.00  0.00    -0.025 C 
HETATM    5  C10 UNL     1      19.297   0.339  51.589  1.00  0.00     0.014 C 
HETATM    6  C11 UNL     1      19.272  -0.308  52.907  1.00  0.00     0.031 C 
HETATM    7  C12 UNL     1      20.462  -0.580  53.473  1.00  0.00     0.046 A 
HETATM    8  N1  UNL     1      20.804  -1.186  54.709  1.00  0.00    -0.322 N 
HETATM    9  C13 UNL     1      22.229  -1.190  54.730  1.00  0.00     0.257 A 
HETATM   10  O1  UNL     1      22.866  -1.661  55.696  1.00  0.00    -0.267 OA
HETATM   11  H11 UNL     1      20.069  -1.518  55.378  1.00  0.00     0.169 HD
ENDROOT
BRANCH   1  12
HETATM   12  C5  UNL     1      24.038  -0.379  53.096  1.00  0.00     0.015 C 
HETATM   13  C4  UNL     1      24.741   0.738  53.028  1.00  0.00    -0.012 C 
BRANCH  13  14
HETATM   14  C3  UNL     1      26.127   1.034  52.660  1.00  0.00    -0.003 C 
HETATM   15  C14 UNL     1      26.918  -0.203  52.364  1.00  0.00     0.019 C 
HETATM   16  C15 UNL     1      27.506  -0.570  53.488  1.00  0.00     0.040 C 
HETATM   17  C16 UNL     1      27.185   0.348  54.614  1.00  0.00     0.065 C 
HETATM   18  C17 UNL     1      26.862   1.611  53.819  1.00  0.00     0.024 C 
BRANCH  14  19
HETATM   19  C2  UNL     1      26.187   1.881  51.417  1.00  0.00     0.013 C 
HETATM   20  C1  UNL     1      24.907   2.560  51.091  1.00  0.00     0.006 C 
ENDBRANCH  14  19
BRANCH  16  21
HETATM   21  O2  UNL     1      28.314  -1.682  53.553  1.00  0.00    -0.365 OA
HETATM   22  H13 UNL     1      28.707  -2.157  52.765  1.00  0.00     0.217 HD
ENDBRANCH  16  21
ENDBRANCH  13  14
ENDBRANCH   1  12
TORSDOF 4
ENDMDL
MODEL 3
REMARK VINA RESULT:      -8.1      3.353      6.269
REMARK  4 active torsions:
REMARK  status: ('A' for Active; 'I' for Inactive)
REMARK    1  A    between atoms: C2_2  and  C3_3 
REMARK    2  A    between atoms: C3_3  and  C4_4 
REMARK    3  A    between atoms: C5_5  and  C6_6 
REMARK    4  A    between atoms: C15_17  and  O2_18 
ROOT
HETATM    1  C6  UNL     1      27.414   0.901  53.516  1.00  0.00     0.044 A 
HETATM    2  C7  UNL     1      27.652  -0.363  53.306  1.00  0.00     0.007 A 
HETATM    3  C8  UNL     1      26.819  -1.511  52.955  1.00  0.00     0.027 C 
HETATM    4  C9  UNL     1      27.436  -2.613  52.615  1.00  0.00    -0.025 C 
HETATM    5  C10 UNL     1      28.664  -2.807  52.982  1.00  0.00     0.014 C 
HETATM    6  C11 UNL     1      29.602  -1.734  53.335  1.00  0.00     0.031 C 
HETATM    7  C12 UNL     1      29.084  -0.503  53.497  1.00  0.00     0.046 A 
HETATM    8  N1  UNL     1      29.684   0.739  53.830  1.00  0.00    -0.322 N 
HETATM    9  C13 UNL     1      28.606   1.671  53.848  1.00  0.00     0.257 A 
HETATM   10  O1  UNL     1      28.792   2.877  54.112  1.00  0.00    -0.267 OA
HETATM   11  H11 UNL     1      30.714   0.820  54.003  1.00  0.00     0.169 HD
ENDROOT
BRANCH   1  12
HETATM   12  C5  UNL     1      26.079   1.481  53.426  1.00  0.00     0.015 C 
HETATM   13  C4  UNL     1      25.139   1.283  52.518  1.00  0.00    -0.012 C 
BRANCH  13  14
HETATM   14  C3  UNL     1      23.785   1.811  52.339  1.00  0.00    -0.003 C 
HETATM   15  C14 UNL     1      23.312   1.707  50.922  1.00  0.00     0.019 C 
HETATM   16  C15 UNL     1      23.617   2.844  50.323  1.00  0.00     0.040 C 
HETATM   17  C16 UNL     1      24.301   3.794  51.242  1.00  0.00     0.065 C 
HETATM   18  C17 UNL     1      23.763   3.281  52.575  1.00  0.00     0.024 C 
BRANCH  14  19
HETATM   19  C2  UNL     1      22.793   1.044  53.173  1.00  0.00     0.013 C 
HETATM   20  C1  UNL     1      23.018  -0.423  53.178  1.00  0.00     0.006 C 
ENDBRANCH  14  19
BRANCH  16  21
HETATM   21  O2  UNL     1      23.313   3.070  49.000  1.00  0.00    -0.365 OA
HETATM   22  H13 UNL     1      22.843   3.879  48.646  1.00  0.00     0.217 HD
ENDBRANCH  16  21
ENDBRANCH  13  14
ENDBRANCH   1  12
TORSDOF 4
ENDMDL
MODEL 4
REMARK VINA RESULT:      -8.0      2.564      6.187
REMARK  4 active torsions:
REMARK  status: ('A' for Active; 'I' for Inactive)
REMARK    1  A    between atoms: C2_2  and  C3_3 
REMARK    2  A    between atoms: C3_3  and  C4_4 
REMARK    3  A    between atoms: C5_5  and  C6_6 
REMARK    4  A    between atoms: C15_17  and  O2_18 
ROOT
HETATM    1  C6  UNL     1      25.353   0.874  53.575  1.00  0.00     0.044 A 
HETATM    2  C7  UNL     1      26.616   1.180  53.683  1.00  0.00     0.007 A 
HETATM    3  C8  UNL     1      27.454   2.248  53.144  1.00  0.00     0.027 C 
HETATM    4  C9  UNL     1      28.660   2.365  53.637  1.00  0.00    -0.025 C 
HETATM    5  C10 UNL     1      29.218   1.356  54.228  1.00  0.00     0.014 C 
HETATM    6  C11 UNL     1      28.481   0.237  54.829  1.00  0.00     0.031 C 
HETATM    7  C12 UNL     1      27.168   0.154  54.550  1.00  0.00     0.046 A 
HETATM    8  N1  UNL     1      26.172  -0.773  54.950  1.00  0.00    -0.322 N 
HETATM    9  C13 UNL     1      24.977  -0.319  54.322  1.00  0.00     0.257 A 
HETATM   10  O1  UNL     1      23.893  -0.922  54.469  1.00  0.00    -0.267 OA
HETATM   11  H11 UNL     1      26.398  -1.581  55.579  1.00  0.00     0.169 HD
ENDROOT
BRANCH   1  12
HETATM   12  C5  UNL     1      24.414   1.658  52.781  1.00  0.00     0.015 C 
HETATM   13  C4  UNL     1      23.761   1.321  51.682  1.00  0.00    -0.012 C 
BRANCH  13  14
HETATM   14  C3  UNL     1      22.810   2.025  50.820  1.00  0.00    -0.003 C 
HETATM   15  C14 UNL     1      21.985   3.023  51.574  1.00  0.00     0.019 C 
HETATM   16  C15 UNL     1      20.878   2.409  51.952  1.00  0.00     0.040 C 
HETATM   17  C16 UNL     1      20.845   0.990  51.509  1.00  0.00     0.065 C 
HETATM   18  C17 UNL     1      21.778   1.084  50.304  1.00  0.00     0.024 C 
BRANCH  14  19
HETATM   19  C2  UNL     1      23.526   2.796  49.744  1.00  0.00     0.013 C 
HETATM   20  C1  UNL     1      22.848   2.756  48.424  1.00  0.00     0.006 C 
ENDBRANCH  14  19
BRANCH  16  21
HETATM   21  O2  UNL     1      19.900   3.058  52.672  1.00  0.00    -0.365 OA
HETATM   22  H13 UNL     1      20.065   3.699  53.421  1.00  0.00     0.217 HD
ENDBRANCH  16  21
ENDBRANCH  13  14
ENDBRANCH   1  12
TORSDOF 4
ENDMDL
MODEL 5
REMARK VINA RESULT:      -7.9      2.086      2.754
REMARK  4 active torsions:
REMARK  status: ('A' for Active; 'I' for Inactive)
REMARK    1  A    between atoms: C2_2  and  C3_3 
REMARK    2  A    between atoms: C3_3  and  C4_4 
REMARK    3  A    between atoms: C5_5  and  C6_6 
REMARK    4  A    between atoms: C15_17  and  O2_18 
ROOT
HETATM    1  C6  UNL     1      20.981  -0.436  52.945  1.00  0.00     0.044 A 
HETATM    2  C7  UNL     1      19.861  -0.209  52.318  1.00  0.00     0.007 A 
HETATM    3  C8  UNL     1      19.495   0.573  51.140  1.00  0.00     0.027 C 
HETATM    4  C9  UNL     1      18.288   0.404  50.665  1.00  0.00    -0.025 C 
HETATM    5  C10 UNL     1      17.354  -0.076  51.425  1.00  0.00     0.014 C 
HETATM    6  C11 UNL     1      17.599  -0.894  52.619  1.00  0.00     0.031 C 
HETATM    7  C12 UNL     1      18.866  -0.958  53.064  1.00  0.00     0.046 A 
HETATM    8  N1  UNL     1      19.450  -1.639  54.163  1.00  0.00    -0.322 N 
HETATM    9  C13 UNL     1      20.835  -1.309  54.102  1.00  0.00     0.257 A 
HETATM   10  O1  UNL     1      21.648  -1.752  54.940  1.00  0.00    -0.267 OA
HETATM   11  H11 UNL     1      18.873  -2.229  54.809  1.00  0.00     0.169 HD
ENDROOT
BRANCH   1  12
HETATM   12  C5  UNL     1      22.255   0.134  52.521  1.00  0.00     0.015 C 
HETATM   13  C4  UNL     1      22.879   1.213  52.963  1.00  0.00    -0.012 C 
BRANCH  13  14
HETATM   14  C3  UNL     1      24.143   1.861  52.608  1.00  0.00    -0.003 C 
HETATM   15  C14 UNL     1      24.309   3.194  53.271  1.00  0.00     0.019 C 
HETATM   16  C15 UNL     1      23.840   4.106  52.438  1.00  0.00     0.040 C 
HETATM   17  C16 UNL     1      23.329   3.504  51.178  1.00  0.00     0.065 C 
HETATM   18  C17 UNL     1      24.156   2.220  51.163  1.00  0.00     0.024 C 
BRANCH  14  19
HETATM   19  C2  UNL     1      25.318   1.025  53.040  1.00  0.00     0.013 C 
HETATM   20  C1  UNL     1      26.288   0.746  51.952  1.00  0.00     0.006 C 
ENDBRANCH  14  19
BRANCH  16  21
HETATM   21  O2  UNL     1      23.848   5.446  52.753  1.00  0.00    -0.365 OA
HETATM   22  H13 UNL     1      23.141   5.920  53.279  1.00  0.00     0.217 HD
ENDBRANCH  16  21
ENDBRANCH  13  14
ENDBRANCH   1  12
TORSDOF 4
ENDMDL
MODEL 6
REMARK VINA RESULT:      -7.8      2.623      6.497
REMARK  4 active torsions:
REMARK  status: ('A' for Active; 'I' for Inactive)
REMARK    1  A    between atoms: C2_2  and  C3_3 
REMARK    2  A    between atoms: C3_3  and  C4_4 
REMARK    3  A    between atoms: C5_5  and  C6_6 
REMARK    4  A    between atoms: C15_17  and  O2_18 
ROOT
HETATM    1  C6  UNL     1      25.470   1.380  52.360  1.00  0.00     0.044 A 
HETATM    2  C7  UNL     1      26.469   1.145  53.163  1.00  0.00     0.007 A 
HETATM    3  C8  UNL     1      26.710   0.177  54.230  1.00  0.00     0.027 C 
HETATM    4  C9  UNL     1      27.930   0.096  54.695  1.00  0.00    -0.025 C 
HETATM    5  C10 UNL     1      28.750   1.087  54.538  1.00  0.00     0.014 C 
HETATM    6  C11 UNL     1      28.625   2.107  53.489  1.00  0.00     0.031 C 
HETATM    7  C12 UNL     1      27.471   2.130  52.799  1.00  0.00     0.046 A 
HETATM    8  N1  UNL     1      27.018   2.960  51.741  1.00  0.00    -0.322 N 
HETATM    9  C13 UNL     1      25.709   2.485  51.440  1.00  0.00     0.257 A 
HETATM   10  O1  UNL     1      25.017   3.006  50.540  1.00  0.00    -0.267 OA
HETATM   11  H11 UNL     1      27.618   3.727  51.353  1.00  0.00     0.169 HD
ENDROOT
BRANCH   1  12
HETATM   12  C5  UNL     1      24.234   0.606  52.386  1.00  0.00     0.015 C 
HETATM   13  C4  UNL     1      23.188   0.723  53.187  1.00  0.00    -0.012 C 
BRANCH  13  14
HETATM   14  C3  UNL     1      21.917   0.004  53.293  1.00  0.00    -0.003 C 
HETATM   15  C14 UNL     1      21.296  -0.262  51.956  1.00  0.00     0.019 C 
HETATM   16  C15 UNL     1      20.476   0.741  51.700  1.00  0.00     0.040 C 
HETATM   17  C16 UNL     1      20.462   1.747  52.795  1.00  0.00     0.065 C 
HETATM   18  C17 UNL     1      20.892   0.855  53.957  1.00  0.00     0.024 C 
BRANCH  14  19
HETATM   19  C2  UNL     1      22.110  -1.339  53.945  1.00  0.00     0.013 C 
HETATM   20  C1  UNL     1      22.847  -1.282  55.232  1.00  0.00     0.006 C 
ENDBRANCH  14  19
BRANCH  16  21
HETATM   21  O2  UNL     1      19.743   0.797  50.536  1.00  0.00    -0.365 OA
HETATM   22  H13 UNL     1      18.745   0.755  50.480  1.00  0.00     0.217 HD
ENDBRANCH  16  21
ENDBRANCH  13  14
ENDBRANCH   1  12
TORSDOF 4
ENDMDL
MODEL 7
REMARK VINA RESULT:      -7.7      3.133      6.026
REMARK  4 active torsions:
REMARK  status: ('A' for Active; 'I' for Inactive)
REMARK    1  A    between atoms: C2_2  and  C3_3 
REMARK    2  A    between atoms: C3_3  and  C4_4 
REMARK    3  A    between atoms: C5_5  and  C6_6 
REMARK    4  A    between atoms: C15_17  and  O2_18 
ROOT
HETATM    1  C6  UNL     1      25.465   0.827  52.839  1.00  0.00     0.044 A 
HETATM    2  C7  UNL     1      26.678   1.089  53.237  1.00  0.00     0.007 A 
HETATM    3  C8  UNL     1      27.677   2.087  52.863  1.00  0.00     0.027 C 
HETATM    4  C9  UNL     1      28.733   2.188  53.629  1.00  0.00    -0.025 C 
HETATM    5  C10 UNL     1      29.077   1.197  54.391  1.00  0.00     0.014 C 
HETATM    6  C11 UNL     1      28.158   0.149  54.851  1.00  0.00     0.031 C 
HETATM    7  C12 UNL     1      26.948   0.100  54.264  1.00  0.00     0.046 A 
HETATM    8  N1  UNL     1      25.838  -0.760  54.457  1.00  0.00    -0.322 N 
HETATM    9  C13 UNL     1      24.856  -0.301  53.533  1.00  0.00     0.257 A 
HETATM   10  O1  UNL     1      23.738  -0.850  53.442  1.00  0.00    -0.267 OA
HETATM   11  H11 UNL     1      25.862  -1.534  55.164  1.00  0.00     0.169 HD
ENDROOT
BRANCH   1  12
HETATM   12  C5  UNL     1      24.789   1.594  51.800  1.00  0.00     0.015 C 
HETATM   13  C4  UNL     1      24.569   2.896  51.727  1.00  0.00    -0.012 C 
BRANCH  13  14
HETATM   14  C3  UNL     1      23.908   3.752  50.740  1.00  0.00    -0.003 C 
HETATM   15  C14 UNL     1      24.472   5.139  50.717  1.00  0.00     0.019 C 
HETATM   16  C15 UNL     1      23.744   5.871  51.541  1.00  0.00     0.040 C 
HETATM   17  C16 UNL     1      22.657   5.082  52.180  1.00  0.00     0.065 C 
HETATM   18  C17 UNL     1      22.489   3.991  51.125  1.00  0.00     0.024 C 
BRANCH  14  19
HETATM   19  C2  UNL     1      24.079   3.202  49.349  1.00  0.00     0.013 C 
HETATM   20  C1  UNL     1      22.840   2.617  48.778  1.00  0.00     0.006 C 
ENDBRANCH  14  19
BRANCH  16  21
HETATM   21  O2  UNL     1      24.006   7.207  51.746  1.00  0.00    -0.365 OA
HETATM   22  H13 UNL     1      24.067   7.652  52.640  1.00  0.00     0.217 HD
ENDBRANCH  16  21
ENDBRANCH  13  14
ENDBRANCH   1  12
TORSDOF 4
ENDMDL
MODEL 8
REMARK VINA RESULT:      -7.7      3.299      5.275
REMARK  4 active torsions:
REMARK  status: ('A' for Active; 'I' for Inactive)
REMARK    1  A    between atoms: C2_2  and  C3_3 
REMARK    2  A    between atoms: C3_3  and  C4_4 
REMARK    3  A    between atoms: C5_5  and  C6_6 
REMARK    4  A    between atoms: C15_17  and  O2_18 
ROOT
HETATM    1  C6  UNL     1      24.291   3.221  51.757  1.00  0.00     0.044 A 
HETATM    2  C7  UNL     1      25.093   3.688  50.842  1.00  0.00     0.007 A 
HETATM    3  C8  UNL     1      26.493   3.449  50.500  1.00  0.00     0.027 C 
HETATM    4  C9  UNL     1      26.923   3.948  49.369  1.00  0.00    -0.025 C 
HETATM    5  C10 UNL     1      26.293   4.937  48.817  1.00  0.00     0.014 C 
HETATM    6  C11 UNL     1      24.882   5.260  49.064  1.00  0.00     0.031 C 
HETATM    7  C12 UNL     1      24.283   4.626  50.087  1.00  0.00     0.046 A 
HETATM    8  N1  UNL     1      22.961   4.693  50.598  1.00  0.00    -0.322 N 
HETATM    9  C13 UNL     1      22.946   3.780  51.692  1.00  0.00     0.257 A 
HETATM   10  O1  UNL     1      21.916   3.595  52.373  1.00  0.00    -0.267 OA
HETATM   11  H11 UNL     1      22.241   5.322  50.170  1.00  0.00     0.169 HD
ENDROOT
BRANCH   1  12
HETATM   12  C5  UNL     1      24.706   2.233  52.746  1.00  0.00     0.015 C 
HETATM   13  C4  UNL     1      24.877   0.929  52.608  1.00  0.00    -0.012 C 
BRANCH  13  14
HETATM   14  C3  UNL     1      25.284  -0.135  53.527  1.00  0.00    -0.003 C 
HETATM   15  C14 UNL     1      26.143   0.372  54.645  1.00  0.00     0.019 C 
HETATM   16  C15 UNL     1      27.401   0.246  54.260  1.00  0.00     0.040 C 
HETATM   17  C16 UNL     1      27.513  -0.337  52.897  1.00  0.00     0.065 C 
HETATM   18  C17 UNL     1      26.190  -1.097  52.841  1.00  0.00     0.024 C 
BRANCH  14  19
HETATM   19  C2  UNL     1      24.087  -0.779  54.173  1.00  0.00     0.013 C 
HETATM   20  C1  UNL     1      22.893  -0.845  53.293  1.00  0.00     0.006 C 
ENDBRANCH  14  19
BRANCH  16  21
HETATM   21  O2  UNL     1      28.447   0.625  55.070  1.00  0.00    -0.365 OA
HETATM   22  H13 UNL     1      29.018   0.002  55.606  1.00  0.00     0.217 HD
ENDBRANCH  16  21
ENDBRANCH  13  14
ENDBRANCH   1  12
TORSDOF 4
ENDMDL
MODEL 9
REMARK VINA RESULT:      -7.7      2.991      4.837
REMARK  4 active torsions:
REMARK  status: ('A' for Active; 'I' for Inactive)
REMARK    1  A    between atoms: C2_2  and  C3_3 
REMARK    2  A    between atoms: C3_3  and  C4_4 
REMARK    3  A    between atoms: C5_5  and  C6_6 
REMARK    4  A    between atoms: C15_17  and  O2_18 
ROOT
HETATM    1  C6  UNL     1      25.722   0.484  52.833  1.00  0.00     0.044 A 
HETATM    2  C7  UNL     1      24.641   0.020  53.394  1.00  0.00     0.007 A 
HETATM    3  C8  UNL     1      23.218   0.088  53.071  1.00  0.00     0.027 C 
HETATM    4  C9  UNL     1      22.414  -0.682  53.758  1.00  0.00    -0.025 C 
HETATM    5  C10 UNL     1      22.783  -1.134  54.916  1.00  0.00     0.014 C 
HETATM    6  C11 UNL     1      24.181  -1.271  55.344  1.00  0.00     0.031 C 
HETATM    7  C12 UNL     1      25.114  -0.686  54.571  1.00  0.00     0.046 A 
HETATM    8  N1  UNL     1      26.526  -0.620  54.680  1.00  0.00    -0.322 N 
HETATM    9  C13 UNL     1      26.943   0.143  53.551  1.00  0.00     0.257 A 
HETATM   10  O1  UNL     1      28.149   0.393  53.343  1.00  0.00    -0.267 OA
HETATM   11  H11 UNL     1      27.035  -1.078  55.473  1.00  0.00     0.169 HD
ENDROOT
BRANCH   1  12
HETATM   12  C5  UNL     1      25.702   1.267  51.603  1.00  0.00     0.015 C 
HETATM   13  C4  UNL     1      25.378   2.537  51.423  1.00  0.00    -0.012 C 
BRANCH  13  14
HETATM   14  C3  UNL     1      25.325   3.404  50.245  1.00  0.00    -0.003 C 
HETATM   15  C14 UNL     1      25.053   4.834  50.599  1.00  0.00     0.019 C 
HETATM   16  C15 UNL     1      23.745   5.010  50.538  1.00  0.00     0.040 C 
HETATM   17  C16 UNL     1      23.030   3.765  50.151  1.00  0.00     0.065 C 
HETATM   18  C17 UNL     1      24.152   3.058  49.395  1.00  0.00     0.024 C 
BRANCH  14  19
HETATM   19  C2  UNL     1      26.637   3.394  49.508  1.00  0.00     0.013 C 
HETATM   20  C1  UNL     1      27.023   4.714  48.949  1.00  0.00     0.006 C 
ENDBRANCH  14  19
BRANCH  16  21
HETATM   21  O2  UNL     1      23.165   6.228  50.810  1.00  0.00    -0.365 OA
HETATM   22  H13 UNL     1      22.817   6.515  51.703  1.00  0.00     0.217 HD
ENDBRANCH  16  21
ENDBRANCH  13  14
ENDBRANCH   1  12
TORSDOF 4
ENDMDL
