MODEL 1
REMARK VINA RESULT:      -7.3      0.000      0.000
REMARK  5 active torsions:
REMARK  status: ('A' for Active; 'I' for Inactive)
REMARK    1  A    between atoms: C2_2  and  C3_3 
REMARK    2  A    between atoms: C6_7  and  N1_8 
REMARK    3  A    between atoms: N1_8  and  N2_9 
REMARK    4  A    between atoms: C7_10  and  C8_11 
REMARK    5  A    between atoms: C9_12  and  C10_13 
ROOT
HETATM    1  N2  UNL     1      27.884   4.639  48.889  1.00  0.00    -0.185 NA
HETATM    2  C7  UNL     1      26.649   4.439  49.127  1.00  0.00     0.139 C 
ENDROOT
BRANCH   1   3
HETATM    3  N1  UNL     1      28.369   5.727  48.160  1.00  0.00    -0.256 N 
HETATM    4  H7  UNL     1      27.703   6.312  47.603  1.00  0.00     0.191 HD
BRANCH   3   5
HETATM    5  C6  UNL     1      29.748   6.066  48.149  1.00  0.00     0.183 A 
HETATM    6  S1  UNL     1      30.417   7.749  48.114  1.00  0.00    -0.085 SA
HETATM    7  C5  UNL     1      32.168   7.246  48.109  1.00  0.00     0.142 A 
HETATM    8  C4  UNL     1      31.963   5.757  48.149  1.00  0.00     0.047 A 
HETATM    9  C3  UNL     1      33.052   5.003  48.169  1.00  0.00     0.027 C 
HETATM   10  N3  UNL     1      30.689   5.181  48.164  1.00  0.00    -0.227 NA
BRANCH   9  11
HETATM   11  C2  UNL     1      34.324   5.732  48.150  1.00  0.00    -0.008 C 
HETATM   12  C1  UNL     1      35.298   5.548  49.022  1.00  0.00     0.011 C 
ENDBRANCH   9  11
ENDBRANCH   3   5
ENDBRANCH   1   3
BRANCH   2  13
HETATM   13  C8  UNL     1      26.073   3.311  49.889  1.00  0.00     0.022 C 
HETATM   14  C9  UNL     1      26.700   2.815  50.922  1.00  0.00     0.015 C 
BRANCH  14  15
HETATM   15  C10 UNL     1      26.227   1.711  51.739  1.00  0.00    -0.014 C 
HETATM   16  C11 UNL     1      24.936   1.460  51.879  1.00  0.00     0.145 C 
HETATM   17  O1  UNL     1      24.295   0.451  52.616  1.00  0.00    -0.362 OA
HETATM   18  C12 UNL     1      24.805  -0.570  53.425  1.00  0.00     0.178 C 
HETATM   19  C13 UNL     1      26.065  -1.202  52.950  1.00  0.00     0.060 C 
HETATM   20  C14 UNL     1      27.238  -0.338  52.913  1.00  0.00    -0.081 C 
HETATM   21  C15 UNL     1      28.527  -0.814  53.489  1.00  0.00     0.043 C 
HETATM   22  C16 UNL     1      27.279   0.901  52.391  1.00  0.00     0.015 C 
ENDBRANCH  14  15
ENDBRANCH   2  13
TORSDOF 5
ENDMDL
MODEL 2
REMARK VINA RESULT:      -7.3      7.328     11.134
REMARK  5 active torsions:
REMARK  status: ('A' for Active; 'I' for Inactive)
REMARK    1  A    between atoms: C2_2  and  C3_3 
REMARK    2  A    between atoms: C6_7  and  N1_8 
REMARK    3  A    between atoms: N1_8  and  N2_9 
REMARK    4  A    between atoms: C7_10  and  C8_11 
REMARK    5  A    between atoms: C9_12  and  C10_13 
ROOT
HETATM    1  N2  UNL     1      21.341  -0.328  54.217  1.00  0.00    -0.185 NA
HETATM    2  C7  UNL     1      22.483  -0.675  53.772  1.00  0.00     0.139 C 
ENDROOT
BRANCH   1   3
HETATM    3  N1  UNL     1      20.213  -1.150  54.186  1.00  0.00    -0.256 N 
HETATM    4  H7  UNL     1      20.132  -1.940  54.869  1.00  0.00     0.191 HD
BRANCH   3   5
HETATM    5  C6  UNL     1      19.164  -0.947  53.250  1.00  0.00     0.183 A 
HETATM    6  S1  UNL     1      17.516  -1.694  53.338  1.00  0.00    -0.085 SA
HETATM    7  C5  UNL     1      16.888  -0.923  51.812  1.00  0.00     0.142 A 
HETATM    8  C4  UNL     1      18.119  -0.145  51.442  1.00  0.00     0.047 A 
HETATM    9  C3  UNL     1      18.055   0.592  50.343  1.00  0.00     0.027 C 
HETATM   10  N3  UNL     1      19.286  -0.186  52.214  1.00  0.00    -0.227 NA
BRANCH   9  11
HETATM   11  C2  UNL     1      16.777   0.546  49.628  1.00  0.00    -0.008 C 
HETATM   12  C1  UNL     1      16.084   1.615  49.278  1.00  0.00     0.011 C 
ENDBRANCH   9  11
ENDBRANCH   3   5
ENDBRANCH   1   3
BRANCH   2  13
HETATM   13  C8  UNL     1      23.713   0.146  53.774  1.00  0.00     0.022 C 
HETATM   14  C9  UNL     1      24.889  -0.416  53.688  1.00  0.00     0.015 C 
BRANCH  14  15
HETATM   15  C10 UNL     1      26.157   0.292  53.682  1.00  0.00    -0.014 C 
HETATM   16  C11 UNL     1      26.219   1.600  53.870  1.00  0.00     0.145 C 
HETATM   17  O1  UNL     1      27.336   2.450  53.898  1.00  0.00    -0.362 OA
HETATM   18  C12 UNL     1      28.700   2.190  53.726  1.00  0.00     0.178 C 
HETATM   19  C13 UNL     1      29.192   0.910  54.303  1.00  0.00     0.060 C 
HETATM   20  C14 UNL     1      28.655  -0.308  53.708  1.00  0.00    -0.081 C 
HETATM   21  C15 UNL     1      29.576  -1.415  53.329  1.00  0.00     0.043 C 
HETATM   22  C16 UNL     1      27.356  -0.544  53.454  1.00  0.00     0.015 C 
ENDBRANCH  14  15
ENDBRANCH   2  13
TORSDOF 5
ENDMDL
MODEL 3
REMARK VINA RESULT:      -7.2      1.356      2.328
REMARK  5 active torsions:
REMARK  status: ('A' for Active; 'I' for Inactive)
REMARK    1  A    between atoms: C2_2  and  C3_3 
REMARK    2  A    between atoms: C6_7  and  N1_8 
REMARK    3  A    between atoms: N1_8  and  N2_9 
REMARK    4  A    between atoms: C7_10  and  C8_11 
REMARK    5  A    between atoms: C9_12  and  C10_13 
ROOT
HETATM    1  N2  UNL     1      28.065   4.719  48.800  1.00  0.00    -0.185 NA
HETATM    2  C7  UNL     1      26.814   4.676  49.034  1.00  0.00     0.139 C 
ENDROOT
BRANCH   1   3
HETATM    3  N1  UNL     1      28.695   5.770  48.133  1.00  0.00    -0.256 N 
HETATM    4  H7  UNL     1      28.145   6.625  47.881  1.00  0.00     0.191 HD
BRANCH   3   5
HETATM    5  C6  UNL     1      30.071   5.717  47.781  1.00  0.00     0.183 A 
HETATM    6  S1  UNL     1      31.093   7.138  47.314  1.00  0.00    -0.085 SA
HETATM    7  C5  UNL     1      32.618   6.179  47.041  1.00  0.00     0.142 A 
HETATM    8  C4  UNL     1      32.080   4.818  47.385  1.00  0.00     0.047 A 
HETATM    9  C3  UNL     1      32.929   3.804  47.316  1.00  0.00     0.027 C 
HETATM   10  N3  UNL     1      30.748   4.617  47.761  1.00  0.00    -0.227 NA
BRANCH   9  11
HETATM   11  C2  UNL     1      34.294   4.151  46.909  1.00  0.00    -0.008 C 
HETATM   12  C1  UNL     1      35.051   3.398  46.133  1.00  0.00     0.011 C 
ENDBRANCH   9  11
ENDBRANCH   3   5
ENDBRANCH   1   3
BRANCH   2  13
HETATM   13  C8  UNL     1      26.087   3.594  49.732  1.00  0.00     0.022 C 
HETATM   14  C9  UNL     1      26.645   2.947  50.721  1.00  0.00     0.015 C 
BRANCH  14  15
HETATM   15  C10 UNL     1      26.024   1.871  51.474  1.00  0.00    -0.014 C 
HETATM   16  C11 UNL     1      26.743   1.035  52.204  1.00  0.00     0.145 C 
HETATM   17  O1  UNL     1      26.328  -0.052  52.990  1.00  0.00    -0.362 OA
HETATM   18  C12 UNL     1      25.059  -0.589  53.231  1.00  0.00     0.178 C 
HETATM   19  C13 UNL     1      23.952   0.398  53.348  1.00  0.00     0.060 C 
HETATM   20  C14 UNL     1      23.647   1.163  52.145  1.00  0.00    -0.081 C 
HETATM   21  C15 UNL     1      22.234   1.305  51.695  1.00  0.00     0.043 C 
HETATM   22  C16 UNL     1      24.551   1.781  51.364  1.00  0.00     0.015 C 
ENDBRANCH  14  15
ENDBRANCH   2  13
TORSDOF 5
ENDMDL
MODEL 4
REMARK VINA RESULT:      -7.0      8.041     13.059
REMARK  5 active torsions:
REMARK  status: ('A' for Active; 'I' for Inactive)
REMARK    1  A    between atoms: C2_2  and  C3_3 
REMARK    2  A    between atoms: C6_7  and  N1_8 
REMARK    3  A    between atoms: N1_8  and  N2_9 
REMARK    4  A    between atoms: C7_10  and  C8_11 
REMARK    5  A    between atoms: C9_12  and  C10_13 
ROOT
HETATM    1  N2  UNL     1      19.626  -0.654  52.931  1.00  0.00    -0.185 NA
HETATM    2  C7  UNL     1      20.363  -0.006  53.742  1.00  0.00     0.139 C 
ENDROOT
BRANCH   1   3
HETATM    3  N1  UNL     1      18.253  -0.443  52.790  1.00  0.00    -0.256 N 
HETATM    4  H7  UNL     1      17.894   0.528  52.638  1.00  0.00     0.191 HD
BRANCH   3   5
HETATM    5  C6  UNL     1      17.320  -1.514  52.847  1.00  0.00     0.183 A 
HETATM    6  S1  UNL     1      15.673  -1.516  52.094  1.00  0.00    -0.085 SA
HETATM    7  C5  UNL     1      15.221  -3.189  52.654  1.00  0.00     0.142 A 
HETATM    8  C4  UNL     1      16.496  -3.525  53.377  1.00  0.00     0.047 A 
HETATM    9  C3  UNL     1      16.569  -4.721  53.940  1.00  0.00     0.027 C 
HETATM   10  N3  UNL     1      17.564  -2.625  53.459  1.00  0.00    -0.227 NA
BRANCH   9  11
HETATM   11  C2  UNL     1      15.382  -5.566  53.780  1.00  0.00    -0.008 C 
HETATM   12  C1  UNL     1      15.052  -6.546  54.601  1.00  0.00     0.011 C 
ENDBRANCH   9  11
ENDBRANCH   3   5
ENDBRANCH   1   3
BRANCH   2  13
HETATM   13  C8  UNL     1      21.818  -0.182  53.939  1.00  0.00     0.022 C 
HETATM   14  C9  UNL     1      22.673   0.373  53.122  1.00  0.00     0.015 C 
BRANCH  14  15
HETATM   15  C10 UNL     1      24.118   0.266  53.222  1.00  0.00    -0.014 C 
HETATM   16  C11 UNL     1      24.691  -0.607  54.035  1.00  0.00     0.145 C 
HETATM   17  O1  UNL     1      26.053  -0.855  54.266  1.00  0.00    -0.362 OA
HETATM   18  C12 UNL     1      27.204  -0.264  53.734  1.00  0.00     0.178 C 
HETATM   19  C13 UNL     1      27.133   0.109  52.296  1.00  0.00     0.060 C 
HETATM   20  C14 UNL     1      26.170   1.147  51.952  1.00  0.00    -0.081 C 
HETATM   21  C15 UNL     1      26.582   2.281  51.077  1.00  0.00     0.043 C 
HETATM   22  C16 UNL     1      24.889   1.189  52.361  1.00  0.00     0.015 C 
ENDBRANCH  14  15
ENDBRANCH   2  13
TORSDOF 5
ENDMDL
MODEL 5
REMARK VINA RESULT:      -6.9      4.253      9.887
REMARK  5 active torsions:
REMARK  status: ('A' for Active; 'I' for Inactive)
REMARK    1  A    between atoms: C2_2  and  C3_3 
REMARK    2  A    between atoms: C6_7  and  N1_8 
REMARK    3  A    between atoms: N1_8  and  N2_9 
REMARK    4  A    between atoms: C7_10  and  C8_11 
REMARK    5  A    between atoms: C9_12  and  C10_13 
ROOT
HETATM    1  N2  UNL     1      26.845   2.951  50.856  1.00  0.00    -0.185 NA
HETATM    2  C7  UNL     1      26.549   3.347  49.683  1.00  0.00     0.139 C 
ENDROOT
BRANCH   1   3
HETATM    3  N1  UNL     1      26.541   1.679  51.347  1.00  0.00    -0.256 N 
HETATM    4  H7  UNL     1      27.244   0.909  51.253  1.00  0.00     0.191 HD
BRANCH   3   5
HETATM    5  C6  UNL     1      25.297   1.395  51.972  1.00  0.00     0.183 A 
HETATM    6  S1  UNL     1      23.791   2.390  51.820  1.00  0.00    -0.085 SA
HETATM    7  C5  UNL     1      22.770   1.337  52.901  1.00  0.00     0.142 A 
HETATM    8  C4  UNL     1      23.808   0.300  53.231  1.00  0.00     0.047 A 
HETATM    9  C3  UNL     1      23.431  -0.692  54.024  1.00  0.00     0.027 C 
HETATM   10  N3  UNL     1      25.113   0.367  52.732  1.00  0.00    -0.227 NA
BRANCH   9  11
HETATM   11  C2  UNL     1      22.038  -0.643  54.476  1.00  0.00    -0.008 C 
HETATM   12  C1  UNL     1      21.189  -1.649  54.373  1.00  0.00     0.011 C 
ENDBRANCH   9  11
ENDBRANCH   3   5
ENDBRANCH   1   3
BRANCH   2  13
HETATM   13  C8  UNL     1      26.841   4.676  49.105  1.00  0.00     0.022 C 
HETATM   14  C9  UNL     1      28.024   4.947  48.621  1.00  0.00     0.015 C 
BRANCH  14  15
HETATM   15  C10 UNL     1      28.418   6.216  48.032  1.00  0.00    -0.014 C 
HETATM   16  C11 UNL     1      29.688   6.509  47.810  1.00  0.00     0.145 C 
HETATM   17  O1  UNL     1      30.256   7.669  47.257  1.00  0.00    -0.362 OA
HETATM   18  C12 UNL     1      29.674   8.853  46.793  1.00  0.00     0.178 C 
HETATM   19  C13 UNL     1      28.377   8.700  46.082  1.00  0.00     0.060 C 
HETATM   20  C14 UNL     1      27.264   8.202  46.882  1.00  0.00    -0.081 C 
HETATM   21  C15 UNL     1      25.943   8.888  46.822  1.00  0.00     0.043 C 
HETATM   22  C16 UNL     1      27.310   7.140  47.706  1.00  0.00     0.015 C 
ENDBRANCH  14  15
ENDBRANCH   2  13
TORSDOF 5
ENDMDL
MODEL 6
REMARK VINA RESULT:      -6.9      2.532      2.980
REMARK  5 active torsions:
REMARK  status: ('A' for Active; 'I' for Inactive)
REMARK    1  A    between atoms: C2_2  and  C3_3 
REMARK    2  A    between atoms: C6_7  and  N1_8 
REMARK    3  A    between atoms: N1_8  and  N2_9 
REMARK    4  A    between atoms: C7_10  and  C8_11 
REMARK    5  A    between atoms: C9_12  and  C10_13 
ROOT
HETATM    1  N2  UNL     1      27.651   4.730  49.021  1.00  0.00    -0.185 NA
HETATM    2  C7  UNL     1      26.421   4.510  49.266  1.00  0.00     0.139 C 
ENDROOT
BRANCH   1   3
HETATM    3  N1  UNL     1      28.103   5.674  48.097  1.00  0.00    -0.256 N 
HETATM    4  H7  UNL     1      28.236   5.394  47.097  1.00  0.00     0.191 HD
BRANCH   3   5
HETATM    5  C6  UNL     1      28.391   7.013  48.474  1.00  0.00     0.183 A 
HETATM    6  S1  UNL     1      27.189   8.210  49.108  1.00  0.00    -0.085 SA
HETATM    7  C5  UNL     1      28.379   9.576  49.301  1.00  0.00     0.142 A 
HETATM    8  C4  UNL     1      29.610   8.855  48.827  1.00  0.00     0.047 A 
HETATM    9  C3  UNL     1      30.743   9.541  48.829  1.00  0.00     0.027 C 
HETATM   10  N3  UNL     1      29.575   7.523  48.400  1.00  0.00    -0.227 NA
BRANCH   9  11
HETATM   11  C2  UNL     1      30.641  10.925  49.299  1.00  0.00    -0.008 C 
HETATM   12  C1  UNL     1      31.054  11.974  48.612  1.00  0.00     0.011 C 
ENDBRANCH   9  11
ENDBRANCH   3   5
ENDBRANCH   1   3
BRANCH   2  13
HETATM   13  C8  UNL     1      25.879   3.527  50.229  1.00  0.00     0.022 C 
HETATM   14  C9  UNL     1      26.638   2.579  50.711  1.00  0.00     0.015 C 
BRANCH  14  15
HETATM   15  C10 UNL     1      26.210   1.564  51.658  1.00  0.00    -0.014 C 
HETATM   16  C11 UNL     1      24.929   1.353  51.912  1.00  0.00     0.145 C 
HETATM   17  O1  UNL     1      24.329   0.430  52.784  1.00  0.00    -0.362 OA
HETATM   18  C12 UNL     1      24.882  -0.523  53.646  1.00  0.00     0.178 C 
HETATM   19  C13 UNL     1      26.096  -1.221  53.144  1.00  0.00     0.060 C 
HETATM   20  C14 UNL     1      27.276  -0.389  52.944  1.00  0.00    -0.081 C 
HETATM   21  C15 UNL     1      28.596  -0.836  53.469  1.00  0.00     0.043 C 
HETATM   22  C16 UNL     1      27.296   0.796  52.307  1.00  0.00     0.015 C 
ENDBRANCH  14  15
ENDBRANCH   2  13
TORSDOF 5
ENDMDL
MODEL 7
REMARK VINA RESULT:      -6.8      7.468     11.428
REMARK  5 active torsions:
REMARK  status: ('A' for Active; 'I' for Inactive)
REMARK    1  A    between atoms: C2_2  and  C3_3 
REMARK    2  A    between atoms: C6_7  and  N1_8 
REMARK    3  A    between atoms: N1_8  and  N2_9 
REMARK    4  A    between atoms: C7_10  and  C8_11 
REMARK    5  A    between atoms: C9_12  and  C10_13 
ROOT
HETATM    1  N2  UNL     1      20.433  -1.102  53.781  1.00  0.00    -0.185 NA
HETATM    2  C7  UNL     1      21.233  -1.517  54.681  1.00  0.00     0.139 C 
ENDROOT
BRANCH   1   3
HETATM    3  N1  UNL     1      19.087  -1.464  53.711  1.00  0.00    -0.256 N 
HETATM    4  H7  UNL     1      18.704  -2.160  54.393  1.00  0.00     0.191 HD
BRANCH   3   5
HETATM    5  C6  UNL     1      18.213  -0.914  52.735  1.00  0.00     0.183 A 
HETATM    6  S1  UNL     1      16.416  -1.136  52.687  1.00  0.00    -0.085 SA
HETATM    7  C5  UNL     1      16.153  -0.145  51.181  1.00  0.00     0.142 A 
HETATM    8  C4  UNL     1      17.583   0.245  50.928  1.00  0.00     0.047 A 
HETATM    9  C3  UNL     1      17.816   1.015  49.877  1.00  0.00     0.027 C 
HETATM   10  N3  UNL     1      18.627  -0.179  51.757  1.00  0.00    -0.227 NA
BRANCH   9  11
HETATM   11  C2  UNL     1      16.635   1.387  49.093  1.00  0.00    -0.008 C 
HETATM   12  C1  UNL     1      16.414   2.597  48.613  1.00  0.00     0.011 C 
ENDBRANCH   9  11
ENDBRANCH   3   5
ENDBRANCH   1   3
BRANCH   2  13
HETATM   13  C8  UNL     1      22.666  -1.173  54.809  1.00  0.00     0.022 C 
HETATM   14  C9  UNL     1      23.298  -0.576  53.834  1.00  0.00     0.015 C 
BRANCH  14  15
HETATM   15  C10 UNL     1      24.699  -0.195  53.854  1.00  0.00    -0.014 C 
HETATM   16  C11 UNL     1      25.527  -0.657  54.776  1.00  0.00     0.145 C 
HETATM   17  O1  UNL     1      26.897  -0.406  54.957  1.00  0.00    -0.362 OA
HETATM   18  C12 UNL     1      27.791   0.402  54.246  1.00  0.00     0.178 C 
HETATM   19  C13 UNL     1      27.598   0.436  52.772  1.00  0.00     0.060 C 
HETATM   20  C14 UNL     1      26.348   1.021  52.304  1.00  0.00    -0.081 C 
HETATM   21  C15 UNL     1      26.365   2.027  51.205  1.00  0.00     0.043 C 
HETATM   22  C16 UNL     1      25.125   0.734  52.784  1.00  0.00     0.015 C 
ENDBRANCH  14  15
ENDBRANCH   2  13
TORSDOF 5
ENDMDL
MODEL 8
REMARK VINA RESULT:      -6.7      4.071      9.557
REMARK  5 active torsions:
REMARK  status: ('A' for Active; 'I' for Inactive)
REMARK    1  A    between atoms: C2_2  and  C3_3 
REMARK    2  A    between atoms: C6_7  and  N1_8 
REMARK    3  A    between atoms: N1_8  and  N2_9 
REMARK    4  A    between atoms: C7_10  and  C8_11 
REMARK    5  A    between atoms: C9_12  and  C10_13 
ROOT
HETATM    1  N2  UNL     1      25.491   4.114  50.483  1.00  0.00    -0.185 NA
HETATM    2  C7  UNL     1      26.018   4.000  49.329  1.00  0.00     0.139 C 
ENDROOT
BRANCH   1   3
HETATM    3  N1  UNL     1      24.220   3.635  50.807  1.00  0.00    -0.256 N 
HETATM    4  H7  UNL     1      23.374   4.143  50.460  1.00  0.00     0.191 HD
BRANCH   3   5
HETATM    5  C6  UNL     1      24.039   2.471  51.602  1.00  0.00     0.183 A 
HETATM    6  S1  UNL     1      25.268   1.764  52.729  1.00  0.00    -0.085 SA
HETATM    7  C5  UNL     1      24.230   0.369  53.273  1.00  0.00     0.142 A 
HETATM    8  C4  UNL     1      23.005   0.683  52.460  1.00  0.00     0.047 A 
HETATM    9  C3  UNL     1      21.972  -0.135  52.594  1.00  0.00     0.027 C 
HETATM   10  N3  UNL     1      22.946   1.783  51.598  1.00  0.00    -0.227 NA
BRANCH   9  11
HETATM   11  C2  UNL     1      22.166  -1.247  53.529  1.00  0.00    -0.008 C 
HETATM   12  C1  UNL     1      21.289  -1.604  54.449  1.00  0.00     0.011 C 
ENDBRANCH   9  11
ENDBRANCH   3   5
ENDBRANCH   1   3
BRANCH   2  13
HETATM   13  C8  UNL     1      27.354   4.485  48.922  1.00  0.00     0.022 C 
HETATM   14  C9  UNL     1      27.523   5.719  48.526  1.00  0.00     0.015 C 
BRANCH  14  15
HETATM   15  C10 UNL     1      28.787   6.298  48.105  1.00  0.00    -0.014 C 
HETATM   16  C11 UNL     1      28.937   7.605  47.969  1.00  0.00     0.145 C 
HETATM   17  O1  UNL     1      30.067   8.341  47.578  1.00  0.00    -0.362 OA
HETATM   18  C12 UNL     1      31.352   7.934  47.204  1.00  0.00     0.178 C 
HETATM   19  C13 UNL     1      31.906   6.774  47.952  1.00  0.00     0.060 C 
HETATM   20  C14 UNL     1      31.209   5.506  47.773  1.00  0.00    -0.081 C 
HETATM   21  C15 UNL     1      31.985   4.268  47.485  1.00  0.00     0.043 C 
HETATM   22  C16 UNL     1      29.877   5.332  47.843  1.00  0.00     0.015 C 
ENDBRANCH  14  15
ENDBRANCH   2  13
TORSDOF 5
ENDMDL
MODEL 9
REMARK VINA RESULT:      -6.7      4.381      8.562
REMARK  5 active torsions:
REMARK  status: ('A' for Active; 'I' for Inactive)
REMARK    1  A    between atoms: C2_2  and  C3_3 
REMARK    2  A    between atoms: C6_7  and  N1_8 
REMARK    3  A    between atoms: N1_8  and  N2_9 
REMARK    4  A    between atoms: C7_10  and  C8_11 
REMARK    5  A    between atoms: C9_12  and  C10_13 
ROOT
HETATM    1  N2  UNL     1      25.053   3.712  51.009  1.00  0.00    -0.185 NA
HETATM    2  C7  UNL     1      25.514   3.687  49.822  1.00  0.00     0.139 C 
ENDROOT
BRANCH   1   3
HETATM    3  N1  UNL     1      24.529   2.597  51.664  1.00  0.00    -0.256 N 
HETATM    4  H7  UNL     1      23.494   2.435  51.659  1.00  0.00     0.191 HD
BRANCH   3   5
HETATM    5  C6  UNL     1      25.361   1.667  52.344  1.00  0.00     0.183 A 
HETATM    6  S1  UNL     1      24.800   0.140  53.141  1.00  0.00    -0.085 SA
HETATM    7  C5  UNL     1      26.448  -0.374  53.723  1.00  0.00     0.142 A 
HETATM    8  C4  UNL     1      27.240   0.779  53.171  1.00  0.00     0.047 A 
HETATM    9  C3  UNL     1      28.547   0.765  53.384  1.00  0.00     0.027 C 
HETATM   10  N3  UNL     1      26.637   1.824  52.462  1.00  0.00    -0.227 NA
BRANCH   9  11
HETATM   11  C2  UNL     1      29.049  -0.386  54.139  1.00  0.00    -0.008 C 
HETATM   12  C1  UNL     1      30.008  -1.190  53.717  1.00  0.00     0.011 C 
ENDBRANCH   9  11
ENDBRANCH   3   5
ENDBRANCH   1   3
BRANCH   2  13
HETATM   13  C8  UNL     1      26.080   4.830  49.074  1.00  0.00     0.022 C 
HETATM   14  C9  UNL     1      27.372   4.952  48.923  1.00  0.00     0.015 C 
BRANCH  14  15
HETATM   15  C10 UNL     1      28.033   6.032  48.210  1.00  0.00    -0.014 C 
HETATM   16  C11 UNL     1      29.333   6.004  47.967  1.00  0.00     0.145 C 
HETATM   17  O1  UNL     1      30.139   6.942  47.302  1.00  0.00    -0.362 OA
HETATM   18  C12 UNL     1      29.833   8.174  46.714  1.00  0.00     0.178 C 
HETATM   19  C13 UNL     1      28.523   8.248  46.014  1.00  0.00     0.060 C 
HETATM   20  C14 UNL     1      27.340   8.100  46.853  1.00  0.00    -0.081 C 
HETATM   21  C15 UNL     1      26.208   9.059  46.715  1.00  0.00     0.043 C 
HETATM   22  C16 UNL     1      27.158   7.145  47.783  1.00  0.00     0.015 C 
ENDBRANCH  14  15
ENDBRANCH   2  13
TORSDOF 5
ENDMDL
