MODEL 1
REMARK VINA RESULT:      -7.7      0.000      0.000
REMARK  6 active torsions:
REMARK  status: ('A' for Active; 'I' for Inactive)
REMARK    1  A    between atoms: C2_2  and  C3_4 
REMARK    2  A    between atoms: C8_12  and  C9_13 
REMARK    3  A    between atoms: C9_13  and  C10_14 
REMARK    4  A    between atoms: C10_14  and  C11_15 
REMARK    5  A    between atoms: C14_20  and  C15_21 
REMARK    6  A    between atoms: C15_21  and  O3_23 
ROOT
HETATM    1  C3  UNL     1      23.153   3.275  49.818  1.00  0.00     0.074 C 
HETATM    2  C4  UNL     1      22.529   3.110  51.029  1.00  0.00     0.023 C 
HETATM    3  C5  UNL     1      21.502   3.935  51.640  1.00  0.00     0.033 C 
HETATM    4  C6  UNL     1      21.380   5.246  51.323  1.00  0.00     0.094 C 
HETATM    5  N1  UNL     1      22.302   6.115  50.591  1.00  0.00    -0.318 N 
HETATM    6  C7  UNL     1      23.586   5.678  50.048  1.00  0.00     0.331 C 
HETATM    7  O1  UNL     1      24.103   6.756  49.739  1.00  0.00    -0.246 OA
HETATM    8  N2  UNL     1      24.147   4.329  49.895  1.00  0.00    -0.266 N 
HETATM    9  C8  UNL     1      25.583   4.592  49.938  1.00  0.00     0.020 C 
HETATM   10  C12 UNL     1      26.437   3.572  50.258  1.00  0.00     0.025 C 
HETATM   11  C13 UNL     1      26.084   2.200  50.544  1.00  0.00     0.198 C 
HETATM   12  O2  UNL     1      26.364   1.732  51.791  1.00  0.00    -0.373 OA
HETATM   13  C14 UNL     1      25.998   0.401  51.991  1.00  0.00     0.211 C 
HETATM   14  C18 UNL     1      24.721   0.303  52.796  1.00  0.00     0.070 A 
HETATM   15  C19 UNL     1      23.886   1.226  52.281  1.00  0.00     0.062 A 
HETATM   16  C20 UNL     1      22.832   2.036  51.997  1.00  0.00     0.072 A 
HETATM   17  N3  UNL     1      21.988   1.560  52.938  1.00  0.00    -0.241 NA
HETATM   18  C21 UNL     1      22.520   0.542  53.716  1.00  0.00     0.234 A 
HETATM   19  N4  UNL     1      23.739  -0.014  53.649  1.00  0.00    -0.244 NA
HETATM   20  H5  UNL     1      21.920   7.081  50.511  1.00  0.00     0.170 HD
ENDROOT
BRANCH   9  21
HETATM   21  C9  UNL     1      26.150   5.898  49.568  1.00  0.00     0.065 C 
BRANCH  21  22
HETATM   22  C10 UNL     1      27.270   5.785  48.579  1.00  0.00     0.098 C 
BRANCH  22  23
HETATM   23  C11 UNL     1      27.898   6.816  48.016  1.00  0.00     0.361 C 
HETATM   24  F1  UNL     1      28.537   7.655  47.102  1.00  0.00    -0.461 F 
ENDBRANCH  22  23
ENDBRANCH  21  22
ENDBRANCH   9  21
BRANCH   1  25
HETATM   25  C2  UNL     1      22.881   2.533  48.594  1.00  0.00     0.037 A 
HETATM   26  C1  UNL     1      22.588   1.930  47.459  1.00  0.00     0.155 A 
HETATM   27 CL1  UNL     1      21.868   3.441  47.492  1.00  0.00    -0.179 Cl
ENDBRANCH   1  25
BRANCH  13  28
HETATM   28  C15 UNL     1      27.067  -0.324  52.644  1.00  0.00     0.126 C 
HETATM   29  C16 UNL     1      27.168  -1.642  52.698  1.00  0.00     0.047 C 
BRANCH  28  30
HETATM   30  O3  UNL     1      28.024   0.492  53.238  1.00  0.00    -0.379 OA
HETATM   31  C17 UNL     1      28.593   0.232  54.504  1.00  0.00     0.202 C 
ENDBRANCH  28  30
ENDBRANCH  13  28
TORSDOF 6
ENDMDL
MODEL 2
REMARK VINA RESULT:      -7.7      4.015      6.281
REMARK  6 active torsions:
REMARK  status: ('A' for Active; 'I' for Inactive)
REMARK    1  A    between atoms: C2_2  and  C3_4 
REMARK    2  A    between atoms: C8_12  and  C9_13 
REMARK    3  A    between atoms: C9_13  and  C10_14 
REMARK    4  A    between atoms: C10_14  and  C11_15 
REMARK    5  A    between atoms: C14_20  and  C15_21 
REMARK    6  A    between atoms: C15_21  and  O3_23 
ROOT
HETATM    1  C3  UNL     1      22.297   2.807  50.405  1.00  0.00     0.074 C 
HETATM    2  C4  UNL     1      21.387   3.728  50.858  1.00  0.00     0.023 C 
HETATM    3  C5  UNL     1      21.612   5.110  51.245  1.00  0.00     0.033 C 
HETATM    4  C6  UNL     1      22.825   5.524  51.683  1.00  0.00     0.094 C 
HETATM    5  N1  UNL     1      23.987   4.731  52.086  1.00  0.00    -0.318 N 
HETATM    6  C7  UNL     1      24.028   3.271  52.079  1.00  0.00     0.331 C 
HETATM    7  O1  UNL     1      25.073   3.050  52.699  1.00  0.00    -0.246 OA
HETATM    8  N2  UNL     1      23.094   2.293  51.504  1.00  0.00    -0.266 N 
HETATM    9  C8  UNL     1      23.313   1.128  52.356  1.00  0.00     0.020 C 
HETATM   10  C12 UNL     1      22.345   0.164  52.425  1.00  0.00     0.025 C 
HETATM   11  C13 UNL     1      21.090   0.138  51.708  1.00  0.00     0.198 C 
HETATM   12  O2  UNL     1      19.949   0.181  52.448  1.00  0.00    -0.373 OA
HETATM   13  C14 UNL     1      18.780   0.150  51.688  1.00  0.00     0.211 C 
HETATM   14  C18 UNL     1      18.159   1.525  51.587  1.00  0.00     0.070 A 
HETATM   15  C19 UNL     1      19.176   2.373  51.339  1.00  0.00     0.062 A 
HETATM   16  C20 UNL     1      19.953   3.460  51.086  1.00  0.00     0.072 A 
HETATM   17  N3  UNL     1      18.966   4.381  51.078  1.00  0.00    -0.241 NA
HETATM   18  C21 UNL     1      17.701   3.862  51.313  1.00  0.00     0.234 A 
HETATM   19  N4  UNL     1      17.347   2.589  51.540  1.00  0.00    -0.244 NA
HETATM   20  H5  UNL     1      24.775   5.347  52.377  1.00  0.00     0.170 HD
ENDROOT
BRANCH   9  21
HETATM   21  C9  UNL     1      24.575   0.915  53.081  1.00  0.00     0.065 C 
BRANCH  21  22
HETATM   22  C10 UNL     1      24.915  -0.536  53.240  1.00  0.00     0.098 C 
BRANCH  22  23
HETATM   23  C11 UNL     1      26.088  -1.084  52.927  1.00  0.00     0.361 C 
HETATM   24  F1  UNL     1      27.078  -1.972  52.508  1.00  0.00    -0.461 F 
ENDBRANCH  22  23
ENDBRANCH  21  22
ENDBRANCH   9  21
BRANCH   1  25
HETATM   25  C2  UNL     1      22.486   2.380  49.025  1.00  0.00     0.037 A 
HETATM   26  C1  UNL     1      22.594   1.933  47.790  1.00  0.00     0.155 A 
HETATM   27 CL1  UNL     1      21.425   1.052  48.602  1.00  0.00    -0.179 Cl
ENDBRANCH   1  25
BRANCH  13  28
HETATM   28  C15 UNL     1      17.836  -0.793  52.250  1.00  0.00     0.126 C 
HETATM   29  C16 UNL     1      16.591  -0.959  51.836  1.00  0.00     0.047 C 
BRANCH  28  30
HETATM   30  O3  UNL     1      18.348  -1.549  53.299  1.00  0.00    -0.379 OA
HETATM   31  C17 UNL     1      17.787  -2.773  53.725  1.00  0.00     0.202 C 
ENDBRANCH  28  30
ENDBRANCH  13  28
TORSDOF 6
ENDMDL
MODEL 3
REMARK VINA RESULT:      -7.3      3.835      5.975
REMARK  6 active torsions:
REMARK  status: ('A' for Active; 'I' for Inactive)
REMARK    1  A    between atoms: C2_2  and  C3_4 
REMARK    2  A    between atoms: C8_12  and  C9_13 
REMARK    3  A    between atoms: C9_13  and  C10_14 
REMARK    4  A    between atoms: C10_14  and  C11_15 
REMARK    5  A    between atoms: C14_20  and  C15_21 
REMARK    6  A    between atoms: C15_21  and  O3_23 
ROOT
HETATM    1  C3  UNL     1      22.026   3.376  50.519  1.00  0.00     0.074 C 
HETATM    2  C4  UNL     1      23.026   3.215  49.595  1.00  0.00     0.023 C 
HETATM    3  C5  UNL     1      22.915   3.072  48.153  1.00  0.00     0.033 C 
HETATM    4  C6  UNL     1      21.788   2.582  47.585  1.00  0.00     0.094 C 
HETATM    5  N1  UNL     1      20.652   1.904  48.210  1.00  0.00    -0.318 N 
HETATM    6  C7  UNL     1      20.544   1.630  49.641  1.00  0.00     0.331 C 
HETATM    7  O1  UNL     1      19.577   0.863  49.674  1.00  0.00    -0.246 OA
HETATM    8  N2  UNL     1      21.352   2.115  50.768  1.00  0.00    -0.266 N 
HETATM    9  C8  UNL     1      21.191   1.038  51.742  1.00  0.00     0.020 C 
HETATM   10  C12 UNL     1      22.115   0.902  52.741  1.00  0.00     0.025 C 
HETATM   11  C13 UNL     1      23.266   1.742  52.982  1.00  0.00     0.198 C 
HETATM   12  O2  UNL     1      24.493   1.161  52.883  1.00  0.00    -0.373 OA
HETATM   13  C14 UNL     1      25.553   2.033  53.132  1.00  0.00     0.211 C 
HETATM   14  C18 UNL     1      26.218   2.464  51.843  1.00  0.00     0.070 A 
HETATM   15  C19 UNL     1      25.217   2.747  50.987  1.00  0.00     0.062 A 
HETATM   16  C20 UNL     1      24.464   3.109  49.914  1.00  0.00     0.072 A 
HETATM   17  N3  UNL     1      25.483   3.406  49.079  1.00  0.00    -0.241 NA
HETATM   18  C21 UNL     1      26.743   3.226  49.632  1.00  0.00     0.234 A 
HETATM   19  N4  UNL     1      27.064   2.805  50.864  1.00  0.00    -0.244 NA
HETATM   20  H5  UNL     1      19.935   1.645  47.500  1.00  0.00     0.170 HD
ENDROOT
BRANCH   9  21
HETATM   21  C9  UNL     1      20.023   0.144  51.733  1.00  0.00     0.065 C 
BRANCH  21  22
HETATM   22  C10 UNL     1      19.530  -0.180  53.110  1.00  0.00     0.098 C 
BRANCH  22  23
HETATM   23  C11 UNL     1      18.763  -1.223  53.421  1.00  0.00     0.361 C 
HETATM   24  F1  UNL     1      18.080  -2.439  53.379  1.00  0.00    -0.461 F 
ENDBRANCH  22  23
ENDBRANCH  21  22
ENDBRANCH   9  21
BRANCH   1  25
HETATM   25  C2  UNL     1      21.644   4.619  51.176  1.00  0.00     0.037 A 
HETATM   26  C1  UNL     1      21.247   5.761  51.701  1.00  0.00     0.155 A 
HETATM   27 CL1  UNL     1      20.512   5.545  50.213  1.00  0.00    -0.179 Cl
ENDBRANCH   1  25
BRANCH  13  28
HETATM   28  C15 UNL     1      26.517   1.416  54.019  1.00  0.00     0.126 C 
HETATM   29  C16 UNL     1      26.332   0.279  54.669  1.00  0.00     0.047 C 
BRANCH  28  30
HETATM   30  O3  UNL     1      27.704   2.129  54.148  1.00  0.00    -0.379 OA
HETATM   31  C17 UNL     1      28.979   1.523  54.167  1.00  0.00     0.202 C 
ENDBRANCH  28  30
ENDBRANCH  13  28
TORSDOF 6
ENDMDL
MODEL 4
REMARK VINA RESULT:      -7.2      2.279      2.867
REMARK  6 active torsions:
REMARK  status: ('A' for Active; 'I' for Inactive)
REMARK    1  A    between atoms: C2_2  and  C3_4 
REMARK    2  A    between atoms: C8_12  and  C9_13 
REMARK    3  A    between atoms: C9_13  and  C10_14 
REMARK    4  A    between atoms: C10_14  and  C11_15 
REMARK    5  A    between atoms: C14_20  and  C15_21 
REMARK    6  A    between atoms: C15_21  and  O3_23 
ROOT
HETATM    1  C3  UNL     1      21.386   2.182  50.610  1.00  0.00     0.074 C 
HETATM    2  C4  UNL     1      20.487   1.671  51.510  1.00  0.00     0.023 C 
HETATM    3  C5  UNL     1      19.126   2.104  51.779  1.00  0.00     0.033 C 
HETATM    4  C6  UNL     1      18.737   3.377  51.532  1.00  0.00     0.094 C 
HETATM    5  N1  UNL     1      19.552   4.555  51.231  1.00  0.00    -0.318 N 
HETATM    6  C7  UNL     1      21.010   4.545  51.143  1.00  0.00     0.331 C 
HETATM    7  O1  UNL     1      21.264   5.754  51.112  1.00  0.00    -0.246 OA
HETATM    8  N2  UNL     1      21.955   3.422  51.104  1.00  0.00    -0.266 N 
HETATM    9  C8  UNL     1      23.163   4.022  51.665  1.00  0.00     0.020 C 
HETATM   10  C12 UNL     1      24.127   3.207  52.192  1.00  0.00     0.025 C 
HETATM   11  C13 UNL     1      24.113   1.763  52.240  1.00  0.00     0.198 C 
HETATM   12  O2  UNL     1      24.106   1.180  53.470  1.00  0.00    -0.373 OA
HETATM   13  C14 UNL     1      24.096  -0.214  53.437  1.00  0.00     0.211 C 
HETATM   14  C18 UNL     1      22.716  -0.757  53.734  1.00  0.00     0.070 A 
HETATM   15  C19 UNL     1      21.859   0.003  53.024  1.00  0.00     0.062 A 
HETATM   16  C20 UNL     1      20.763   0.562  52.446  1.00  0.00     0.072 A 
HETATM   17  N3  UNL     1      19.840  -0.256  52.996  1.00  0.00    -0.241 NA
HETATM   18  C21 UNL     1      20.367  -1.224  53.838  1.00  0.00     0.234 A 
HETATM   19  N4  UNL     1      21.650  -1.442  54.164  1.00  0.00    -0.244 NA
HETATM   20  H5  UNL     1      18.953   5.396  51.090  1.00  0.00     0.170 HD
ENDROOT
BRANCH   9  21
HETATM   21  C9  UNL     1      23.415   5.470  51.609  1.00  0.00     0.065 C 
BRANCH  21  22
HETATM   22  C10 UNL     1      24.501   5.833  50.643  1.00  0.00     0.098 C 
BRANCH  22  23
HETATM   23  C11 UNL     1      24.431   5.677  49.323  1.00  0.00     0.361 C 
HETATM   24  F1  UNL     1      23.997   5.688  47.997  1.00  0.00    -0.461 F 
ENDBRANCH  22  23
ENDBRANCH  21  22
ENDBRANCH   9  21
BRANCH   1  25
HETATM   25  C2  UNL     1      21.744   1.607  49.320  1.00  0.00     0.037 A 
HETATM   26  C1  UNL     1      22.092   1.167  48.127  1.00  0.00     0.155 A 
HETATM   27 CL1  UNL     1      22.366   2.815  48.217  1.00  0.00    -0.179 Cl
ENDBRANCH   1  25
BRANCH  13  28
HETATM   28  C15 UNL     1      25.064  -0.749  54.370  1.00  0.00     0.126 C 
HETATM   29  C16 UNL     1      24.798  -1.113  55.614  1.00  0.00     0.047 C 
BRANCH  28  30
HETATM   30  O3  UNL     1      26.350  -0.861  53.851  1.00  0.00    -0.379 OA
HETATM   31  C17 UNL     1      27.421  -0.024  54.235  1.00  0.00     0.202 C 
ENDBRANCH  28  30
ENDBRANCH  13  28
TORSDOF 6
ENDMDL
MODEL 5
REMARK VINA RESULT:      -7.2      1.970      2.335
REMARK  6 active torsions:
REMARK  status: ('A' for Active; 'I' for Inactive)
REMARK    1  A    between atoms: C2_2  and  C3_4 
REMARK    2  A    between atoms: C8_12  and  C9_13 
REMARK    3  A    between atoms: C9_13  and  C10_14 
REMARK    4  A    between atoms: C10_14  and  C11_15 
REMARK    5  A    between atoms: C14_20  and  C15_21 
REMARK    6  A    between atoms: C15_21  and  O3_23 
ROOT
HETATM    1  C3  UNL     1      22.235   2.667  50.342  1.00  0.00     0.074 C 
HETATM    2  C4  UNL     1      21.824   1.933  51.425  1.00  0.00     0.023 C 
HETATM    3  C5  UNL     1      20.519   1.909  52.062  1.00  0.00     0.033 C 
HETATM    4  C6  UNL     1      19.683   2.972  51.982  1.00  0.00     0.094 C 
HETATM    5  N1  UNL     1      19.957   4.336  51.528  1.00  0.00    -0.318 N 
HETATM    6  C7  UNL     1      21.260   4.800  51.057  1.00  0.00     0.331 C 
HETATM    7  O1  UNL     1      21.085   6.022  51.012  1.00  0.00    -0.246 OA
HETATM    8  N2  UNL     1      22.475   4.047  50.721  1.00  0.00    -0.266 N 
HETATM    9  C8  UNL     1      23.522   5.035  50.968  1.00  0.00     0.020 C 
HETATM   10  C12 UNL     1      24.803   4.606  51.186  1.00  0.00     0.025 C 
HETATM   11  C13 UNL     1      25.277   3.242  51.173  1.00  0.00     0.198 C 
HETATM   12  O2  UNL     1      25.785   2.748  52.335  1.00  0.00    -0.373 OA
HETATM   13  C14 UNL     1      26.225   1.427  52.245  1.00  0.00     0.211 C 
HETATM   14  C18 UNL     1      25.229   0.478  52.872  1.00  0.00     0.070 A 
HETATM   15  C19 UNL     1      24.015   0.880  52.449  1.00  0.00     0.062 A 
HETATM   16  C20 UNL     1      22.685   1.021  52.205  1.00  0.00     0.072 A 
HETATM   17  N3  UNL     1      22.261  -0.027  52.943  1.00  0.00    -0.241 NA
HETATM   18  C21 UNL     1      23.279  -0.728  53.574  1.00  0.00     0.234 A 
HETATM   19  N4  UNL     1      24.600  -0.498  53.539  1.00  0.00    -0.244 NA
HETATM   20  H5  UNL     1      19.101   4.927  51.587  1.00  0.00     0.170 HD
ENDROOT
BRANCH   9  21
HETATM   21  C9  UNL     1      23.261   6.482  50.911  1.00  0.00     0.065 C 
BRANCH  21  22
HETATM   22  C10 UNL     1      24.517   7.298  50.900  1.00  0.00     0.098 C 
BRANCH  22  23
HETATM   23  C11 UNL     1      24.807   8.240  50.006  1.00  0.00     0.361 C 
HETATM   24  F1  UNL     1      24.748   9.365  49.182  1.00  0.00    -0.461 F 
ENDBRANCH  22  23
ENDBRANCH  21  22
ENDBRANCH   9  21
BRANCH   1  25
HETATM   25  C2  UNL     1      22.408   2.180  48.979  1.00  0.00     0.037 A 
HETATM   26  C1  UNL     1      22.494   1.688  47.759  1.00  0.00     0.155 A 
HETATM   27 CL1  UNL     1      21.201   0.985  48.556  1.00  0.00    -0.179 Cl
ENDBRANCH   1  25
BRANCH  13  28
HETATM   28  C15 UNL     1      27.524   1.284  52.865  1.00  0.00     0.126 C 
HETATM   29  C16 UNL     1      28.235   2.275  53.379  1.00  0.00     0.047 C 
BRANCH  28  30
HETATM   30  O3  UNL     1      27.999  -0.023  52.889  1.00  0.00    -0.379 OA
HETATM   31  C17 UNL     1      28.903  -0.508  53.860  1.00  0.00     0.202 C 
ENDBRANCH  28  30
ENDBRANCH  13  28
TORSDOF 6
ENDMDL
MODEL 6
REMARK VINA RESULT:      -7.1      1.601      2.400
REMARK  6 active torsions:
REMARK  status: ('A' for Active; 'I' for Inactive)
REMARK    1  A    between atoms: C2_2  and  C3_4 
REMARK    2  A    between atoms: C8_12  and  C9_13 
REMARK    3  A    between atoms: C9_13  and  C10_14 
REMARK    4  A    between atoms: C10_14  and  C11_15 
REMARK    5  A    between atoms: C14_20  and  C15_21 
REMARK    6  A    between atoms: C15_21  and  O3_23 
ROOT
HETATM    1  C3  UNL     1      22.674   4.825  48.647  1.00  0.00     0.074 C 
HETATM    2  C4  UNL     1      21.821   5.103  49.685  1.00  0.00     0.023 C 
HETATM    3  C5  UNL     1      21.108   6.338  49.968  1.00  0.00     0.033 C 
HETATM    4  C6  UNL     1      21.576   7.530  49.529  1.00  0.00     0.094 C 
HETATM    5  N1  UNL     1      22.887   7.864  48.970  1.00  0.00    -0.318 N 
HETATM    6  C7  UNL     1      23.970   6.903  48.783  1.00  0.00     0.331 C 
HETATM    7  O1  UNL     1      24.920   7.648  48.521  1.00  0.00    -0.246 OA
HETATM    8  N2  UNL     1      23.971   5.437  48.875  1.00  0.00    -0.266 N 
HETATM    9  C8  UNL     1      25.358   5.156  49.236  1.00  0.00     0.020 C 
HETATM   10  C12 UNL     1      25.662   3.961  49.829  1.00  0.00     0.025 C 
HETATM   11  C13 UNL     1      24.748   2.883  50.131  1.00  0.00     0.198 C 
HETATM   12  O2  UNL     1      24.580   2.557  51.441  1.00  0.00    -0.373 OA
HETATM   13  C14 UNL     1      23.687   1.507  51.654  1.00  0.00     0.211 C 
HETATM   14  C18 UNL     1      22.349   2.019  52.137  1.00  0.00     0.070 A 
HETATM   15  C19 UNL     1      22.060   3.087  51.368  1.00  0.00     0.062 A 
HETATM   16  C20 UNL     1      21.486   4.169  50.779  1.00  0.00     0.072 A 
HETATM   17  N3  UNL     1      20.363   4.199  51.527  1.00  0.00    -0.241 NA
HETATM   18  C21 UNL     1      20.292   3.200  52.487  1.00  0.00     0.234 A 
HETATM   19  N4  UNL     1      21.181   2.232  52.756  1.00  0.00    -0.244 NA
HETATM   20  H5  UNL     1      22.941   8.876  48.725  1.00  0.00     0.170 HD
ENDROOT
BRANCH   9  21
HETATM   21  C9  UNL     1      26.453   6.082  48.909  1.00  0.00     0.065 C 
BRANCH  21  22
HETATM   22  C10 UNL     1      27.725   5.373  48.553  1.00  0.00     0.098 C 
BRANCH  22  23
HETATM   23  C11 UNL     1      28.829   5.967  48.105  1.00  0.00     0.361 C 
HETATM   24  F1  UNL     1      29.806   6.523  47.278  1.00  0.00    -0.461 F 
ENDBRANCH  22  23
ENDBRANCH  21  22
ENDBRANCH   9  21
BRANCH   1  25
HETATM   25  C2  UNL     1      22.367   4.044  47.457  1.00  0.00     0.037 A 
HETATM   26  C1  UNL     1      22.104   3.265  46.426  1.00  0.00     0.155 A 
HETATM   27 CL1  UNL     1      22.508   2.324  47.750  1.00  0.00    -0.179 Cl
ENDBRANCH   1  25
BRANCH  13  28
HETATM   28  C15 UNL     1      24.239   0.558  52.597  1.00  0.00     0.126 C 
HETATM   29  C16 UNL     1      23.538  -0.345  53.263  1.00  0.00     0.047 C 
BRANCH  28  30
HETATM   30  O3  UNL     1      25.616   0.660  52.763  1.00  0.00    -0.379 OA
HETATM   31  C17 UNL     1      26.541  -0.228  52.172  1.00  0.00     0.202 C 
ENDBRANCH  28  30
ENDBRANCH  13  28
TORSDOF 6
ENDMDL
MODEL 7
REMARK VINA RESULT:      -6.6      5.651     10.091
REMARK  6 active torsions:
REMARK  status: ('A' for Active; 'I' for Inactive)
REMARK    1  A    between atoms: C2_2  and  C3_4 
REMARK    2  A    between atoms: C8_12  and  C9_13 
REMARK    3  A    between atoms: C9_13  and  C10_14 
REMARK    4  A    between atoms: C10_14  and  C11_15 
REMARK    5  A    between atoms: C14_20  and  C15_21 
REMARK    6  A    between atoms: C15_21  and  O3_23 
ROOT
HETATM    1  C3  UNL     1      29.904   8.457  47.239  1.00  0.00     0.074 C 
HETATM    2  C4  UNL     1      30.166   9.430  48.169  1.00  0.00     0.023 C 
HETATM    3  C5  UNL     1      31.253   9.496  49.131  1.00  0.00     0.033 C 
HETATM    4  C6  UNL     1      31.864   8.371  49.573  1.00  0.00     0.094 C 
HETATM    5  N1  UNL     1      31.457   6.974  49.424  1.00  0.00    -0.318 N 
HETATM    6  C7  UNL     1      30.247   6.540  48.729  1.00  0.00     0.331 C 
HETATM    7  O1  UNL     1      30.191   5.348  49.050  1.00  0.00    -0.246 OA
HETATM    8  N2  UNL     1      29.320   7.289  47.871  1.00  0.00    -0.266 N 
HETATM    9  C8  UNL     1      28.076   6.544  48.047  1.00  0.00     0.020 C 
HETATM   10  C12 UNL     1      26.887   7.158  47.764  1.00  0.00     0.025 C 
HETATM   11  C13 UNL     1      26.700   8.501  47.265  1.00  0.00     0.198 C 
HETATM   12  O2  UNL     1      26.023   9.373  48.061  1.00  0.00    -0.373 OA
HETATM   13  C14 UNL     1      25.879  10.647  47.512  1.00  0.00     0.211 C 
HETATM   14  C18 UNL     1      26.851  11.623  48.137  1.00  0.00     0.070 A 
HETATM   15  C19 UNL     1      28.032  10.979  48.204  1.00  0.00     0.062 A 
HETATM   16  C20 UNL     1      29.329  10.623  48.404  1.00  0.00     0.072 A 
HETATM   17  N3  UNL     1      29.749  11.789  48.940  1.00  0.00    -0.241 NA
HETATM   18  C21 UNL     1      28.759  12.756  49.044  1.00  0.00     0.234 A 
HETATM   19  N4  UNL     1      27.469  12.676  48.686  1.00  0.00    -0.244 NA
HETATM   20  H5  UNL     1      32.143   6.335  49.879  1.00  0.00     0.170 HD
ENDROOT
BRANCH   9  21
HETATM   21  C9  UNL     1      28.063   5.126  48.440  1.00  0.00     0.065 C 
BRANCH  21  22
HETATM   22  C10 UNL     1      26.750   4.699  49.023  1.00  0.00     0.098 C 
BRANCH  22  23
HETATM   23  C11 UNL     1      26.580   3.658  49.837  1.00  0.00     0.361 C 
HETATM   24  F1  UNL     1      26.209   2.421  50.365  1.00  0.00    -0.461 F 
ENDBRANCH  22  23
ENDBRANCH  21  22
ENDBRANCH   9  21
BRANCH   1  25
HETATM   25  C2  UNL     1      30.171   8.530  45.808  1.00  0.00     0.037 A 
HETATM   26  C1  UNL     1      30.489   8.558  44.529  1.00  0.00     0.155 A 
HETATM   27 CL1  UNL     1      31.731   7.851  45.399  1.00  0.00    -0.179 Cl
ENDBRANCH   1  25
BRANCH  13  28
HETATM   28  C15 UNL     1      24.518  11.115  47.668  1.00  0.00     0.126 C 
HETATM   29  C16 UNL     1      24.124  12.369  47.517  1.00  0.00     0.047 C 
BRANCH  28  30
HETATM   30  O3  UNL     1      23.611  10.114  48.000  1.00  0.00    -0.379 OA
HETATM   31  C17 UNL     1      22.247  10.146  47.635  1.00  0.00     0.202 C 
ENDBRANCH  28  30
ENDBRANCH  13  28
TORSDOF 6
ENDMDL
MODEL 8
REMARK VINA RESULT:      -6.2      2.955      5.283
REMARK  6 active torsions:
REMARK  status: ('A' for Active; 'I' for Inactive)
REMARK    1  A    between atoms: C2_2  and  C3_4 
REMARK    2  A    between atoms: C8_12  and  C9_13 
REMARK    3  A    between atoms: C9_13  and  C10_14 
REMARK    4  A    between atoms: C10_14  and  C11_15 
REMARK    5  A    between atoms: C14_20  and  C15_21 
REMARK    6  A    between atoms: C15_21  and  O3_23 
ROOT
HETATM    1  C3  UNL     1      22.158   2.305  50.250  1.00  0.00     0.074 C 
HETATM    2  C4  UNL     1      22.984   1.975  51.294  1.00  0.00     0.023 C 
HETATM    3  C5  UNL     1      22.631   1.426  52.592  1.00  0.00     0.033 C 
HETATM    4  C6  UNL     1      21.404   1.632  53.126  1.00  0.00     0.094 C 
HETATM    5  N1  UNL     1      20.355   2.565  52.714  1.00  0.00    -0.318 N 
HETATM    6  C7  UNL     1      20.472   3.485  51.584  1.00  0.00     0.331 C 
HETATM    7  O1  UNL     1      19.488   4.212  51.755  1.00  0.00    -0.246 OA
HETATM    8  N2  UNL     1      21.476   3.559  50.515  1.00  0.00    -0.266 N 
HETATM    9  C8  UNL     1      21.427   4.972  50.150  1.00  0.00     0.020 C 
HETATM   10  C12 UNL     1      22.496   5.529  49.503  1.00  0.00     0.025 C 
HETATM   11  C13 UNL     1      23.709   4.860  49.092  1.00  0.00     0.198 C 
HETATM   12  O2  UNL     1      24.874   5.281  49.656  1.00  0.00    -0.373 OA
HETATM   13  C14 UNL     1      26.001   4.591  49.208  1.00  0.00     0.211 C 
HETATM   14  C18 UNL     1      26.464   3.580  50.233  1.00  0.00     0.070 A 
HETATM   15  C19 UNL     1      25.350   2.963  50.675  1.00  0.00     0.062 A 
HETATM   16  C20 UNL     1      24.449   2.167  51.308  1.00  0.00     0.072 A 
HETATM   17  N3  UNL     1      25.328   1.474  52.063  1.00  0.00    -0.241 NA
HETATM   18  C21 UNL     1      26.652   1.847  51.880  1.00  0.00     0.234 A 
HETATM   19  N4  UNL     1      27.152   2.787  51.064  1.00  0.00    -0.244 NA
HETATM   20  H5  UNL     1      19.520   2.485  53.331  1.00  0.00     0.170 HD
ENDROOT
BRANCH   9  21
HETATM   21  C9  UNL     1      20.232   5.798  50.382  1.00  0.00     0.065 C 
BRANCH  21  22
HETATM   22  C10 UNL     1      20.382   7.194  49.859  1.00  0.00     0.098 C 
BRANCH  22  23
HETATM   23  C11 UNL     1      19.446   7.861  49.186  1.00  0.00     0.361 C 
HETATM   24  F1  UNL     1      18.542   8.838  48.767  1.00  0.00    -0.461 F 
ENDBRANCH  22  23
ENDBRANCH  21  22
ENDBRANCH   9  21
BRANCH   1  25
HETATM   25  C2  UNL     1      21.949   1.533  49.033  1.00  0.00     0.037 A 
HETATM   26  C1  UNL     1      21.814   0.890  47.890  1.00  0.00     0.155 A 
HETATM   27 CL1  UNL     1      22.843   2.193  47.680  1.00  0.00    -0.179 Cl
ENDBRANCH   1  25
BRANCH  13  28
HETATM   28  C15 UNL     1      27.067   5.516  48.890  1.00  0.00     0.126 C 
HETATM   29  C16 UNL     1      28.265   5.172  48.447  1.00  0.00     0.047 C 
BRANCH  28  30
HETATM   30  O3  UNL     1      26.735   6.852  49.089  1.00  0.00    -0.379 OA
HETATM   31  C17 UNL     1      27.329   7.918  48.377  1.00  0.00     0.202 C 
ENDBRANCH  28  30
ENDBRANCH  13  28
TORSDOF 6
ENDMDL
MODEL 9
REMARK VINA RESULT:      -6.2      3.500      7.109
REMARK  6 active torsions:
REMARK  status: ('A' for Active; 'I' for Inactive)
REMARK    1  A    between atoms: C2_2  and  C3_4 
REMARK    2  A    between atoms: C8_12  and  C9_13 
REMARK    3  A    between atoms: C9_13  and  C10_14 
REMARK    4  A    between atoms: C10_14  and  C11_15 
REMARK    5  A    between atoms: C14_20  and  C15_21 
REMARK    6  A    between atoms: C15_21  and  O3_23 
ROOT
HETATM    1  C3  UNL     1      22.755   5.842  48.825  1.00  0.00     0.074 C 
HETATM    2  C4  UNL     1      22.863   6.096  47.481  1.00  0.00     0.023 C 
HETATM    3  C5  UNL     1      22.145   5.475  46.380  1.00  0.00     0.033 C 
HETATM    4  C6  UNL     1      21.640   4.224  46.493  1.00  0.00     0.094 C 
HETATM    5  N1  UNL     1      21.893   3.209  47.516  1.00  0.00    -0.318 N 
HETATM    6  C7  UNL     1      22.790   3.396  48.655  1.00  0.00     0.331 C 
HETATM    7  O1  UNL     1      22.873   2.245  49.095  1.00  0.00    -0.246 OA
HETATM    8  N2  UNL     1      23.439   4.609  49.168  1.00  0.00    -0.266 N 
HETATM    9  C8  UNL     1      24.627   4.064  49.821  1.00  0.00     0.020 C 
HETATM   10  C12 UNL     1      25.698   4.884  50.044  1.00  0.00     0.025 C 
HETATM   11  C13 UNL     1      25.798   6.290  49.727  1.00  0.00     0.198 C 
HETATM   12  O2  UNL     1      26.744   6.660  48.822  1.00  0.00    -0.373 OA
HETATM   13  C14 UNL     1      26.782   8.031  48.570  1.00  0.00     0.211 C 
HETATM   14  C18 UNL     1      26.122   8.361  47.250  1.00  0.00     0.070 A 
HETATM   15  C19 UNL     1      24.986   7.637  47.212  1.00  0.00     0.062 A 
HETATM   16  C20 UNL     1      23.802   7.061  46.875  1.00  0.00     0.072 A 
HETATM   17  N3  UNL     1      23.646   7.670  45.680  1.00  0.00    -0.241 NA
HETATM   18  C21 UNL     1      24.675   8.541  45.347  1.00  0.00     0.234 A 
HETATM   19  N4  UNL     1      25.776   8.844  46.050  1.00  0.00    -0.244 NA
HETATM   20  H5  UNL     1      21.351   2.341  47.323  1.00  0.00     0.170 HD
ENDROOT
BRANCH   9  21
HETATM   21  C9  UNL     1      24.679   2.681  50.320  1.00  0.00     0.065 C 
BRANCH  21  22
HETATM   22  C10 UNL     1      25.717   2.487  51.384  1.00  0.00     0.098 C 
BRANCH  22  23
HETATM   23  C11 UNL     1      26.410   1.368  51.578  1.00  0.00     0.361 C 
HETATM   24  F1  UNL     1      26.825   0.035  51.579  1.00  0.00    -0.461 F 
ENDBRANCH  22  23
ENDBRANCH  21  22
ENDBRANCH   9  21
BRANCH   1  25
HETATM   25  C2  UNL     1      22.052   6.656  49.807  1.00  0.00     0.037 A 
HETATM   26  C1  UNL     1      21.486   7.445  50.699  1.00  0.00     0.155 A 
HETATM   27 CL1  UNL     1      23.009   8.029  50.321  1.00  0.00    -0.179 Cl
ENDBRANCH   1  25
BRANCH  13  28
HETATM   28  C15 UNL     1      28.148   8.511  48.588  1.00  0.00     0.126 C 
HETATM   29  C16 UNL     1      28.667   9.289  49.524  1.00  0.00     0.047 C 
BRANCH  28  30
HETATM   30  O3  UNL     1      28.914   8.080  47.510  1.00  0.00    -0.379 OA
HETATM   31  C17 UNL     1      30.025   7.218  47.638  1.00  0.00     0.202 C 
ENDBRANCH  28  30
ENDBRANCH  13  28
TORSDOF 6
ENDMDL
