MODEL 1
REMARK VINA RESULT:      -9.0      0.000      0.000
REMARK  6 active torsions:
REMARK  status: ('A' for Active; 'I' for Inactive)
REMARK    1  A    between atoms: N1_2  and  C2_3 
REMARK    2  A    between atoms: C2_3  and  C3_4 
REMARK    3  A    between atoms: C3_4  and  C4_5 
REMARK    4  A    between atoms: C5_6  and  C6_8 
REMARK    5  A    between atoms: C12_16  and  N4_17 
REMARK    6  A    between atoms: N4_17  and  C13_18 
ROOT
HETATM    1  C6  UNL     1      22.930   1.537  51.560  1.00  0.00     0.008 C 
HETATM    2  C7  UNL     1      22.801   0.599  52.496  1.00  0.00     0.005 A 
HETATM    3  C8  UNL     1      21.525  -0.097  52.601  1.00  0.00     0.046 A 
HETATM    4  N2  UNL     1      21.320  -0.964  53.526  1.00  0.00    -0.264 NA
HETATM    5  C9  UNL     1      22.354  -1.249  54.452  1.00  0.00     0.137 A 
HETATM    6  C10 UNL     1      23.528  -0.643  54.378  1.00  0.00     0.067 A 
HETATM    7  C11 UNL     1      24.425  -1.092  55.436  1.00  0.00     0.099 C 
HETATM    8  N3  UNL     1      25.165  -1.442  56.284  1.00  0.00    -0.192 NA
HETATM    9  C12 UNL     1      23.987   0.362  53.339  1.00  0.00     0.163 A 
HETATM   10  C19 UNL     1      20.250  -0.026  51.798  1.00  0.00     0.091 C 
HETATM   11  C20 UNL     1      20.139   1.347  51.168  1.00  0.00     0.123 C 
HETATM   12  C21 UNL     1      18.745   1.430  50.570  1.00  0.00     0.040 C 
HETATM   13  O2  UNL     1      21.043   1.462  50.142  1.00  0.00    -0.381 OA
HETATM   14  C22 UNL     1      22.171   2.183  50.475  1.00  0.00     0.210 C 
ENDROOT
BRANCH   9  15
HETATM   15  N4  UNL     1      25.121  -0.195  52.619  1.00  0.00    -0.376 N 
HETATM   16  H11 UNL     1      24.810  -0.402  51.621  1.00  0.00     0.160 HD
BRANCH  15  17
HETATM   17  C13 UNL     1      26.476  -0.510  52.933  1.00  0.00     0.030 A 
HETATM   18  C14 UNL     1      27.056  -1.734  52.682  1.00  0.00     0.032 A 
HETATM   19  C15 UNL     1      28.371  -2.045  52.960  1.00  0.00     0.046 A 
HETATM   20  C16 UNL     1      29.102  -1.021  53.527  1.00  0.00     0.138 A 
HETATM   21  F1  UNL     1      30.401  -1.225  53.836  1.00  0.00    -0.204 F 
HETATM   22  C17 UNL     1      28.561   0.200  53.788  1.00  0.00     0.074 A 
HETATM   23 CL1  UNL     1      29.540   1.451  54.506  1.00  0.00    -0.081 Cl
HETATM   24  C18 UNL     1      27.256   0.470  53.499  1.00  0.00     0.056 A 
ENDBRANCH  15  17
ENDBRANCH   9  15
BRANCH   1  25
HETATM   25  C5  UNL     1      24.244   2.153  51.568  1.00  0.00     0.086 A 
HETATM   26  C4  UNL     1      24.987   2.752  50.467  1.00  0.00     0.192 A 
HETATM   27  O1  UNL     1      25.344   2.577  51.972  1.00  0.00    -0.340 OA
BRANCH  26  28
HETATM   28  C3  UNL     1      26.173   3.288  50.546  1.00  0.00     0.058 C 
BRANCH  28  29
HETATM   29  C2  UNL     1      26.828   3.915  49.368  1.00  0.00     0.277 C 
BRANCH  29  30
HETATM   30  N1  UNL     1      27.056   5.326  49.527  1.00  0.00     0.079 N 
HETATM   31  C1  UNL     1      26.100   6.111  48.741  1.00  0.00     0.306 C 
HETATM   32  H4  UNL     1      27.990   5.632  49.215  1.00  0.00     0.315 HD
ENDBRANCH  29  30
ENDBRANCH  28  29
ENDBRANCH  26  28
ENDBRANCH   1  25
TORSDOF 6
ENDMDL
MODEL 2
REMARK VINA RESULT:      -8.7      3.417      5.993
REMARK  6 active torsions:
REMARK  status: ('A' for Active; 'I' for Inactive)
REMARK    1  A    between atoms: N1_2  and  C2_3 
REMARK    2  A    between atoms: C2_3  and  C3_4 
REMARK    3  A    between atoms: C3_4  and  C4_5 
REMARK    4  A    between atoms: C5_6  and  C6_8 
REMARK    5  A    between atoms: C12_16  and  N4_17 
REMARK    6  A    between atoms: N4_17  and  C13_18 
ROOT
HETATM    1  C6  UNL     1      23.998   0.671  52.507  1.00  0.00     0.008 C 
HETATM    2  C7  UNL     1      23.075   1.148  51.674  1.00  0.00     0.005 A 
HETATM    3  C8  UNL     1      21.684   0.786  51.910  1.00  0.00     0.046 A 
HETATM    4  N2  UNL     1      20.758   1.163  51.103  1.00  0.00    -0.264 NA
HETATM    5  C9  UNL     1      21.099   1.943  49.970  1.00  0.00     0.137 A 
HETATM    6  C10 UNL     1      22.352   2.298  49.733  1.00  0.00     0.067 A 
HETATM    7  C11 UNL     1      22.457   3.090  48.514  1.00  0.00     0.099 C 
HETATM    8  N3  UNL     1      22.564   3.732  47.531  1.00  0.00    -0.192 NA
HETATM    9  C12 UNL     1      23.572   2.007  50.585  1.00  0.00     0.163 A 
HETATM   10  C19 UNL     1      21.003  -0.016  52.990  1.00  0.00     0.091 C 
HETATM   11  C20 UNL     1      21.989  -1.012  53.563  1.00  0.00     0.123 C 
HETATM   12  C21 UNL     1      21.191  -1.929  54.472  1.00  0.00     0.040 C 
HETATM   13  O2  UNL     1      22.914  -0.356  54.336  1.00  0.00    -0.381 OA
HETATM   14  C22 UNL     1      24.129  -0.169  53.711  1.00  0.00     0.210 C 
ENDROOT
BRANCH   9  15
HETATM   15  N4  UNL     1      24.137   3.268  51.038  1.00  0.00    -0.376 N 
HETATM   16  H11 UNL     1      23.909   3.379  52.073  1.00  0.00     0.160 HD
BRANCH  15  17
HETATM   17  C13 UNL     1      24.883   4.327  50.441  1.00  0.00     0.030 A 
HETATM   18  C14 UNL     1      25.975   4.130  49.625  1.00  0.00     0.032 A 
HETATM   19  C15 UNL     1      26.691   5.144  49.023  1.00  0.00     0.046 A 
HETATM   20  C16 UNL     1      26.236   6.418  49.295  1.00  0.00     0.138 A 
HETATM   21  F1  UNL     1      26.869   7.480  48.754  1.00  0.00    -0.204 F 
HETATM   22  C17 UNL     1      25.160   6.648  50.097  1.00  0.00     0.074 A 
HETATM   23 CL1  UNL     1      24.635   8.282  50.402  1.00  0.00    -0.081 Cl
HETATM   24  C18 UNL     1      24.477   5.619  50.675  1.00  0.00     0.056 A 
ENDBRANCH  15  17
ENDBRANCH   9  15
BRANCH   1  25
HETATM   25  C5  UNL     1      25.339   1.102  52.156  1.00  0.00     0.086 A 
HETATM   26  C4  UNL     1      26.341   1.759  52.985  1.00  0.00     0.192 A 
HETATM   27  O1  UNL     1      26.373   1.314  51.494  1.00  0.00    -0.340 OA
BRANCH  26  28
HETATM   28  C3  UNL     1      27.533   2.123  52.600  1.00  0.00     0.058 C 
BRANCH  28  29
HETATM   29  C2  UNL     1      28.600   2.463  53.578  1.00  0.00     0.277 C 
BRANCH  29  30
HETATM   30  N1  UNL     1      28.898   1.392  54.491  1.00  0.00     0.079 N 
HETATM   31  C1  UNL     1      29.531   0.265  53.800  1.00  0.00     0.306 C 
HETATM   32  H4  UNL     1      28.065   1.002  54.956  1.00  0.00     0.315 HD
ENDBRANCH  29  30
ENDBRANCH  28  29
ENDBRANCH  26  28
ENDBRANCH   1  25
TORSDOF 6
ENDMDL
MODEL 3
REMARK VINA RESULT:      -8.5      3.781      6.493
REMARK  6 active torsions:
REMARK  status: ('A' for Active; 'I' for Inactive)
REMARK    1  A    between atoms: N1_2  and  C2_3 
REMARK    2  A    between atoms: C2_3  and  C3_4 
REMARK    3  A    between atoms: C3_4  and  C4_5 
REMARK    4  A    between atoms: C5_6  and  C6_8 
REMARK    5  A    between atoms: C12_16  and  N4_17 
REMARK    6  A    between atoms: N4_17  and  C13_18 
ROOT
HETATM    1  C6  UNL     1      25.400   1.209  52.359  1.00  0.00     0.008 C 
HETATM    2  C7  UNL     1      24.892   0.428  53.310  1.00  0.00     0.005 A 
HETATM    3  C8  UNL     1      25.778  -0.018  54.377  1.00  0.00     0.046 A 
HETATM    4  N2  UNL     1      25.362  -0.826  55.285  1.00  0.00    -0.264 NA
HETATM    5  C9  UNL     1      24.021  -1.283  55.248  1.00  0.00     0.137 A 
HETATM    6  C10 UNL     1      23.188  -0.887  54.298  1.00  0.00     0.067 A 
HETATM    7  C11 UNL     1      21.871  -1.491  54.462  1.00  0.00     0.099 C 
HETATM    8  N3  UNL     1      20.799  -1.968  54.578  1.00  0.00    -0.192 NA
HETATM    9  C12 UNL     1      23.463   0.096  53.177  1.00  0.00     0.163 A 
HETATM   10  C19 UNL     1      27.223   0.269  54.697  1.00  0.00     0.091 C 
HETATM   11  C20 UNL     1      27.952   0.622  53.417  1.00  0.00     0.123 C 
HETATM   12  C21 UNL     1      29.429   0.677  53.768  1.00  0.00     0.040 C 
HETATM   13  O2  UNL     1      27.574   1.873  52.998  1.00  0.00    -0.381 OA
HETATM   14  C22 UNL     1      26.662   1.859  51.963  1.00  0.00     0.210 C 
ENDROOT
BRANCH   9  15
HETATM   15  N4  UNL     1      22.574   1.237  53.328  1.00  0.00    -0.376 N 
HETATM   16  H11 UNL     1      22.986   1.880  54.072  1.00  0.00     0.160 HD
BRANCH  15  17
HETATM   17  C13 UNL     1      21.347   1.662  52.739  1.00  0.00     0.030 A 
HETATM   18  C14 UNL     1      20.987   2.983  52.587  1.00  0.00     0.032 A 
HETATM   19  C15 UNL     1      19.813   3.408  52.000  1.00  0.00     0.046 A 
HETATM   20  C16 UNL     1      18.987   2.397  51.555  1.00  0.00     0.138 A 
HETATM   21  F1  UNL     1      17.813   2.709  50.964  1.00  0.00    -0.204 F 
HETATM   22  C17 UNL     1      19.312   1.081  51.689  1.00  0.00     0.074 A 
HETATM   23 CL1  UNL     1      18.222  -0.149  51.106  1.00  0.00    -0.081 Cl
HETATM   24  C18 UNL     1      20.481   0.700  52.276  1.00  0.00     0.056 A 
ENDBRANCH  15  17
ENDBRANCH   9  15
BRANCH   1  25
HETATM   25  C5  UNL     1      24.415   1.576  51.358  1.00  0.00     0.086 A 
HETATM   26  C4  UNL     1      24.234   2.847  50.666  1.00  0.00     0.192 A 
HETATM   27  O1  UNL     1      23.456   1.502  50.565  1.00  0.00    -0.340 OA
BRANCH  26  28
HETATM   28  C3  UNL     1      23.320   3.108  49.774  1.00  0.00     0.058 C 
BRANCH  28  29
HETATM   29  C2  UNL     1      22.782   4.481  49.585  1.00  0.00     0.277 C 
BRANCH  29  30
HETATM   30  N1  UNL     1      23.017   5.345  50.710  1.00  0.00     0.079 N 
HETATM   31  C1  UNL     1      21.936   6.322  50.865  1.00  0.00     0.306 C 
HETATM   32  H4  UNL     1      23.884   5.898  50.633  1.00  0.00     0.315 HD
ENDBRANCH  29  30
ENDBRANCH  28  29
ENDBRANCH  26  28
ENDBRANCH   1  25
TORSDOF 6
ENDMDL
MODEL 4
REMARK VINA RESULT:      -8.3      3.943      7.901
REMARK  6 active torsions:
REMARK  status: ('A' for Active; 'I' for Inactive)
REMARK    1  A    between atoms: N1_2  and  C2_3 
REMARK    2  A    between atoms: C2_3  and  C3_4 
REMARK    3  A    between atoms: C3_4  and  C4_5 
REMARK    4  A    between atoms: C5_6  and  C6_8 
REMARK    5  A    between atoms: C12_16  and  N4_17 
REMARK    6  A    between atoms: N4_17  and  C13_18 
ROOT
HETATM    1  C6  UNL     1      24.859   0.539  53.290  1.00  0.00     0.008 C 
HETATM    2  C7  UNL     1      25.240   1.461  52.408  1.00  0.00     0.005 A 
HETATM    3  C8  UNL     1      26.662   1.583  52.113  1.00  0.00     0.046 A 
HETATM    4  N2  UNL     1      27.095   2.497  51.321  1.00  0.00    -0.264 NA
HETATM    5  C9  UNL     1      26.175   3.393  50.725  1.00  0.00     0.137 A 
HETATM    6  C10 UNL     1      24.876   3.302  50.963  1.00  0.00     0.067 A 
HETATM    7  C11 UNL     1      24.132   4.331  50.247  1.00  0.00     0.099 C 
HETATM    8  N3  UNL     1      23.511   5.155  49.676  1.00  0.00    -0.192 NA
HETATM    9  C12 UNL     1      24.162   2.271  51.815  1.00  0.00     0.163 A 
HETATM   10  C19 UNL     1      27.874   0.811  52.572  1.00  0.00     0.091 C 
HETATM   11  C20 UNL     1      27.590   0.209  53.932  1.00  0.00     0.123 C 
HETATM   12  C21 UNL     1      28.908  -0.355  54.433  1.00  0.00     0.040 C 
HETATM   13  O2  UNL     1      26.709  -0.836  53.803  1.00  0.00    -0.381 OA
HETATM   14  C22 UNL     1      25.415  -0.517  54.155  1.00  0.00     0.210 C 
ENDROOT
BRANCH   9  15
HETATM   15  N4  UNL     1      23.253   1.515  50.968  1.00  0.00    -0.376 N 
HETATM   16  H11 UNL     1      23.623   0.518  50.892  1.00  0.00     0.160 HD
BRANCH  15  17
HETATM   17  C13 UNL     1      22.048   1.793  50.257  1.00  0.00     0.030 A 
HETATM   18  C14 UNL     1      21.936   1.733  48.886  1.00  0.00     0.032 A 
HETATM   19  C15 UNL     1      20.772   1.978  48.187  1.00  0.00     0.046 A 
HETATM   20  C16 UNL     1      19.682   2.301  48.969  1.00  0.00     0.138 A 
HETATM   21  F1  UNL     1      18.495   2.558  48.381  1.00  0.00    -0.204 F 
HETATM   22  C17 UNL     1      19.757   2.369  50.327  1.00  0.00     0.074 A 
HETATM   23 CL1  UNL     1      18.343   2.783  51.258  1.00  0.00    -0.081 Cl
HETATM   24  C18 UNL     1      20.926   2.120  50.983  1.00  0.00     0.056 A 
ENDBRANCH  15  17
ENDBRANCH   9  15
BRANCH   1  25
HETATM   25  C5  UNL     1      23.422   0.527  53.494  1.00  0.00     0.086 A 
HETATM   26  C4  UNL     1      22.523  -0.610  53.645  1.00  0.00     0.192 A 
HETATM   27  O1  UNL     1      22.251   0.922  53.653  1.00  0.00    -0.340 OA
BRANCH  26  28
HETATM   28  C3  UNL     1      21.233  -0.547  53.825  1.00  0.00     0.058 C 
BRANCH  28  29
HETATM   29  C2  UNL     1      20.433  -1.748  54.181  1.00  0.00     0.277 C 
BRANCH  29  30
HETATM   30  N1  UNL     1      19.036  -1.615  53.870  1.00  0.00     0.079 N 
HETATM   31  C1  UNL     1      18.809  -0.556  52.882  1.00  0.00     0.306 C 
HETATM   32  H4  UNL     1      18.453  -1.366  54.684  1.00  0.00     0.315 HD
ENDBRANCH  29  30
ENDBRANCH  28  29
ENDBRANCH  26  28
ENDBRANCH   1  25
TORSDOF 6
ENDMDL
MODEL 5
REMARK VINA RESULT:      -8.0      3.873      6.538
REMARK  6 active torsions:
REMARK  status: ('A' for Active; 'I' for Inactive)
REMARK    1  A    between atoms: N1_2  and  C2_3 
REMARK    2  A    between atoms: C2_3  and  C3_4 
REMARK    3  A    between atoms: C3_4  and  C4_5 
REMARK    4  A    between atoms: C5_6  and  C6_8 
REMARK    5  A    between atoms: C12_16  and  N4_17 
REMARK    6  A    between atoms: N4_17  and  C13_18 
ROOT
HETATM    1  C6  UNL     1      25.642   1.685  51.758  1.00  0.00     0.008 C 
HETATM    2  C7  UNL     1      24.652   1.018  52.346  1.00  0.00     0.005 A 
HETATM    3  C8  UNL     1      24.994   0.053  53.382  1.00  0.00     0.046 A 
HETATM    4  N2  UNL     1      24.088  -0.668  53.939  1.00  0.00    -0.264 NA
HETATM    5  C9  UNL     1      22.737  -0.516  53.539  1.00  0.00     0.137 A 
HETATM    6  C10 UNL     1      22.391   0.360  52.609  1.00  0.00     0.067 A 
HETATM    7  C11 UNL     1      20.955   0.333  52.363  1.00  0.00     0.099 C 
HETATM    8  N3  UNL     1      19.795   0.327  52.150  1.00  0.00    -0.192 NA
HETATM    9  C12 UNL     1      23.292   1.336  51.876  1.00  0.00     0.163 A 
HETATM   10  C19 UNL     1      26.303  -0.347  54.018  1.00  0.00     0.091 C 
HETATM   11  C20 UNL     1      27.428  -0.090  53.038  1.00  0.00     0.123 C 
HETATM   12  C21 UNL     1      28.672  -0.716  53.643  1.00  0.00     0.040 C 
HETATM   13  O2  UNL     1      27.649   1.260  52.928  1.00  0.00    -0.381 OA
HETATM   14  C22 UNL     1      27.110   1.820  51.789  1.00  0.00     0.210 C 
ENDROOT
BRANCH   9  15
HETATM   15  N4  UNL     1      22.862   2.690  52.185  1.00  0.00    -0.376 N 
HETATM   16  H11 UNL     1      23.238   2.945  53.149  1.00  0.00     0.160 HD
BRANCH  15  17
HETATM   17  C13 UNL     1      22.093   3.694  51.525  1.00  0.00     0.030 A 
HETATM   18  C14 UNL     1      22.226   5.043  51.766  1.00  0.00     0.032 A 
HETATM   19  C15 UNL     1      21.505   6.025  51.119  1.00  0.00     0.046 A 
HETATM   20  C16 UNL     1      20.606   5.563  50.180  1.00  0.00     0.138 A 
HETATM   21  F1  UNL     1      19.852   6.446  49.491  1.00  0.00    -0.204 F 
HETATM   22  C17 UNL     1      20.449   4.236  49.916  1.00  0.00     0.074 A 
HETATM   23 CL1  UNL     1      19.295   3.717  48.717  1.00  0.00    -0.081 Cl
HETATM   24  C18 UNL     1      21.180   3.294  50.577  1.00  0.00     0.056 A 
ENDBRANCH  15  17
ENDBRANCH   9  15
BRANCH   1  25
HETATM   25  C5  UNL     1      25.164   2.608  50.744  1.00  0.00     0.086 A 
HETATM   26  C4  UNL     1      25.648   3.942  50.412  1.00  0.00     0.192 A 
HETATM   27  O1  UNL     1      24.495   3.088  49.809  1.00  0.00    -0.340 OA
BRANCH  26  28
HETATM   28  C3  UNL     1      25.166   4.721  49.484  1.00  0.00     0.058 C 
BRANCH  28  29
HETATM   29  C2  UNL     1      25.762   6.052  49.193  1.00  0.00     0.277 C 
BRANCH  29  30
HETATM   30  N1  UNL     1      26.093   6.799  50.376  1.00  0.00     0.079 N 
HETATM   31  C1  UNL     1      26.441   8.185  50.050  1.00  0.00     0.306 C 
HETATM   32  H4  UNL     1      26.904   6.422  50.890  1.00  0.00     0.315 HD
ENDBRANCH  29  30
ENDBRANCH  28  29
ENDBRANCH  26  28
ENDBRANCH   1  25
TORSDOF 6
ENDMDL
MODEL 6
REMARK VINA RESULT:      -7.9      3.185      5.977
REMARK  6 active torsions:
REMARK  status: ('A' for Active; 'I' for Inactive)
REMARK    1  A    between atoms: N1_2  and  C2_3 
REMARK    2  A    between atoms: C2_3  and  C3_4 
REMARK    3  A    between atoms: C3_4  and  C4_5 
REMARK    4  A    between atoms: C5_6  and  C6_8 
REMARK    5  A    between atoms: C12_16  and  N4_17 
REMARK    6  A    between atoms: N4_17  and  C13_18 
ROOT
HETATM    1  C6  UNL     1      21.741   0.012  52.606  1.00  0.00     0.008 C 
HETATM    2  C7  UNL     1      21.199   0.595  51.539  1.00  0.00     0.005 A 
HETATM    3  C8  UNL     1      19.763   0.458  51.336  1.00  0.00     0.046 A 
HETATM    4  N2  UNL     1      19.195   0.943  50.291  1.00  0.00    -0.264 NA
HETATM    5  C9  UNL     1      19.979   1.623  49.326  1.00  0.00     0.137 A 
HETATM    6  C10 UNL     1      21.284   1.774  49.486  1.00  0.00     0.067 A 
HETATM    7  C11 UNL     1      21.875   2.498  48.367  1.00  0.00     0.099 C 
HETATM    8  N3  UNL     1      22.372   3.082  47.472  1.00  0.00    -0.192 NA
HETATM    9  C12 UNL     1      22.129   1.330  50.664  1.00  0.00     0.163 A 
HETATM   10  C19 UNL     1      18.671  -0.194  52.147  1.00  0.00     0.091 C 
HETATM   11  C20 UNL     1      19.271  -1.307  52.980  1.00  0.00     0.123 C 
HETATM   12  C21 UNL     1      18.103  -2.061  53.590  1.00  0.00     0.040 C 
HETATM   13  O2  UNL     1      20.009  -0.774  54.006  1.00  0.00    -0.381 OA
HETATM   14  C22 UNL     1      21.369  -0.796  53.782  1.00  0.00     0.210 C 
ENDROOT
BRANCH   9  15
HETATM   15  N4  UNL     1      22.720   2.505  51.284  1.00  0.00    -0.376 N 
HETATM   16  H11 UNL     1      22.445   2.509  52.314  1.00  0.00     0.160 HD
BRANCH  15  17
HETATM   17  C13 UNL     1      23.535   3.590  50.848  1.00  0.00     0.030 A 
HETATM   18  C14 UNL     1      23.189   4.916  50.993  1.00  0.00     0.032 A 
HETATM   19  C15 UNL     1      23.979   5.975  50.595  1.00  0.00     0.046 A 
HETATM   20  C16 UNL     1      25.182   5.620  50.021  1.00  0.00     0.138 A 
HETATM   21  F1  UNL     1      26.027   6.585  49.598  1.00  0.00    -0.204 F 
HETATM   22  C17 UNL     1      25.555   4.320  49.862  1.00  0.00     0.074 A 
HETATM   23 CL1  UNL     1      27.090   3.939  49.128  1.00  0.00    -0.081 Cl
HETATM   24  C18 UNL     1      24.748   3.300  50.268  1.00  0.00     0.056 A 
ENDBRANCH  15  17
ENDBRANCH   9  15
BRANCH   1  25
HETATM   25  C5  UNL     1      23.175   0.221  52.685  1.00  0.00     0.086 A 
HETATM   26  C4  UNL     1      24.121  -0.255  53.687  1.00  0.00     0.192 A 
HETATM   27  O1  UNL     1      24.326   0.610  52.408  1.00  0.00    -0.340 OA
BRANCH  26  28
HETATM   28  C3  UNL     1      25.405  -0.025  53.696  1.00  0.00     0.058 C 
BRANCH  28  29
HETATM   29  C2  UNL     1      26.202  -0.097  54.948  1.00  0.00     0.277 C 
BRANCH  29  30
HETATM   30  N1  UNL     1      27.615  -0.237  54.717  1.00  0.00     0.079 N 
HETATM   31  C1  UNL     1      27.892  -0.608  53.326  1.00  0.00     0.306 C 
HETATM   32  H4  UNL     1      28.059  -0.967  55.294  1.00  0.00     0.315 HD
ENDBRANCH  29  30
ENDBRANCH  28  29
ENDBRANCH  26  28
ENDBRANCH   1  25
TORSDOF 6
ENDMDL
MODEL 7
REMARK VINA RESULT:      -7.9      4.369      8.467
REMARK  6 active torsions:
REMARK  status: ('A' for Active; 'I' for Inactive)
REMARK    1  A    between atoms: N1_2  and  C2_3 
REMARK    2  A    between atoms: C2_3  and  C3_4 
REMARK    3  A    between atoms: C3_4  and  C4_5 
REMARK    4  A    between atoms: C5_6  and  C6_8 
REMARK    5  A    between atoms: C12_16  and  N4_17 
REMARK    6  A    between atoms: N4_17  and  C13_18 
ROOT
HETATM    1  C6  UNL     1      23.444   0.566  53.027  1.00  0.00     0.008 C 
HETATM    2  C7  UNL     1      23.720   1.621  52.263  1.00  0.00     0.005 A 
HETATM    3  C8  UNL     1      25.079   1.769  51.762  1.00  0.00     0.046 A 
HETATM    4  N2  UNL     1      25.421   2.800  51.076  1.00  0.00    -0.264 NA
HETATM    5  C9  UNL     1      24.458   3.802  50.801  1.00  0.00     0.137 A 
HETATM    6  C10 UNL     1      23.211   3.692  51.233  1.00  0.00     0.067 A 
HETATM    7  C11 UNL     1      22.409   4.842  50.834  1.00  0.00     0.099 C 
HETATM    8  N3  UNL     1      21.743   5.763  50.522  1.00  0.00    -0.192 NA
HETATM    9  C12 UNL     1      22.598   2.539  52.003  1.00  0.00     0.163 A 
HETATM   10  C19 UNL     1      26.314   0.909  51.877  1.00  0.00     0.091 C 
HETATM   11  C20 UNL     1      26.225   0.083  53.143  1.00  0.00     0.123 C 
HETATM   12  C21 UNL     1      27.580  -0.580  53.316  1.00  0.00     0.040 C 
HETATM   13  O2  UNL     1      25.289  -0.908  52.987  1.00  0.00    -0.381 OA
HETATM   14  C22 UNL     1      24.083  -0.634  53.597  1.00  0.00     0.210 C 
ENDROOT
BRANCH   9  15
HETATM   15  N4  UNL     1      21.531   1.958  51.204  1.00  0.00    -0.376 N 
HETATM   16  H11 UNL     1      21.970   1.269  50.519  1.00  0.00     0.160 HD
BRANCH  15  17
HETATM   17  C13 UNL     1      20.114   2.097  51.134  1.00  0.00     0.030 A 
HETATM   18  C14 UNL     1      19.424   3.180  51.633  1.00  0.00     0.032 A 
HETATM   19  C15 UNL     1      18.056   3.337  51.553  1.00  0.00     0.046 A 
HETATM   20  C16 UNL     1      17.389   2.308  50.920  1.00  0.00     0.138 A 
HETATM   21  F1  UNL     1      16.047   2.367  50.790  1.00  0.00    -0.204 F 
HETATM   22  C17 UNL     1      18.039   1.223  50.415  1.00  0.00     0.074 A 
HETATM   23 CL1  UNL     1      17.137  -0.043  49.627  1.00  0.00    -0.081 Cl
HETATM   24  C18 UNL     1      19.393   1.103  50.514  1.00  0.00     0.056 A 
ENDBRANCH  15  17
ENDBRANCH   9  15
BRANCH   1  25
HETATM   25  C5  UNL     1      22.059   0.542  53.462  1.00  0.00     0.086 A 
HETATM   26  C4  UNL     1      21.102  -0.557  53.429  1.00  0.00     0.192 A 
HETATM   27  O1  UNL     1      20.963   0.911  53.926  1.00  0.00    -0.340 OA
BRANCH  26  28
HETATM   28  C3  UNL     1      19.865  -0.506  53.837  1.00  0.00     0.058 C 
BRANCH  28  29
HETATM   29  C2  UNL     1      18.775  -1.219  53.119  1.00  0.00     0.277 C 
BRANCH  29  30
HETATM   30  N1  UNL     1      17.786  -1.781  53.999  1.00  0.00     0.079 N 
HETATM   31  C1  UNL     1      17.496  -3.175  53.651  1.00  0.00     0.306 C 
HETATM   32  H4  UNL     1      16.879  -1.291  53.968  1.00  0.00     0.315 HD
ENDBRANCH  29  30
ENDBRANCH  28  29
ENDBRANCH  26  28
ENDBRANCH   1  25
TORSDOF 6
ENDMDL
MODEL 8
REMARK VINA RESULT:      -7.4      4.407      7.098
REMARK  6 active torsions:
REMARK  status: ('A' for Active; 'I' for Inactive)
REMARK    1  A    between atoms: N1_2  and  C2_3 
REMARK    2  A    between atoms: C2_3  and  C3_4 
REMARK    3  A    between atoms: C3_4  and  C4_5 
REMARK    4  A    between atoms: C5_6  and  C6_8 
REMARK    5  A    between atoms: C12_16  and  N4_17 
REMARK    6  A    between atoms: N4_17  and  C13_18 
ROOT
HETATM    1  C6  UNL     1      24.772   2.535  51.596  1.00  0.00     0.008 C 
HETATM    2  C7  UNL     1      23.587   2.072  51.203  1.00  0.00     0.005 A 
HETATM    3  C8  UNL     1      23.027   0.929  51.911  1.00  0.00     0.046 A 
HETATM    4  N2  UNL     1      21.919   0.398  51.535  1.00  0.00    -0.264 NA
HETATM    5  C9  UNL     1      21.234   0.937  50.418  1.00  0.00     0.137 A 
HETATM    6  C10 UNL     1      21.710   1.982  49.760  1.00  0.00     0.067 A 
HETATM    7  C11 UNL     1      20.840   2.352  48.651  1.00  0.00     0.099 C 
HETATM    8  N3  UNL     1      20.149   2.668  47.749  1.00  0.00    -0.192 NA
HETATM    9  C12 UNL     1      22.960   2.782  50.074  1.00  0.00     0.163 A 
HETATM   10  C19 UNL     1      23.494   0.134  53.104  1.00  0.00     0.091 C 
HETATM   11  C20 UNL     1      25.003   0.218  53.195  1.00  0.00     0.123 C 
HETATM   12  C21 UNL     1      25.423  -0.775  54.264  1.00  0.00     0.040 C 
HETATM   13  O2  UNL     1      25.374   1.470  53.616  1.00  0.00    -0.381 OA
HETATM   14  C22 UNL     1      25.822   2.287  52.600  1.00  0.00     0.210 C 
ENDROOT
BRANCH   9  15
HETATM   15  N4  UNL     1      22.575   4.151  50.377  1.00  0.00    -0.376 N 
HETATM   16  H11 UNL     1      22.477   4.240  51.434  1.00  0.00     0.160 HD
BRANCH  15  17
HETATM   17  C13 UNL     1      22.314   5.330  49.619  1.00  0.00     0.030 A 
HETATM   18  C14 UNL     1      21.840   6.503  50.166  1.00  0.00     0.032 A 
HETATM   19  C15 UNL     1      21.604   7.657  49.448  1.00  0.00     0.046 A 
HETATM   20  C16 UNL     1      21.879   7.569  48.099  1.00  0.00     0.138 A 
HETATM   21  F1  UNL     1      21.681   8.647  47.309  1.00  0.00    -0.204 F 
HETATM   22  C17 UNL     1      22.348   6.427  47.526  1.00  0.00     0.074 A 
HETATM   23 CL1  UNL     1      22.674   6.382  45.814  1.00  0.00    -0.081 Cl
HETATM   24  C18 UNL     1      22.569   5.305  48.268  1.00  0.00     0.056 A 
ENDBRANCH  15  17
ENDBRANCH   9  15
BRANCH   1  25
HETATM   25  C5  UNL     1      25.215   3.669  50.805  1.00  0.00     0.086 A 
HETATM   26  C4  UNL     1      26.153   3.704  49.690  1.00  0.00     0.192 A 
HETATM   27  O1  UNL     1      25.339   4.835  50.383  1.00  0.00    -0.340 OA
BRANCH  26  28
HETATM   28  C3  UNL     1      26.509   4.766  49.023  1.00  0.00     0.058 C 
BRANCH  28  29
HETATM   29  C2  UNL     1      27.907   4.966  48.559  1.00  0.00     0.277 C 
BRANCH  29  30
HETATM   30  N1  UNL     1      28.423   6.277  48.850  1.00  0.00     0.079 N 
HETATM   31  C1  UNL     1      27.376   7.296  48.736  1.00  0.00     0.306 C 
HETATM   32  H4  UNL     1      29.174   6.577  48.211  1.00  0.00     0.315 HD
ENDBRANCH  29  30
ENDBRANCH  28  29
ENDBRANCH  26  28
ENDBRANCH   1  25
TORSDOF 6
ENDMDL
MODEL 9
REMARK VINA RESULT:      -7.4      4.112      8.045
REMARK  6 active torsions:
REMARK  status: ('A' for Active; 'I' for Inactive)
REMARK    1  A    between atoms: N1_2  and  C2_3 
REMARK    2  A    between atoms: C2_3  and  C3_4 
REMARK    3  A    between atoms: C3_4  and  C4_5 
REMARK    4  A    between atoms: C5_6  and  C6_8 
REMARK    5  A    between atoms: C12_16  and  N4_17 
REMARK    6  A    between atoms: N4_17  and  C13_18 
ROOT
HETATM    1  C6  UNL     1      24.123   1.162  52.475  1.00  0.00     0.008 C 
HETATM    2  C7  UNL     1      24.795   1.990  51.677  1.00  0.00     0.005 A 
HETATM    3  C8  UNL     1      26.244   1.860  51.617  1.00  0.00     0.046 A 
HETATM    4  N2  UNL     1      26.952   2.672  50.917  1.00  0.00    -0.264 NA
HETATM    5  C9  UNL     1      26.308   3.706  50.192  1.00  0.00     0.137 A 
HETATM    6  C10 UNL     1      24.992   3.845  50.217  1.00  0.00     0.067 A 
HETATM    7  C11 UNL     1      24.563   4.975  49.404  1.00  0.00     0.099 C 
HETATM    8  N3  UNL     1      24.195   5.885  48.751  1.00  0.00    -0.192 NA
HETATM    9  C12 UNL     1      23.983   2.965  50.929  1.00  0.00     0.163 A 
HETATM   10  C19 UNL     1      27.214   0.897  52.256  1.00  0.00     0.091 C 
HETATM   11  C20 UNL     1      26.615   0.374  53.544  1.00  0.00     0.123 C 
HETATM   12  C21 UNL     1      27.718  -0.402  54.244  1.00  0.00     0.040 C 
HETATM   13  O2  UNL     1      25.599  -0.504  53.261  1.00  0.00    -0.381 OA
HETATM   14  C22 UNL     1      24.340   0.039  53.404  1.00  0.00     0.210 C 
ENDROOT
BRANCH   9  15
HETATM   15  N4  UNL     1      23.104   2.366  49.938  1.00  0.00    -0.376 N 
HETATM   16  H11 UNL     1      23.334   1.326  49.879  1.00  0.00     0.160 HD
BRANCH  15  17
HETATM   17  C13 UNL     1      22.067   2.830  49.076  1.00  0.00     0.030 A 
HETATM   18  C14 UNL     1      20.801   3.158  49.509  1.00  0.00     0.032 A 
HETATM   19  C15 UNL     1      19.796   3.629  48.690  1.00  0.00     0.046 A 
HETATM   20  C16 UNL     1      20.142   3.760  47.361  1.00  0.00     0.138 A 
HETATM   21  F1  UNL     1      19.228   4.215  46.477  1.00  0.00    -0.204 F 
HETATM   22  C17 UNL     1      21.384   3.446  46.899  1.00  0.00     0.074 A 
HETATM   23 CL1  UNL     1      21.757   3.634  45.207  1.00  0.00    -0.081 Cl
HETATM   24  C18 UNL     1      22.352   2.982  47.739  1.00  0.00     0.056 A 
ENDBRANCH  15  17
ENDBRANCH   9  15
BRANCH   1  25
HETATM   25  C5  UNL     1      22.691   1.402  52.445  1.00  0.00     0.086 A 
HETATM   26  C4  UNL     1      21.597   0.440  52.406  1.00  0.00     0.192 A 
HETATM   27  O1  UNL     1      21.597   1.997  52.428  1.00  0.00    -0.340 OA
BRANCH  26  28
HETATM   28  C3  UNL     1      20.326   0.730  52.378  1.00  0.00     0.058 C 
BRANCH  28  29
HETATM   29  C2  UNL     1      19.285  -0.296  52.652  1.00  0.00     0.277 C 
BRANCH  29  30
HETATM   30  N1  UNL     1      18.306  -0.408  51.604  1.00  0.00     0.079 N 
HETATM   31  C1  UNL     1      18.235   0.820  50.809  1.00  0.00     0.306 C 
HETATM   32  H4  UNL     1      17.348  -0.573  51.949  1.00  0.00     0.315 HD
ENDBRANCH  29  30
ENDBRANCH  28  29
ENDBRANCH  26  28
ENDBRANCH   1  25
TORSDOF 6
ENDMDL
