MODEL 1
REMARK VINA RESULT:      -7.5      0.000      0.000
REMARK  7 active torsions:
REMARK  status: ('A' for Active; 'I' for Inactive)
REMARK    1  A    between atoms: C5_5  and  N1_6 
REMARK       I    between atoms: N1_6  and  C6_7 
REMARK    2  A    between atoms: C6_7  and  C7_9 
REMARK    3  A    between atoms: C7_9  and  P1_10 
REMARK    4  A    between atoms: C7_9  and  C8_11 
REMARK    5  A    between atoms: C8_11  and  C9_12 
REMARK    6  A    between atoms: C12_15  and  O2_16 
REMARK    7  A    between atoms: C14_18  and  O3_19 
ROOT
HETATM    1  C7  UNL     1      23.709   3.162  51.907  1.00  0.00     0.105 C 
ENDROOT
BRANCH   1   2
HETATM    2  C6  UNL     1      24.953   2.505  52.383  1.00  0.00     0.230 C 
HETATM    3  N1  UNL     1      25.504   2.552  53.680  1.00  0.00    -0.327 N 
HETATM    4  H6  UNL     1      24.962   3.122  54.385  1.00  0.00     0.169 HD
HETATM    5  O1  UNL     1      25.618   1.808  51.541  1.00  0.00    -0.272 OA
BRANCH   3   6
HETATM    6  C5  UNL     1      26.710   1.765  53.669  1.00  0.00     0.034 A 
HETATM    7  C4  UNL     1      27.968   2.302  53.454  1.00  0.00     0.030 A 
HETATM    8  C3  UNL     1      29.043   1.446  53.465  1.00  0.00     0.009 A 
HETATM    9  C2  UNL     1      28.890   0.099  53.680  1.00  0.00    -0.062 A 
HETATM   10  C1  UNL     1      30.024  -0.846  53.697  1.00  0.00     0.048 C 
HETATM   11  C16 UNL     1      27.639  -0.442  53.895  1.00  0.00     0.009 A 
HETATM   12  C15 UNL     1      26.555   0.419  53.884  1.00  0.00     0.030 A 
ENDBRANCH   3   6
ENDBRANCH   1   2
BRANCH   1  13
HETATM   13  P1  UNL     1      24.196   4.585  50.827  1.00  0.00    -0.127 P 
HETATM   14  H8  UNL     1      25.648   4.631  50.780  1.00  0.00     0.055 HD
HETATM   15  H9  UNL     1      23.784   4.199  49.470  1.00  0.00     0.055 HD
ENDBRANCH   1  13
BRANCH   1  16
HETATM   16  C8  UNL     1      22.740   2.217  51.280  1.00  0.00     0.060 C 
BRANCH  16  17
HETATM   17  C9  UNL     1      22.143   1.264  52.239  1.00  0.00    -0.024 A 
HETATM   18  C10 UNL     1      22.757   0.030  52.425  1.00  0.00     0.012 A 
HETATM   19  C11 UNL     1      22.349  -0.966  53.289  1.00  0.00     0.037 A 
HETATM   20  C12 UNL     1      21.224  -0.721  54.043  1.00  0.00     0.068 A 
HETATM   21  C13 UNL     1      20.569   0.477  53.907  1.00  0.00     0.073 A 
HETATM   22  C14 UNL     1      21.038   1.413  53.030  1.00  0.00     0.074 A 
BRANCH  20  23
HETATM   23  O2  UNL     1      20.732  -1.659  54.941  1.00  0.00    -0.361 OA
HETATM   24  H14 UNL     1      20.631  -1.407  55.927  1.00  0.00     0.217 HD
ENDBRANCH  20  23
BRANCH  22  25
HETATM   25  O3  UNL     1      20.337   2.606  52.929  1.00  0.00    -0.360 OA
HETATM   26  H16 UNL     1      20.807   3.396  52.462  1.00  0.00     0.217 HD
ENDBRANCH  22  25
ENDBRANCH  16  17
ENDBRANCH   1  16
TORSDOF 7
ENDMDL
MODEL 2
REMARK VINA RESULT:      -7.5      1.869      2.301
REMARK  7 active torsions:
REMARK  status: ('A' for Active; 'I' for Inactive)
REMARK    1  A    between atoms: C5_5  and  N1_6 
REMARK       I    between atoms: N1_6  and  C6_7 
REMARK    2  A    between atoms: C6_7  and  C7_9 
REMARK    3  A    between atoms: C7_9  and  P1_10 
REMARK    4  A    between atoms: C7_9  and  C8_11 
REMARK    5  A    between atoms: C8_11  and  C9_12 
REMARK    6  A    between atoms: C12_15  and  O2_16 
REMARK    7  A    between atoms: C14_18  and  O3_19 
ROOT
HETATM    1  C7  UNL     1      22.936   1.550  52.348  1.00  0.00     0.105 C 
ENDROOT
BRANCH   1   2
HETATM    2  C6  UNL     1      24.246   0.933  52.678  1.00  0.00     0.230 C 
HETATM    3  N1  UNL     1      24.509  -0.051  53.653  1.00  0.00    -0.327 N 
HETATM    4  H6  UNL     1      23.670  -0.379  54.206  1.00  0.00     0.169 HD
HETATM    5  O1  UNL     1      25.270   1.319  52.014  1.00  0.00    -0.272 OA
BRANCH   3   6
HETATM    6  C5  UNL     1      25.918  -0.341  53.610  1.00  0.00     0.034 A 
HETATM    7  C4  UNL     1      26.478  -1.274  52.754  1.00  0.00     0.030 A 
HETATM    8  C3  UNL     1      27.839  -1.461  52.810  1.00  0.00     0.009 A 
HETATM    9  C2  UNL     1      28.629  -0.754  53.680  1.00  0.00    -0.062 A 
HETATM   10  C1  UNL     1      30.093  -0.933  53.763  1.00  0.00     0.048 C 
HETATM   11  C16 UNL     1      28.077   0.177  54.534  1.00  0.00     0.009 A 
HETATM   12  C15 UNL     1      26.708   0.368  54.481  1.00  0.00     0.030 A 
ENDBRANCH   3   6
ENDBRANCH   1   2
BRANCH   1  13
HETATM   13  P1  UNL     1      23.247   3.298  51.823  1.00  0.00    -0.127 P 
HETATM   14  H8  UNL     1      23.997   3.261  50.579  1.00  0.00     0.055 HD
HETATM   15  H9  UNL     1      21.928   3.833  51.457  1.00  0.00     0.055 HD
ENDBRANCH   1  13
BRANCH   1  16
HETATM   16  C8  UNL     1      22.129   0.751  51.381  1.00  0.00     0.060 C 
BRANCH  16  17
HETATM   17  C9  UNL     1      20.877   0.218  51.958  1.00  0.00    -0.024 A 
HETATM   18  C10 UNL     1      20.932  -0.444  53.179  1.00  0.00     0.012 A 
HETATM   19  C11 UNL     1      19.865  -0.985  53.867  1.00  0.00     0.037 A 
HETATM   20  C12 UNL     1      18.619  -0.861  53.292  1.00  0.00     0.068 A 
HETATM   21  C13 UNL     1      18.495  -0.219  52.086  1.00  0.00     0.073 A 
HETATM   22  C14 UNL     1      19.602   0.290  51.468  1.00  0.00     0.074 A 
BRANCH  20  23
HETATM   23  O2  UNL     1      17.483  -1.371  53.904  1.00  0.00    -0.361 OA
HETATM   24  H14 UNL     1      16.771  -0.727  54.259  1.00  0.00     0.217 HD
ENDBRANCH  20  23
BRANCH  22  25
HETATM   25  O3  UNL     1      19.421   0.927  50.249  1.00  0.00    -0.360 OA
HETATM   26  H16 UNL     1      19.585   1.943  50.215  1.00  0.00     0.217 HD
ENDBRANCH  22  25
ENDBRANCH  16  17
ENDBRANCH   1  16
TORSDOF 7
ENDMDL
MODEL 3
REMARK VINA RESULT:      -7.5      1.784      2.396
REMARK  7 active torsions:
REMARK  status: ('A' for Active; 'I' for Inactive)
REMARK    1  A    between atoms: C5_5  and  N1_6 
REMARK       I    between atoms: N1_6  and  C6_7 
REMARK    2  A    between atoms: C6_7  and  C7_9 
REMARK    3  A    between atoms: C7_9  and  P1_10 
REMARK    4  A    between atoms: C7_9  and  C8_11 
REMARK    5  A    between atoms: C8_11  and  C9_12 
REMARK    6  A    between atoms: C12_15  and  O2_16 
REMARK    7  A    between atoms: C14_18  and  O3_19 
ROOT
HETATM    1  C7  UNL     1      22.957   1.537  52.448  1.00  0.00     0.105 C 
ENDROOT
BRANCH   1   2
HETATM    2  C6  UNL     1      24.285   1.009  52.851  1.00  0.00     0.230 C 
HETATM    3  N1  UNL     1      24.550  -0.052  53.742  1.00  0.00    -0.327 N 
HETATM    4  H6  UNL     1      23.700  -0.516  54.164  1.00  0.00     0.169 HD
HETATM    5  O1  UNL     1      25.324   1.559  52.346  1.00  0.00    -0.272 OA
BRANCH   3   6
HETATM    6  C5  UNL     1      25.979  -0.206  53.821  1.00  0.00     0.034 A 
HETATM    7  C4  UNL     1      26.766   0.454  54.750  1.00  0.00     0.030 A 
HETATM    8  C3  UNL     1      28.121   0.225  54.723  1.00  0.00     0.009 A 
HETATM    9  C2  UNL     1      28.691  -0.627  53.810  1.00  0.00    -0.062 A 
HETATM   10  C1  UNL     1      30.142  -0.894  53.756  1.00  0.00     0.048 C 
HETATM   11  C16 UNL     1      27.912  -1.288  52.883  1.00  0.00     0.009 A 
HETATM   12  C15 UNL     1      26.547  -1.059  52.908  1.00  0.00     0.030 A 
ENDBRANCH   3   6
ENDBRANCH   1   2
BRANCH   1  13
HETATM   13  P1  UNL     1      23.214   3.218  51.713  1.00  0.00    -0.127 P 
HETATM   14  H8  UNL     1      23.789   4.069  52.740  1.00  0.00     0.055 HD
HETATM   15  H9  UNL     1      24.282   3.045  50.718  1.00  0.00     0.055 HD
ENDBRANCH   1  13
BRANCH   1  16
HETATM   16  C8  UNL     1      22.181   0.600  51.585  1.00  0.00     0.060 C 
BRANCH  16  17
HETATM   17  C9  UNL     1      20.960   0.077  52.234  1.00  0.00    -0.024 A 
HETATM   18  C10 UNL     1      19.721   0.468  51.738  1.00  0.00     0.012 A 
HETATM   19  C11 UNL     1      18.487   0.064  52.207  1.00  0.00     0.037 A 
HETATM   20  C12 UNL     1      18.474  -0.811  53.270  1.00  0.00     0.068 A 
HETATM   21  C13 UNL     1      19.663  -1.235  53.807  1.00  0.00     0.073 A 
HETATM   22  C14 UNL     1      20.844  -0.789  53.285  1.00  0.00     0.074 A 
BRANCH  20  23
HETATM   23  O2  UNL     1      17.285  -1.276  53.815  1.00  0.00    -0.361 OA
HETATM   24  H14 UNL     1      16.402  -1.077  53.338  1.00  0.00     0.217 HD
ENDBRANCH  20  23
BRANCH  22  25
HETATM   25  O3  UNL     1      22.018  -1.247  53.866  1.00  0.00    -0.360 OA
HETATM   26  H16 UNL     1      22.703  -0.542  54.173  1.00  0.00     0.217 HD
ENDBRANCH  22  25
ENDBRANCH  16  17
ENDBRANCH   1  16
TORSDOF 7
ENDMDL
MODEL 4
REMARK VINA RESULT:      -7.3      3.223      4.716
REMARK  7 active torsions:
REMARK  status: ('A' for Active; 'I' for Inactive)
REMARK    1  A    between atoms: C5_5  and  N1_6 
REMARK       I    between atoms: N1_6  and  C6_7 
REMARK    2  A    between atoms: C6_7  and  C7_9 
REMARK    3  A    between atoms: C7_9  and  P1_10 
REMARK    4  A    between atoms: C7_9  and  C8_11 
REMARK    5  A    between atoms: C8_11  and  C9_12 
REMARK    6  A    between atoms: C12_15  and  O2_16 
REMARK    7  A    between atoms: C14_18  and  O3_19 
ROOT
HETATM    1  C7  UNL     1      22.511   2.870  51.904  1.00  0.00     0.105 C 
ENDROOT
BRANCH   1   2
HETATM    2  C6  UNL     1      23.540   3.534  51.063  1.00  0.00     0.230 C 
HETATM    3  N1  UNL     1      23.882   3.231  49.729  1.00  0.00    -0.327 N 
HETATM    4  H6  UNL     1      23.338   2.439  49.288  1.00  0.00     0.169 HD
HETATM    5  O1  UNL     1      24.204   4.496  51.583  1.00  0.00    -0.272 OA
BRANCH   3   6
HETATM    6  C5  UNL     1      24.928   4.136  49.331  1.00  0.00     0.034 A 
HETATM    7  C4  UNL     1      24.692   5.435  48.913  1.00  0.00     0.030 A 
HETATM    8  C3  UNL     1      25.777   6.202  48.557  1.00  0.00     0.009 A 
HETATM    9  C2  UNL     1      27.056   5.709  48.609  1.00  0.00    -0.062 A 
HETATM   10  C1  UNL     1      28.241   6.507  48.234  1.00  0.00     0.048 C 
HETATM   11  C16 UNL     1      27.297   4.417  49.026  1.00  0.00     0.009 A 
HETATM   12  C15 UNL     1      26.207   3.643  49.384  1.00  0.00     0.030 A 
ENDBRANCH   3   6
ENDBRANCH   1   2
BRANCH   1  13
HETATM   13  P1  UNL     1      20.946   3.851  51.767  1.00  0.00    -0.127 P 
HETATM   14  H8  UNL     1      19.832   2.943  51.983  1.00  0.00     0.055 HD
HETATM   15  H9  UNL     1      20.944   4.742  52.935  1.00  0.00     0.055 HD
ENDBRANCH   1  13
BRANCH   1  16
HETATM   16  C8  UNL     1      22.354   1.416  51.613  1.00  0.00     0.060 C 
BRANCH  16  17
HETATM   17  C9  UNL     1      22.659   0.548  52.770  1.00  0.00    -0.024 A 
HETATM   18  C10 UNL     1      21.612   0.115  53.575  1.00  0.00     0.012 A 
HETATM   19  C11 UNL     1      21.713  -0.709  54.677  1.00  0.00     0.037 A 
HETATM   20  C12 UNL     1      22.972  -1.150  55.019  1.00  0.00     0.068 A 
HETATM   21  C13 UNL     1      24.049  -0.759  54.266  1.00  0.00     0.073 A 
HETATM   22  C14 UNL     1      23.866   0.060  53.188  1.00  0.00     0.074 A 
BRANCH  20  23
HETATM   23  O2  UNL     1      23.179  -1.982  56.111  1.00  0.00    -0.361 OA
HETATM   24  H14 UNL     1      23.032  -1.618  57.056  1.00  0.00     0.217 HD
ENDBRANCH  20  23
BRANCH  22  25
HETATM   25  O3  UNL     1      24.989   0.427  52.462  1.00  0.00    -0.360 OA
HETATM   26  H16 UNL     1      25.910   0.183  52.855  1.00  0.00     0.217 HD
ENDBRANCH  22  25
ENDBRANCH  16  17
ENDBRANCH   1  16
TORSDOF 7
ENDMDL
MODEL 5
REMARK VINA RESULT:      -7.3      3.156      4.499
REMARK  7 active torsions:
REMARK  status: ('A' for Active; 'I' for Inactive)
REMARK    1  A    between atoms: C5_5  and  N1_6 
REMARK       I    between atoms: N1_6  and  C6_7 
REMARK    2  A    between atoms: C6_7  and  C7_9 
REMARK    3  A    between atoms: C7_9  and  P1_10 
REMARK    4  A    between atoms: C7_9  and  C8_11 
REMARK    5  A    between atoms: C8_11  and  C9_12 
REMARK    6  A    between atoms: C12_15  and  O2_16 
REMARK    7  A    between atoms: C14_18  and  O3_19 
ROOT
HETATM    1  C7  UNL     1      22.348   2.792  51.912  1.00  0.00     0.105 C 
ENDROOT
BRANCH   1   2
HETATM    2  C6  UNL     1      23.448   3.378  51.103  1.00  0.00     0.230 C 
HETATM    3  N1  UNL     1      23.783   3.076  49.766  1.00  0.00    -0.327 N 
HETATM    4  H6  UNL     1      23.175   2.350  49.298  1.00  0.00     0.169 HD
HETATM    5  O1  UNL     1      24.189   4.261  51.657  1.00  0.00    -0.272 OA
BRANCH   3   6
HETATM    6  C5  UNL     1      24.914   3.891  49.408  1.00  0.00     0.034 A 
HETATM    7  C4  UNL     1      26.223   3.443  49.462  1.00  0.00     0.030 A 
HETATM    8  C3  UNL     1      27.217   4.318  49.095  1.00  0.00     0.009 A 
HETATM    9  C2  UNL     1      26.937   5.598  48.687  1.00  0.00    -0.062 A 
HETATM   10  C1  UNL     1      27.982   6.561  48.286  1.00  0.00     0.048 C 
HETATM   11  C16 UNL     1      25.635   6.050  48.629  1.00  0.00     0.009 A 
HETATM   12  C15 UNL     1      24.632   5.170  48.999  1.00  0.00     0.030 A 
ENDBRANCH   3   6
ENDBRANCH   1   2
BRANCH   1  13
HETATM   13  P1  UNL     1      20.858   3.873  51.714  1.00  0.00    -0.127 P 
HETATM   14  H8  UNL     1      20.047   3.735  52.911  1.00  0.00     0.055 HD
HETATM   15  H9  UNL     1      21.372   5.250  51.758  1.00  0.00     0.055 HD
ENDBRANCH   1  13
BRANCH   1  16
HETATM   16  C8  UNL     1      22.103   1.349  51.624  1.00  0.00     0.060 C 
BRANCH  16  17
HETATM   17  C9  UNL     1      22.307   0.472  52.797  1.00  0.00    -0.024 A 
HETATM   18  C10 UNL     1      23.602   0.101  53.137  1.00  0.00     0.012 A 
HETATM   19  C11 UNL     1      23.974  -0.692  54.204  1.00  0.00     0.037 A 
HETATM   20  C12 UNL     1      22.967  -1.165  55.016  1.00  0.00     0.068 A 
HETATM   21  C13 UNL     1      21.666  -0.836  54.736  1.00  0.00     0.073 A 
HETATM   22  C14 UNL     1      21.380  -0.045  53.659  1.00  0.00     0.074 A 
BRANCH  20  23
HETATM   23  O2  UNL     1      23.237  -1.969  56.115  1.00  0.00    -0.361 OA
HETATM   24  H14 UNL     1      22.492  -2.168  56.787  1.00  0.00     0.217 HD
ENDBRANCH  20  23
BRANCH  22  25
HETATM   25  O3  UNL     1      20.047   0.256  53.418  1.00  0.00    -0.360 OA
HETATM   26  H16 UNL     1      19.359  -0.029  54.131  1.00  0.00     0.217 HD
ENDBRANCH  22  25
ENDBRANCH  16  17
ENDBRANCH   1  16
TORSDOF 7
ENDMDL
MODEL 6
REMARK VINA RESULT:      -7.1      2.398      6.701
REMARK  7 active torsions:
REMARK  status: ('A' for Active; 'I' for Inactive)
REMARK    1  A    between atoms: C5_5  and  N1_6 
REMARK       I    between atoms: N1_6  and  C6_7 
REMARK    2  A    between atoms: C6_7  and  C7_9 
REMARK    3  A    between atoms: C7_9  and  P1_10 
REMARK    4  A    between atoms: C7_9  and  C8_11 
REMARK    5  A    between atoms: C8_11  and  C9_12 
REMARK    6  A    between atoms: C12_15  and  O2_16 
REMARK    7  A    between atoms: C14_18  and  O3_19 
ROOT
HETATM    1  C7  UNL     1      25.793   1.843  51.311  1.00  0.00     0.105 C 
ENDROOT
BRANCH   1   2
HETATM    2  C6  UNL     1      24.320   1.745  51.474  1.00  0.00     0.230 C 
HETATM    3  N1  UNL     1      23.603   1.522  52.668  1.00  0.00    -0.327 N 
HETATM    4  H6  UNL     1      24.191   1.415  53.539  1.00  0.00     0.169 HD
HETATM    5  O1  UNL     1      23.594   1.876  50.428  1.00  0.00    -0.272 OA
BRANCH   3   6
HETATM    6  C5  UNL     1      22.202   1.507  52.337  1.00  0.00     0.034 A 
HETATM    7  C4  UNL     1      21.512   0.356  51.997  1.00  0.00     0.030 A 
HETATM    8  C3  UNL     1      20.175   0.472  51.700  1.00  0.00     0.009 A 
HETATM    9  C2  UNL     1      19.531   1.683  51.734  1.00  0.00    -0.062 A 
HETATM   10  C1  UNL     1      18.097   1.840  51.420  1.00  0.00     0.048 C 
HETATM   11  C16 UNL     1      20.213   2.833  52.073  1.00  0.00     0.009 A 
HETATM   12  C15 UNL     1      21.559   2.719  52.373  1.00  0.00     0.030 A 
ENDBRANCH   3   6
ENDBRANCH   1   2
BRANCH   1  13
HETATM   13  P1  UNL     1      26.154   3.361  50.313  1.00  0.00    -0.127 P 
HETATM   14  H8  UNL     1      26.949   2.959  49.165  1.00  0.00     0.055 HD
HETATM   15  H9  UNL     1      24.858   3.774  49.755  1.00  0.00     0.055 HD
ENDBRANCH   1  13
BRANCH   1  16
HETATM   16  C8  UNL     1      26.540   1.762  52.599  1.00  0.00     0.060 C 
BRANCH  16  17
HETATM   17  C9  UNL     1      27.196   0.455  52.818  1.00  0.00    -0.024 A 
HETATM   18  C10 UNL     1      26.475  -0.705  52.561  1.00  0.00     0.012 A 
HETATM   19  C11 UNL     1      26.934  -2.000  52.692  1.00  0.00     0.037 A 
HETATM   20  C12 UNL     1      28.233  -2.167  53.119  1.00  0.00     0.068 A 
HETATM   21  C13 UNL     1      28.999  -1.062  53.391  1.00  0.00     0.073 A 
HETATM   22  C14 UNL     1      28.470   0.189  53.236  1.00  0.00     0.074 A 
BRANCH  20  23
HETATM   23  O2  UNL     1      28.788  -3.428  53.282  1.00  0.00    -0.361 OA
HETATM   24  H14 UNL     1      28.776  -3.867  54.207  1.00  0.00     0.217 HD
ENDBRANCH  20  23
BRANCH  22  25
HETATM   25  O3  UNL     1      29.286   1.272  53.527  1.00  0.00    -0.360 OA
HETATM   26  H16 UNL     1      29.630   1.362  54.494  1.00  0.00     0.217 HD
ENDBRANCH  22  25
ENDBRANCH  16  17
ENDBRANCH   1  16
TORSDOF 7
ENDMDL
MODEL 7
REMARK VINA RESULT:      -7.1      2.270      6.808
REMARK  7 active torsions:
REMARK  status: ('A' for Active; 'I' for Inactive)
REMARK    1  A    between atoms: C5_5  and  N1_6 
REMARK       I    between atoms: N1_6  and  C6_7 
REMARK    2  A    between atoms: C6_7  and  C7_9 
REMARK    3  A    between atoms: C7_9  and  P1_10 
REMARK    4  A    between atoms: C7_9  and  C8_11 
REMARK    5  A    between atoms: C8_11  and  C9_12 
REMARK    6  A    between atoms: C12_15  and  O2_16 
REMARK    7  A    between atoms: C14_18  and  O3_19 
ROOT
HETATM    1  C7  UNL     1      24.636   1.810  51.847  1.00  0.00     0.105 C 
ENDROOT
BRANCH   1   2
HETATM    2  C6  UNL     1      23.280   1.294  52.163  1.00  0.00     0.230 C 
HETATM    3  N1  UNL     1      22.115   2.047  52.421  1.00  0.00    -0.327 N 
HETATM    4  H6  UNL     1      22.233   3.096  52.383  1.00  0.00     0.169 HD
HETATM    5  O1  UNL     1      23.121   0.025  52.209  1.00  0.00    -0.272 OA
BRANCH   3   6
HETATM    6  C5  UNL     1      21.045   1.118  52.674  1.00  0.00     0.034 A 
HETATM    7  C4  UNL     1      20.882   0.452  53.877  1.00  0.00     0.030 A 
HETATM    8  C3  UNL     1      19.819  -0.412  53.994  1.00  0.00     0.009 A 
HETATM    9  C2  UNL     1      18.941  -0.619  52.960  1.00  0.00    -0.062 A 
HETATM   10  C1  UNL     1      17.790  -1.540  53.056  1.00  0.00     0.048 C 
HETATM   11  C16 UNL     1      19.097   0.042  51.760  1.00  0.00     0.009 A 
HETATM   12  C15 UNL     1      20.166   0.912  51.640  1.00  0.00     0.030 A 
ENDBRANCH   3   6
ENDBRANCH   1   2
BRANCH   1  13
HETATM   13  P1  UNL     1      24.445   3.224  50.667  1.00  0.00    -0.127 P 
HETATM   14  H8  UNL     1      23.162   3.853  50.930  1.00  0.00     0.055 HD
HETATM   15  H9  UNL     1      25.448   4.214  51.084  1.00  0.00     0.055 HD
ENDBRANCH   1  13
BRANCH   1  16
HETATM   16  C8  UNL     1      25.448   2.125  53.058  1.00  0.00     0.060 C 
BRANCH  16  17
HETATM   17  C9  UNL     1      26.617   1.235  53.230  1.00  0.00    -0.024 A 
HETATM   18  C10 UNL     1      26.503  -0.098  52.853  1.00  0.00     0.012 A 
HETATM   19  C11 UNL     1      27.492  -1.057  52.927  1.00  0.00     0.037 A 
HETATM   20  C12 UNL     1      28.715  -0.662  53.422  1.00  0.00     0.068 A 
HETATM   21  C13 UNL     1      28.894   0.640  53.813  1.00  0.00     0.073 A 
HETATM   22  C14 UNL     1      27.863   1.531  53.708  1.00  0.00     0.074 A 
BRANCH  20  23
HETATM   23  O2  UNL     1      29.774  -1.552  53.536  1.00  0.00    -0.361 OA
HETATM   24  H14 UNL     1      30.731  -1.191  53.579  1.00  0.00     0.217 HD
ENDBRANCH  20  23
BRANCH  22  25
HETATM   25  O3  UNL     1      28.097   2.835  54.120  1.00  0.00    -0.360 OA
HETATM   26  H16 UNL     1      29.002   3.258  53.870  1.00  0.00     0.217 HD
ENDBRANCH  22  25
ENDBRANCH  16  17
ENDBRANCH   1  16
TORSDOF 7
ENDMDL
MODEL 8
REMARK VINA RESULT:      -6.8      3.350      5.817
REMARK  7 active torsions:
REMARK  status: ('A' for Active; 'I' for Inactive)
REMARK    1  A    between atoms: C5_5  and  N1_6 
REMARK       I    between atoms: N1_6  and  C6_7 
REMARK    2  A    between atoms: C6_7  and  C7_9 
REMARK    3  A    between atoms: C7_9  and  P1_10 
REMARK    4  A    between atoms: C7_9  and  C8_11 
REMARK    5  A    between atoms: C8_11  and  C9_12 
REMARK    6  A    between atoms: C12_15  and  O2_16 
REMARK    7  A    between atoms: C14_18  and  O3_19 
ROOT
HETATM    1  C7  UNL     1      23.362   2.225  52.227  1.00  0.00     0.105 C 
ENDROOT
BRANCH   1   2
HETATM    2  C6  UNL     1      24.023   3.160  51.281  1.00  0.00     0.230 C 
HETATM    3  N1  UNL     1      24.291   2.946  49.913  1.00  0.00    -0.327 N 
HETATM    4  H6  UNL     1      23.982   2.012  49.529  1.00  0.00     0.169 HD
HETATM    5  O1  UNL     1      24.400   4.296  51.733  1.00  0.00    -0.272 OA
BRANCH   3   6
HETATM    6  C5  UNL     1      24.942   4.127  49.409  1.00  0.00     0.034 A 
HETATM    7  C4  UNL     1      24.258   5.268  49.023  1.00  0.00     0.030 A 
HETATM    8  C3  UNL     1      24.994   6.331  48.556  1.00  0.00     0.009 A 
HETATM    9  C2  UNL     1      26.362   6.278  48.468  1.00  0.00    -0.062 A 
HETATM   10  C1  UNL     1      27.180   7.402  47.970  1.00  0.00     0.048 C 
HETATM   11  C16 UNL     1      27.049   5.145  48.852  1.00  0.00     0.009 A 
HETATM   12  C15 UNL     1      26.311   4.073  49.322  1.00  0.00     0.030 A 
ENDBRANCH   3   6
ENDBRANCH   1   2
BRANCH   1  13
HETATM   13  P1  UNL     1      21.531   2.411  52.023  1.00  0.00    -0.127 P 
HETATM   14  H8  UNL     1      20.992   2.909  53.278  1.00  0.00     0.055 HD
HETATM   15  H9  UNL     1      21.358   3.516  51.069  1.00  0.00     0.055 HD
ENDBRANCH   1  13
BRANCH   1  16
HETATM   16  C8  UNL     1      23.853   0.821  52.117  1.00  0.00     0.060 C 
BRANCH  16  17
HETATM   17  C9  UNL     1      25.118   0.581  52.845  1.00  0.00    -0.024 A 
HETATM   18  C10 UNL     1      25.056   0.164  54.169  1.00  0.00     0.012 A 
HETATM   19  C11 UNL     1      26.130  -0.123  54.988  1.00  0.00     0.037 A 
HETATM   20  C12 UNL     1      27.388   0.016  54.447  1.00  0.00     0.068 A 
HETATM   21  C13 UNL     1      27.519   0.426  53.144  1.00  0.00     0.073 A 
HETATM   22  C14 UNL     1      26.405   0.690  52.398  1.00  0.00     0.074 A 
BRANCH  20  23
HETATM   23  O2  UNL     1      28.532  -0.247  55.188  1.00  0.00    -0.361 OA
HETATM   24  H14 UNL     1      29.318   0.407  55.149  1.00  0.00     0.217 HD
ENDBRANCH  20  23
BRANCH  22  25
HETATM   25  O3  UNL     1      26.593   1.104  51.087  1.00  0.00    -0.360 OA
HETATM   26  H16 UNL     1      26.552   0.384  50.351  1.00  0.00     0.217 HD
ENDBRANCH  22  25
ENDBRANCH  16  17
ENDBRANCH   1  16
TORSDOF 7
ENDMDL
MODEL 9
REMARK VINA RESULT:      -6.7      3.232      4.467
REMARK  7 active torsions:
REMARK  status: ('A' for Active; 'I' for Inactive)
REMARK    1  A    between atoms: C5_5  and  N1_6 
REMARK       I    between atoms: N1_6  and  C6_7 
REMARK    2  A    between atoms: C6_7  and  C7_9 
REMARK    3  A    between atoms: C7_9  and  P1_10 
REMARK    4  A    between atoms: C7_9  and  C8_11 
REMARK    5  A    between atoms: C8_11  and  C9_12 
REMARK    6  A    between atoms: C12_15  and  O2_16 
REMARK    7  A    between atoms: C14_18  and  O3_19 
ROOT
HETATM    1  C7  UNL     1      25.185   1.051  52.060  1.00  0.00     0.105 C 
ENDROOT
BRANCH   1   2
HETATM    2  C6  UNL     1      25.562   2.250  51.267  1.00  0.00     0.230 C 
HETATM    3  N1  UNL     1      24.827   2.852  50.224  1.00  0.00    -0.327 N 
HETATM    4  H6  UNL     1      23.907   2.389  49.990  1.00  0.00     0.169 HD
HETATM    5  O1  UNL     1      26.673   2.822  51.542  1.00  0.00    -0.272 OA
BRANCH   3   6
HETATM    6  C5  UNL     1      25.584   3.984  49.758  1.00  0.00     0.034 A 
HETATM    7  C4  UNL     1      25.163   5.295  49.904  1.00  0.00     0.030 A 
HETATM    8  C3  UNL     1      25.975   6.289  49.414  1.00  0.00     0.009 A 
HETATM    9  C2  UNL     1      27.168   6.008  48.796  1.00  0.00    -0.062 A 
HETATM   10  C1  UNL     1      28.062   7.053  48.260  1.00  0.00     0.048 C 
HETATM   11  C16 UNL     1      27.593   4.704  48.648  1.00  0.00     0.009 A 
HETATM   12  C15 UNL     1      26.777   3.701  49.141  1.00  0.00     0.030 A 
ENDBRANCH   3   6
ENDBRANCH   1   2
BRANCH   1  13
HETATM   13  P1  UNL     1      26.714   0.038  52.318  1.00  0.00    -0.127 P 
HETATM   14  H8  UNL     1      26.321  -1.204  52.962  1.00  0.00     0.055 HD
HETATM   15  H9  UNL     1      27.151  -0.353  50.970  1.00  0.00     0.055 HD
ENDBRANCH   1  13
BRANCH   1  16
HETATM   16  C8  UNL     1      24.445   1.377  53.313  1.00  0.00     0.060 C 
BRANCH  16  17
HETATM   17  C9  UNL     1      23.160   0.657  53.441  1.00  0.00    -0.024 A 
HETATM   18  C10 UNL     1      23.140  -0.561  54.111  1.00  0.00     0.012 A 
HETATM   19  C11 UNL     1      22.033  -1.353  54.338  1.00  0.00     0.037 A 
HETATM   20  C12 UNL     1      20.826  -0.899  53.856  1.00  0.00     0.068 A 
HETATM   21  C13 UNL     1      20.776   0.296  53.185  1.00  0.00     0.073 A 
HETATM   22  C14 UNL     1      21.918   1.023  53.001  1.00  0.00     0.074 A 
BRANCH  20  23
HETATM   23  O2  UNL     1      19.654  -1.622  54.032  1.00  0.00    -0.361 OA
HETATM   24  H14 UNL     1      18.788  -1.127  54.263  1.00  0.00     0.217 HD
ENDBRANCH  20  23
BRANCH  22  25
HETATM   25  O3  UNL     1      21.813   2.223  52.313  1.00  0.00    -0.360 OA
HETATM   26  H16 UNL     1      22.638   2.839  52.302  1.00  0.00     0.217 HD
ENDBRANCH  22  25
ENDBRANCH  16  17
ENDBRANCH   1  16
TORSDOF 7
ENDMDL
