MODEL 1
REMARK VINA RESULT:      -7.9      0.000      0.000
REMARK  6 active torsions:
REMARK  status: ('A' for Active; 'I' for Inactive)
REMARK    1  A    between atoms: C2_2  and  C3_4 
REMARK    2  A    between atoms: C4_5  and  C5_6 
REMARK    3  A    between atoms: C6_7  and  N1_8 
REMARK    4  A    between atoms: N1_8  and  C7_9 
REMARK    5  A    between atoms: C14_19  and  O1_20 
REMARK    6  A    between atoms: C16_22  and  O2_23 
ROOT
HETATM    1  C7  UNL     1      23.949   2.928  52.030  1.00  0.00     0.159 A 
HETATM    2  N2  UNL     1      22.755   3.295  52.533  1.00  0.00    -0.222 NA
HETATM    3  C8  UNL     1      22.253   4.501  52.146  1.00  0.00     0.238 A 
HETATM    4  N3  UNL     1      22.961   5.257  51.291  1.00  0.00    -0.215 NA
HETATM    5  C9  UNL     1      24.153   4.882  50.792  1.00  0.00     0.202 A 
HETATM    6  C10 UNL     1      24.712   3.670  51.150  1.00  0.00     0.129 A 
HETATM    7  N4  UNL     1      25.932   3.034  50.784  1.00  0.00    -0.379 N 
HETATM    8  C11 UNL     1      26.567   3.240  49.478  1.00  0.00     0.161 C 
HETATM    9  C12 UNL     1      26.767   4.677  49.169  1.00  0.00    -0.004 A 
HETATM   10  C13 UNL     1      28.002   4.876  48.582  1.00  0.00     0.051 A 
HETATM   11  C14 UNL     1      28.405   6.142  48.209  1.00  0.00     0.102 A 
HETATM   12  C16 UNL     1      27.635   7.274  48.385  1.00  0.00     0.104 A 
HETATM   13  C18 UNL     1      26.400   7.065  48.972  1.00  0.00     0.077 A 
HETATM   14  C19 UNL     1      25.972   5.803  49.357  1.00  0.00     0.088 A 
HETATM   15  O3  UNL     1      24.707   5.822  49.925  1.00  0.00    -0.289 OA
HETATM   16  H11 UNL     1      26.276   2.419  51.581  1.00  0.00     0.160 HD
ENDROOT
BRANCH   1  17
HETATM   17  N1  UNL     1      24.447   1.663  52.454  1.00  0.00    -0.349 N 
HETATM   18  H9  UNL     1      25.037   1.408  51.629  1.00  0.00     0.167 HD
BRANCH  17  19
HETATM   19  C6  UNL     1      24.483   0.670  53.451  1.00  0.00     0.090 C 
HETATM   20  C5  UNL     1      25.278  -0.387  53.489  1.00  0.00     0.017 C 
BRANCH  20  21
HETATM   21  C4  UNL     1      26.254  -0.653  52.454  1.00  0.00    -0.002 C 
HETATM   22  C3  UNL     1      27.529  -0.414  52.556  1.00  0.00    -0.011 C 
BRANCH  22  23
HETATM   23  C2  UNL     1      28.167   0.173  53.761  1.00  0.00     0.076 C 
HETATM   24  C1  UNL     1      29.590  -0.340  53.830  1.00  0.00     0.026 C 
HETATM   25 BR1  UNL     1      28.273   2.111  53.596  1.00  0.00    -0.087 Br
ENDBRANCH  22  23
ENDBRANCH  20  21
ENDBRANCH  17  19
ENDBRANCH   1  17
BRANCH  12  26
HETATM   26  O2  UNL     1      28.141   8.477  47.974  1.00  0.00    -0.353 OA
HETATM   27  C17 UNL     1      28.688   9.357  48.921  1.00  0.00     0.210 C 
ENDBRANCH  12  26
BRANCH  11  28
HETATM   28  O1  UNL     1      29.675   6.271  47.617  1.00  0.00    -0.353 OA
HETATM   29  C15 UNL     1      30.824   5.843  48.311  1.00  0.00     0.210 C 
ENDBRANCH  11  28
TORSDOF 6
ENDMDL
MODEL 2
REMARK VINA RESULT:      -7.7      1.624      2.290
REMARK  6 active torsions:
REMARK  status: ('A' for Active; 'I' for Inactive)
REMARK    1  A    between atoms: C2_2  and  C3_4 
REMARK    2  A    between atoms: C4_5  and  C5_6 
REMARK    3  A    between atoms: C6_7  and  N1_8 
REMARK    4  A    between atoms: N1_8  and  C7_9 
REMARK    5  A    between atoms: C14_19  and  O1_20 
REMARK    6  A    between atoms: C16_22  and  O2_23 
ROOT
HETATM    1  C7  UNL     1      24.263   5.415  51.009  1.00  0.00     0.159 A 
HETATM    2  N2  UNL     1      23.230   6.243  51.260  1.00  0.00    -0.222 NA
HETATM    3  C8  UNL     1      23.258   7.477  50.684  1.00  0.00     0.238 A 
HETATM    4  N3  UNL     1      24.299   7.808  49.903  1.00  0.00    -0.215 NA
HETATM    5  C9  UNL     1      25.327   6.974  49.657  1.00  0.00     0.202 A 
HETATM    6  C10 UNL     1      25.353   5.711  50.215  1.00  0.00     0.129 A 
HETATM    7  N4  UNL     1      26.293   4.645  50.128  1.00  0.00    -0.379 N 
HETATM    8  C11 UNL     1      27.127   4.425  48.941  1.00  0.00     0.161 C 
HETATM    9  C12 UNL     1      27.876   5.642  48.545  1.00  0.00    -0.004 A 
HETATM   10  C13 UNL     1      29.165   5.314  48.169  1.00  0.00     0.051 A 
HETATM   11  C14 UNL     1      30.047   6.293  47.761  1.00  0.00     0.102 A 
HETATM   12  C16 UNL     1      29.728   7.634  47.697  1.00  0.00     0.104 A 
HETATM   13  C18 UNL     1      28.435   7.953  48.074  1.00  0.00     0.077 A 
HETATM   14  C19 UNL     1      27.530   6.989  48.488  1.00  0.00     0.088 A 
HETATM   15  O3  UNL     1      26.295   7.527  48.820  1.00  0.00    -0.289 OA
HETATM   16  H11 UNL     1      26.281   4.074  51.024  1.00  0.00     0.160 HD
ENDROOT
BRANCH   1  17
HETATM   17  N1  UNL     1      24.204   4.133  51.626  1.00  0.00    -0.349 N 
HETATM   18  H9  UNL     1      24.235   3.518  50.781  1.00  0.00     0.167 HD
BRANCH  17  19
HETATM   19  C6  UNL     1      24.128   3.385  52.816  1.00  0.00     0.090 C 
HETATM   20  C5  UNL     1      24.564   2.151  53.007  1.00  0.00     0.017 C 
BRANCH  20  21
HETATM   21  C4  UNL     1      25.205   1.391  51.955  1.00  0.00    -0.002 C 
HETATM   22  C3  UNL     1      26.327   0.744  52.085  1.00  0.00    -0.011 C 
BRANCH  22  23
HETATM   23  C2  UNL     1      27.114   0.696  53.342  1.00  0.00     0.076 C 
HETATM   24  C1  UNL     1      27.972  -0.550  53.306  1.00  0.00     0.026 C 
HETATM   25 BR1  UNL     1      28.330   2.215  53.441  1.00  0.00    -0.087 Br
ENDBRANCH  22  23
ENDBRANCH  20  21
ENDBRANCH  17  19
ENDBRANCH   1  17
BRANCH  12  26
HETATM   26  O2  UNL     1      30.687   8.514  47.275  1.00  0.00    -0.353 OA
HETATM   27  C17 UNL     1      31.344   9.323  48.216  1.00  0.00     0.210 C 
ENDBRANCH  12  26
BRANCH  11  28
HETATM   28  O1  UNL     1      31.343   5.886  47.393  1.00  0.00    -0.353 OA
HETATM   29  C15 UNL     1      32.250   5.445  48.376  1.00  0.00     0.210 C 
ENDBRANCH  11  28
TORSDOF 6
ENDMDL
MODEL 3
REMARK VINA RESULT:      -7.7      3.006      5.476
REMARK  6 active torsions:
REMARK  status: ('A' for Active; 'I' for Inactive)
REMARK    1  A    between atoms: C2_2  and  C3_4 
REMARK    2  A    between atoms: C4_5  and  C5_6 
REMARK    3  A    between atoms: C6_7  and  N1_8 
REMARK    4  A    between atoms: N1_8  and  C7_9 
REMARK    5  A    between atoms: C14_19  and  O1_20 
REMARK    6  A    between atoms: C16_22  and  O2_23 
ROOT
HETATM    1  C7  UNL     1      24.897  -0.445  53.567  1.00  0.00     0.159 A 
HETATM    2  N2  UNL     1      25.812  -1.433  53.603  1.00  0.00    -0.222 NA
HETATM    3  C8  UNL     1      26.975  -1.238  52.922  1.00  0.00     0.238 A 
HETATM    4  N3  UNL     1      27.155  -0.085  52.256  1.00  0.00    -0.215 NA
HETATM    5  C9  UNL     1      26.236   0.897  52.227  1.00  0.00     0.202 A 
HETATM    6  C10 UNL     1      25.036   0.754  52.897  1.00  0.00     0.129 A 
HETATM    7  N4  UNL     1      23.908   1.612  53.034  1.00  0.00    -0.379 N 
HETATM    8  C11 UNL     1      24.023   3.074  53.010  1.00  0.00     0.161 C 
HETATM    9  C12 UNL     1      24.743   3.563  51.809  1.00  0.00    -0.004 A 
HETATM   10  C13 UNL     1      24.127   4.691  51.303  1.00  0.00     0.051 A 
HETATM   11  C14 UNL     1      24.627   5.320  50.182  1.00  0.00     0.102 A 
HETATM   12  C16 UNL     1      25.744   4.890  49.495  1.00  0.00     0.104 A 
HETATM   13  C18 UNL     1      26.355   3.760  50.009  1.00  0.00     0.077 A 
HETATM   14  C19 UNL     1      25.873   3.109  51.134  1.00  0.00     0.088 A 
HETATM   15  O3  UNL     1      26.634   2.001  51.475  1.00  0.00    -0.289 OA
HETATM   16  H11 UNL     1      23.023   1.034  53.151  1.00  0.00     0.160 HD
ENDROOT
BRANCH   1  17
HETATM   17  N1  UNL     1      23.691  -0.680  54.288  1.00  0.00    -0.349 N 
HETATM   18  H9  UNL     1      23.690   0.149  54.925  1.00  0.00     0.167 HD
BRANCH  17  19
HETATM   19  C6  UNL     1      22.567  -1.502  54.496  1.00  0.00     0.090 C 
HETATM   20  C5  UNL     1      21.304  -1.116  54.561  1.00  0.00     0.017 C 
BRANCH  20  21
HETATM   21  C4  UNL     1      20.915   0.270  54.417  1.00  0.00    -0.002 C 
HETATM   22  C3  UNL     1      20.420   0.793  53.332  1.00  0.00    -0.011 C 
BRANCH  22  23
HETATM   23  C2  UNL     1      20.185   0.033  52.079  1.00  0.00     0.076 C 
HETATM   24  C1  UNL     1      18.734   0.214  51.691  1.00  0.00     0.026 C 
HETATM   25 BR1  UNL     1      21.254   0.771  50.628  1.00  0.00    -0.087 Br
ENDBRANCH  22  23
ENDBRANCH  20  21
ENDBRANCH  17  19
ENDBRANCH   1  17
BRANCH  12  26
HETATM   26  O2  UNL     1      26.147   5.596  48.395  1.00  0.00    -0.353 OA
HETATM   27  C17 UNL     1      27.305   6.386  48.467  1.00  0.00     0.210 C 
ENDBRANCH  12  26
BRANCH  11  28
HETATM   28  O1  UNL     1      23.949   6.465  49.722  1.00  0.00    -0.353 OA
HETATM   29  C15 UNL     1      23.908   7.628  50.516  1.00  0.00     0.210 C 
ENDBRANCH  11  28
TORSDOF 6
ENDMDL
MODEL 4
REMARK VINA RESULT:      -7.6      4.559      7.330
REMARK  6 active torsions:
REMARK  status: ('A' for Active; 'I' for Inactive)
REMARK    1  A    between atoms: C2_2  and  C3_4 
REMARK    2  A    between atoms: C4_5  and  C5_6 
REMARK    3  A    between atoms: C6_7  and  N1_8 
REMARK    4  A    between atoms: N1_8  and  C7_9 
REMARK    5  A    between atoms: C14_19  and  O1_20 
REMARK    6  A    between atoms: C16_22  and  O2_23 
ROOT
HETATM    1  C7  UNL     1      20.498   0.521  52.701  1.00  0.00     0.159 A 
HETATM    2  N2  UNL     1      19.617  -0.401  53.134  1.00  0.00    -0.222 NA
HETATM    3  C8  UNL     1      20.095  -1.411  53.912  1.00  0.00     0.238 A 
HETATM    4  N3  UNL     1      21.405  -1.442  54.208  1.00  0.00    -0.215 NA
HETATM    5  C9  UNL     1      22.278  -0.516  53.772  1.00  0.00     0.202 A 
HETATM    6  C10 UNL     1      21.851   0.531  52.978  1.00  0.00     0.129 A 
HETATM    7  N4  UNL     1      22.540   1.629  52.388  1.00  0.00    -0.379 N 
HETATM    8  C11 UNL     1      23.731   2.230  52.998  1.00  0.00     0.161 C 
HETATM    9  C12 UNL     1      24.779   1.225  53.298  1.00  0.00    -0.004 A 
HETATM   10  C13 UNL     1      26.029   1.721  52.979  1.00  0.00     0.051 A 
HETATM   11  C14 UNL     1      27.159   0.954  53.176  1.00  0.00     0.102 A 
HETATM   12  C16 UNL     1      27.136  -0.327  53.689  1.00  0.00     0.104 A 
HETATM   13  C18 UNL     1      25.881  -0.815  54.007  1.00  0.00     0.077 A 
HETATM   14  C19 UNL     1      24.730  -0.065  53.818  1.00  0.00     0.088 A 
HETATM   15  O3  UNL     1      23.584  -0.746  54.201  1.00  0.00    -0.289 OA
HETATM   16  H11 UNL     1      22.063   1.914  51.482  1.00  0.00     0.160 HD
ENDROOT
BRANCH   1  17
HETATM   17  N1  UNL     1      19.968   1.564  51.889  1.00  0.00    -0.349 N 
HETATM   18  H9  UNL     1      20.243   2.399  52.455  1.00  0.00     0.167 HD
BRANCH  17  19
HETATM   19  C6  UNL     1      19.273   1.929  50.720  1.00  0.00     0.090 C 
HETATM   20  C5  UNL     1      19.653   1.712  49.472  1.00  0.00     0.017 C 
BRANCH  20  21
HETATM   21  C4  UNL     1      20.893   1.038  49.151  1.00  0.00    -0.002 C 
HETATM   22  C3  UNL     1      22.008   1.638  48.849  1.00  0.00    -0.011 C 
BRANCH  22  23
HETATM   23  C2  UNL     1      22.164   3.113  48.788  1.00  0.00     0.076 C 
HETATM   24  C1  UNL     1      23.603   3.442  49.123  1.00  0.00     0.026 C 
HETATM   25 BR1  UNL     1      21.845   3.754  46.976  1.00  0.00    -0.087 Br
ENDBRANCH  22  23
ENDBRANCH  20  21
ENDBRANCH  17  19
ENDBRANCH   1  17
BRANCH  12  26
HETATM   26  O2  UNL     1      28.323  -0.991  53.840  1.00  0.00    -0.353 OA
HETATM   27  C17 UNL     1      28.563  -2.157  53.096  1.00  0.00     0.210 C 
ENDBRANCH  12  26
BRANCH  11  28
HETATM   28  O1  UNL     1      28.398   1.523  52.828  1.00  0.00    -0.353 OA
HETATM   29  C15 UNL     1      28.989   2.492  53.663  1.00  0.00     0.210 C 
ENDBRANCH  11  28
TORSDOF 6
ENDMDL
MODEL 5
REMARK VINA RESULT:      -7.5      3.438      7.561
REMARK  6 active torsions:
REMARK  status: ('A' for Active; 'I' for Inactive)
REMARK    1  A    between atoms: C2_2  and  C3_4 
REMARK    2  A    between atoms: C4_5  and  C5_6 
REMARK    3  A    between atoms: C6_7  and  N1_8 
REMARK    4  A    between atoms: N1_8  and  C7_9 
REMARK    5  A    between atoms: C14_19  and  O1_20 
REMARK    6  A    between atoms: C16_22  and  O2_23 
ROOT
HETATM    1  C7  UNL     1      25.085   5.306  50.236  1.00  0.00     0.159 A 
HETATM    2  N2  UNL     1      25.831   5.870  49.266  1.00  0.00    -0.222 NA
HETATM    3  C8  UNL     1      26.903   5.166  48.807  1.00  0.00     0.238 A 
HETATM    4  N3  UNL     1      27.164   3.958  49.335  1.00  0.00    -0.215 NA
HETATM    5  C9  UNL     1      26.412   3.402  50.303  1.00  0.00     0.202 A 
HETATM    6  C10 UNL     1      25.313   4.070  50.808  1.00  0.00     0.129 A 
HETATM    7  N4  UNL     1      24.363   3.728  51.811  1.00  0.00    -0.379 N 
HETATM    8  C11 UNL     1      23.977   2.340  52.090  1.00  0.00     0.161 C 
HETATM    9  C12 UNL     1      25.151   1.471  52.350  1.00  0.00    -0.004 A 
HETATM   10  C13 UNL     1      24.889   0.607  53.396  1.00  0.00     0.051 A 
HETATM   11  C14 UNL     1      25.843  -0.298  53.813  1.00  0.00     0.102 A 
HETATM   12  C16 UNL     1      27.094  -0.411  53.242  1.00  0.00     0.104 A 
HETATM   13  C18 UNL     1      27.347   0.457  52.195  1.00  0.00     0.077 A 
HETATM   14  C19 UNL     1      26.406   1.376  51.757  1.00  0.00     0.088 A 
HETATM   15  O3  UNL     1      26.868   2.146  50.699  1.00  0.00    -0.289 OA
HETATM   16  H11 UNL     1      24.006   4.608  52.290  1.00  0.00     0.160 HD
ENDROOT
BRANCH   1  17
HETATM   17  N1  UNL     1      23.972   6.067  50.694  1.00  0.00    -0.349 N 
HETATM   18  H9  UNL     1      24.247   6.218  51.691  1.00  0.00     0.167 HD
BRANCH  17  19
HETATM   19  C6  UNL     1      22.734   6.667  50.396  1.00  0.00     0.090 C 
HETATM   20  C5  UNL     1      21.682   6.084  49.845  1.00  0.00     0.017 C 
BRANCH  20  21
HETATM   21  C4  UNL     1      21.687   4.687  49.469  1.00  0.00    -0.002 C 
HETATM   22  C3  UNL     1      21.039   3.747  50.094  1.00  0.00    -0.011 C 
BRANCH  22  23
HETATM   23  C2  UNL     1      20.198   3.980  51.295  1.00  0.00     0.076 C 
HETATM   24  C1  UNL     1      18.755   4.053  50.844  1.00  0.00     0.026 C 
HETATM   25 BR1  UNL     1      20.331   2.471  52.520  1.00  0.00    -0.087 Br
ENDBRANCH  22  23
ENDBRANCH  20  21
ENDBRANCH  17  19
ENDBRANCH   1  17
BRANCH  12  26
HETATM   26  O2  UNL     1      27.957  -1.347  53.742  1.00  0.00    -0.353 OA
HETATM   27  C17 UNL     1      29.339  -1.181  53.559  1.00  0.00     0.210 C 
ENDBRANCH  12  26
BRANCH  11  28
HETATM   28  O1  UNL     1      25.507  -1.147  54.884  1.00  0.00    -0.353 OA
HETATM   29  C15 UNL     1      24.191  -1.163  55.387  1.00  0.00     0.210 C 
ENDBRANCH  11  28
TORSDOF 6
ENDMDL
MODEL 6
REMARK VINA RESULT:      -7.3      5.894      9.505
REMARK  6 active torsions:
REMARK  status: ('A' for Active; 'I' for Inactive)
REMARK    1  A    between atoms: C2_2  and  C3_4 
REMARK    2  A    between atoms: C4_5  and  C5_6 
REMARK    3  A    between atoms: C6_7  and  N1_8 
REMARK    4  A    between atoms: N1_8  and  C7_9 
REMARK    5  A    between atoms: C14_19  and  O1_20 
REMARK    6  A    between atoms: C16_22  and  O2_23 
ROOT
HETATM    1  C7  UNL     1      22.616   0.218  53.344  1.00  0.00     0.159 A 
HETATM    2  N2  UNL     1      23.225  -0.422  54.361  1.00  0.00    -0.222 NA
HETATM    3  C8  UNL     1      22.489  -1.326  55.067  1.00  0.00     0.238 A 
HETATM    4  N3  UNL     1      21.208  -1.535  54.721  1.00  0.00    -0.215 NA
HETATM    5  C9  UNL     1      20.608  -0.891  53.703  1.00  0.00     0.202 A 
HETATM    6  C10 UNL     1      21.304   0.037  52.953  1.00  0.00     0.129 A 
HETATM    7  N4  UNL     1      20.929   0.849  51.845  1.00  0.00    -0.379 N 
HETATM    8  C11 UNL     1      19.915   0.431  50.871  1.00  0.00     0.161 C 
HETATM    9  C12 UNL     1      18.640   0.036  51.518  1.00  0.00    -0.004 A 
HETATM   10  C13 UNL     1      17.565   0.518  50.796  1.00  0.00     0.051 A 
HETATM   11  C14 UNL     1      16.273   0.271  51.214  1.00  0.00     0.102 A 
HETATM   12  C16 UNL     1      15.959  -0.451  52.348  1.00  0.00     0.104 A 
HETATM   13  C18 UNL     1      17.042  -0.930  53.063  1.00  0.00     0.077 A 
HETATM   14  C19 UNL     1      18.349  -0.696  52.665  1.00  0.00     0.088 A 
HETATM   15  O3  UNL     1      19.277  -1.264  53.526  1.00  0.00    -0.289 OA
HETATM   16  H11 UNL     1      21.483   1.756  51.853  1.00  0.00     0.160 HD
ENDROOT
BRANCH   1  17
HETATM   17  N1  UNL     1      23.412   1.156  52.627  1.00  0.00    -0.349 N 
HETATM   18  H9  UNL     1      22.938   1.129  51.695  1.00  0.00     0.167 HD
BRANCH  17  19
HETATM   19  C6  UNL     1      24.498   2.051  52.636  1.00  0.00     0.090 C 
HETATM   20  C5  UNL     1      25.757   1.773  52.342  1.00  0.00     0.017 C 
BRANCH  20  21
HETATM   21  C4  UNL     1      26.181   0.444  51.956  1.00  0.00    -0.002 C 
HETATM   22  C3  UNL     1      27.203  -0.185  52.460  1.00  0.00    -0.011 C 
BRANCH  22  23
HETATM   23  C2  UNL     1      28.086   0.380  53.511  1.00  0.00     0.076 C 
HETATM   24  C1  UNL     1      27.397   0.195  54.846  1.00  0.00     0.026 C 
HETATM   25 BR1  UNL     1      29.759  -0.615  53.598  1.00  0.00    -0.087 Br
ENDBRANCH  22  23
ENDBRANCH  20  21
ENDBRANCH  17  19
ENDBRANCH   1  17
BRANCH  12  26
HETATM   26  O2  UNL     1      14.639  -0.632  52.662  1.00  0.00    -0.353 OA
HETATM   27  C17 UNL     1      13.979   0.325  53.449  1.00  0.00     0.210 C 
ENDBRANCH  12  26
BRANCH  11  28
HETATM   28  O1  UNL     1      15.226   0.792  50.431  1.00  0.00    -0.353 OA
HETATM   29  C15 UNL     1      15.445   1.097  49.073  1.00  0.00     0.210 C 
ENDBRANCH  11  28
TORSDOF 6
ENDMDL
MODEL 7
REMARK VINA RESULT:      -7.2      2.779      3.713
REMARK  6 active torsions:
REMARK  status: ('A' for Active; 'I' for Inactive)
REMARK    1  A    between atoms: C2_2  and  C3_4 
REMARK    2  A    between atoms: C4_5  and  C5_6 
REMARK    3  A    between atoms: C6_7  and  N1_8 
REMARK    4  A    between atoms: N1_8  and  C7_9 
REMARK    5  A    between atoms: C14_19  and  O1_20 
REMARK    6  A    between atoms: C16_22  and  O2_23 
ROOT
HETATM    1  C7  UNL     1      24.260   5.649  50.950  1.00  0.00     0.159 A 
HETATM    2  N2  UNL     1      23.239   6.505  51.148  1.00  0.00    -0.222 NA
HETATM    3  C8  UNL     1      23.293   7.707  50.510  1.00  0.00     0.238 A 
HETATM    4  N3  UNL     1      24.346   7.980  49.723  1.00  0.00    -0.215 NA
HETATM    5  C9  UNL     1      25.361   7.118  49.530  1.00  0.00     0.202 A 
HETATM    6  C10 UNL     1      25.362   5.885  50.152  1.00  0.00     0.129 A 
HETATM    7  N4  UNL     1      26.285   4.801  50.128  1.00  0.00    -0.379 N 
HETATM    8  C11 UNL     1      27.124   4.507  48.962  1.00  0.00     0.161 C 
HETATM    9  C12 UNL     1      27.897   5.689  48.512  1.00  0.00    -0.004 A 
HETATM   10  C13 UNL     1      29.183   5.321  48.165  1.00  0.00     0.051 A 
HETATM   11  C14 UNL     1      30.085   6.263  47.715  1.00  0.00     0.102 A 
HETATM   12  C16 UNL     1      29.789   7.604  47.579  1.00  0.00     0.104 A 
HETATM   13  C18 UNL     1      28.499   7.964  47.927  1.00  0.00     0.077 A 
HETATM   14  C19 UNL     1      27.574   7.037  48.382  1.00  0.00     0.088 A 
HETATM   15  O3  UNL     1      26.346   7.612  48.675  1.00  0.00    -0.289 OA
HETATM   16  H11 UNL     1      26.255   4.277  51.053  1.00  0.00     0.160 HD
ENDROOT
BRANCH   1  17
HETATM   17  N1  UNL     1      24.174   4.401  51.632  1.00  0.00    -0.349 N 
HETATM   18  H9  UNL     1      24.097   3.749  50.818  1.00  0.00     0.167 HD
BRANCH  17  19
HETATM   19  C6  UNL     1      24.152   3.712  52.859  1.00  0.00     0.090 C 
HETATM   20  C5  UNL     1      23.925   2.422  53.040  1.00  0.00     0.017 C 
BRANCH  20  21
HETATM   21  C4  UNL     1      23.662   1.525  51.936  1.00  0.00    -0.002 C 
HETATM   22  C3  UNL     1      22.606   0.771  51.827  1.00  0.00    -0.011 C 
BRANCH  22  23
HETATM   23  C2  UNL     1      21.515   0.725  52.833  1.00  0.00     0.076 C 
HETATM   24  C1  UNL     1      20.241   0.327  52.119  1.00  0.00     0.026 C 
HETATM   25 BR1  UNL     1      21.874  -0.656  54.159  1.00  0.00    -0.087 Br
ENDBRANCH  22  23
ENDBRANCH  20  21
ENDBRANCH  17  19
ENDBRANCH   1  17
BRANCH  12  26
HETATM   26  O2  UNL     1      30.767   8.446  47.122  1.00  0.00    -0.353 OA
HETATM   27  C17 UNL     1      31.370   9.351  48.009  1.00  0.00     0.210 C 
ENDBRANCH  12  26
BRANCH  11  28
HETATM   28  O1  UNL     1      31.377   5.817  47.381  1.00  0.00    -0.353 OA
HETATM   29  C15 UNL     1      31.661   4.438  47.345  1.00  0.00     0.210 C 
ENDBRANCH  11  28
TORSDOF 6
ENDMDL
MODEL 8
REMARK VINA RESULT:      -7.0      5.707      9.393
REMARK  6 active torsions:
REMARK  status: ('A' for Active; 'I' for Inactive)
REMARK    1  A    between atoms: C2_2  and  C3_4 
REMARK    2  A    between atoms: C4_5  and  C5_6 
REMARK    3  A    between atoms: C6_7  and  N1_8 
REMARK    4  A    between atoms: N1_8  and  C7_9 
REMARK    5  A    between atoms: C14_19  and  O1_20 
REMARK    6  A    between atoms: C16_22  and  O2_23 
ROOT
HETATM    1  C7  UNL     1      22.914   1.158  52.604  1.00  0.00     0.159 A 
HETATM    2  N2  UNL     1      23.264   2.367  52.124  1.00  0.00    -0.222 NA
HETATM    3  C8  UNL     1      22.266   3.181  51.680  1.00  0.00     0.238 A 
HETATM    4  N3  UNL     1      20.996   2.748  51.741  1.00  0.00    -0.215 NA
HETATM    5  C9  UNL     1      20.655   1.539  52.223  1.00  0.00     0.202 A 
HETATM    6  C10 UNL     1      21.625   0.670  52.686  1.00  0.00     0.129 A 
HETATM    7  N4  UNL     1      21.551  -0.641  53.237  1.00  0.00    -0.379 N 
HETATM    8  C11 UNL     1      20.392  -1.109  54.003  1.00  0.00     0.161 C 
HETATM    9  C12 UNL     1      19.117  -0.921  53.268  1.00  0.00    -0.004 A 
HETATM   10  C13 UNL     1      18.299  -2.022  53.434  1.00  0.00     0.051 A 
HETATM   11  C14 UNL     1      17.056  -2.068  52.837  1.00  0.00     0.102 A 
HETATM   12  C16 UNL     1      16.545  -1.054  52.052  1.00  0.00     0.104 A 
HETATM   13  C18 UNL     1      17.371   0.044  51.892  1.00  0.00     0.077 A 
HETATM   14  C19 UNL     1      18.624   0.115  52.481  1.00  0.00     0.088 A 
HETATM   15  O3  UNL     1      19.282   1.301  52.190  1.00  0.00    -0.289 OA
HETATM   16  H11 UNL     1      22.436  -1.184  53.005  1.00  0.00     0.160 HD
ENDROOT
BRANCH   1  17
HETATM   17  N1  UNL     1      23.980   0.331  53.059  1.00  0.00    -0.349 N 
HETATM   18  H9  UNL     1      24.423   0.079  52.146  1.00  0.00     0.167 HD
BRANCH  17  19
HETATM   19  C6  UNL     1      24.651  -0.257  54.147  1.00  0.00     0.090 C 
HETATM   20  C5  UNL     1      25.816  -0.884  54.116  1.00  0.00     0.017 C 
BRANCH  20  21
HETATM   21  C4  UNL     1      26.570  -1.043  52.891  1.00  0.00    -0.002 C 
HETATM   22  C3  UNL     1      27.811  -0.681  52.731  1.00  0.00    -0.011 C 
BRANCH  22  23
HETATM   23  C2  UNL     1      28.631  -0.047  53.793  1.00  0.00     0.076 C 
HETATM   24  C1  UNL     1      30.066  -0.490  53.599  1.00  0.00     0.026 C 
HETATM   25 BR1  UNL     1      28.608   1.892  53.601  1.00  0.00    -0.087 Br
ENDBRANCH  22  23
ENDBRANCH  20  21
ENDBRANCH  17  19
ENDBRANCH   1  17
BRANCH  12  26
HETATM   26  O2  UNL     1      15.298  -1.212  51.512  1.00  0.00    -0.353 OA
HETATM   27  C17 UNL     1      14.275  -0.316  51.860  1.00  0.00     0.210 C 
ENDBRANCH  12  26
BRANCH  11  28
HETATM   28  O1  UNL     1      16.276  -3.220  53.048  1.00  0.00    -0.353 OA
HETATM   29  C15 UNL     1      16.803  -4.305  53.775  1.00  0.00     0.210 C 
ENDBRANCH  11  28
TORSDOF 6
ENDMDL
MODEL 9
REMARK VINA RESULT:      -6.9      4.258      6.799
REMARK  6 active torsions:
REMARK  status: ('A' for Active; 'I' for Inactive)
REMARK    1  A    between atoms: C2_2  and  C3_4 
REMARK    2  A    between atoms: C4_5  and  C5_6 
REMARK    3  A    between atoms: C6_7  and  N1_8 
REMARK    4  A    between atoms: N1_8  and  C7_9 
REMARK    5  A    between atoms: C14_19  and  O1_20 
REMARK    6  A    between atoms: C16_22  and  O2_23 
ROOT
HETATM    1  C7  UNL     1      27.608   8.802  49.350  1.00  0.00     0.159 A 
HETATM    2  N2  UNL     1      27.468  10.138  49.453  1.00  0.00    -0.222 NA
HETATM    3  C8  UNL     1      28.526  10.912  49.082  1.00  0.00     0.238 A 
HETATM    4  N3  UNL     1      29.645  10.316  48.637  1.00  0.00    -0.215 NA
HETATM    5  C9  UNL     1      29.775   8.981  48.537  1.00  0.00     0.202 A 
HETATM    6  C10 UNL     1      28.736   8.146  48.899  1.00  0.00     0.129 A 
HETATM    7  N4  UNL     1      28.601   6.728  48.897  1.00  0.00    -0.379 N 
HETATM    8  C11 UNL     1      29.302   5.873  47.933  1.00  0.00     0.161 C 
HETATM    9  C12 UNL     1      30.762   6.127  47.911  1.00  0.00    -0.004 A 
HETATM   10  C13 UNL     1      31.458   4.937  47.822  1.00  0.00     0.051 A 
HETATM   11  C14 UNL     1      32.837   4.931  47.787  1.00  0.00     0.102 A 
HETATM   12  C16 UNL     1      33.610   6.074  47.836  1.00  0.00     0.104 A 
HETATM   13  C18 UNL     1      32.905   7.261  47.924  1.00  0.00     0.077 A 
HETATM   14  C19 UNL     1      31.519   7.294  47.961  1.00  0.00     0.088 A 
HETATM   15  O3  UNL     1      31.021   8.585  48.052  1.00  0.00    -0.289 OA
HETATM   16  H11 UNL     1      27.941   6.424  49.673  1.00  0.00     0.160 HD
ENDROOT
BRANCH   1  17
HETATM   17  N1  UNL     1      26.485   8.021  49.746  1.00  0.00    -0.349 N 
HETATM   18  H9  UNL     1      26.702   7.122  49.259  1.00  0.00     0.167 HD
BRANCH  17  19
HETATM   19  C6  UNL     1      25.279   7.947  50.469  1.00  0.00     0.090 C 
HETATM   20  C5  UNL     1      24.178   7.307  50.112  1.00  0.00     0.017 C 
BRANCH  20  21
HETATM   21  C4  UNL     1      24.085   6.571  48.870  1.00  0.00    -0.002 C 
HETATM   22  C3  UNL     1      24.319   5.297  48.743  1.00  0.00    -0.011 C 
BRANCH  22  23
HETATM   23  C2  UNL     1      24.719   4.413  49.866  1.00  0.00     0.076 C 
HETATM   24  C1  UNL     1      23.800   3.210  49.861  1.00  0.00     0.026 C 
HETATM   25 BR1  UNL     1      26.527   3.743  49.591  1.00  0.00    -0.087 Br
ENDBRANCH  22  23
ENDBRANCH  20  21
ENDBRANCH  17  19
ENDBRANCH   1  17
BRANCH  12  26
HETATM   26  O2  UNL     1      34.971   5.944  47.793  1.00  0.00    -0.353 OA
HETATM   27  C17 UNL     1      35.741   6.366  48.888  1.00  0.00     0.210 C 
ENDBRANCH  12  26
BRANCH  11  28
HETATM   28  O1  UNL     1      33.479   3.682  47.696  1.00  0.00    -0.353 OA
HETATM   29  C15 UNL     1      32.826   2.595  47.082  1.00  0.00     0.210 C 
ENDBRANCH  11  28
TORSDOF 6
ENDMDL
