MODEL 1
REMARK VINA RESULT:      -7.8      0.000      0.000
REMARK  5 active torsions:
REMARK  status: ('A' for Active; 'I' for Inactive)
REMARK    1  A    between atoms: O1_1  and  N1_2 
REMARK    2  A    between atoms: N1_2  and  C1_3 
REMARK    3  A    between atoms: C1_3  and  C2_4 
REMARK    4  A    between atoms: C7_10  and  N2_11 
REMARK    5  A    between atoms: N2_11  and  C8_12 
ROOT
HETATM    1  C2  UNL     1      25.223   0.523  53.545  1.00  0.00    -0.011 A 
HETATM    2  C3  UNL     1      24.642  -0.312  54.449  1.00  0.00     0.045 A 
HETATM    3  C4  UNL     1      23.354  -0.740  54.340  1.00  0.00     0.092 A 
HETATM    4  C5  UNL     1      22.589  -0.304  53.253  1.00  0.00     0.129 A 
HETATM    5  C6  UNL     1      23.154   0.550  52.312  1.00  0.00     0.174 A 
HETATM    6  F1  UNL     1      22.333   0.917  51.293  1.00  0.00    -0.201 F 
HETATM    7  C7  UNL     1      24.479   0.974  52.448  1.00  0.00     0.082 A 
HETATM    8  N3  UNL     1      21.328  -0.927  53.450  1.00  0.00    -0.220 NA
HETATM    9  C14 UNL     1      21.414  -1.627  54.513  1.00  0.00     0.199 A 
HETATM   10  N4  UNL     1      22.540  -1.592  55.136  1.00  0.00    -0.224 NA
ENDROOT
BRANCH   7  11
HETATM   11  N2  UNL     1      24.885   1.840  51.398  1.00  0.00    -0.352 N 
HETATM   12  H6  UNL     1      25.419   1.267  50.719  1.00  0.00     0.166 HD
BRANCH  11  13
HETATM   13  C8  UNL     1      24.613   3.232  51.293  1.00  0.00     0.054 A 
HETATM   14  C9  UNL     1      23.646   3.748  52.123  1.00  0.00     0.032 A 
HETATM   15  C10 UNL     1      23.415   5.116  51.983  1.00  0.00     0.021 A 
HETATM   16  C11 UNL     1      24.133   5.875  51.053  1.00  0.00     0.012 A 
HETATM   17 BR1  UNL     1      23.866   7.732  50.816  1.00  0.00    -0.051 Br
HETATM   18  C12 UNL     1      25.102   5.274  50.243  1.00  0.00     0.045 A 
HETATM   19  C13 UNL     1      25.366   3.903  50.352  1.00  0.00     0.062 A 
HETATM   20 CL1  UNL     1      26.560   3.103  49.369  1.00  0.00    -0.082 Cl
ENDBRANCH  11  13
ENDBRANCH   7  11
BRANCH   1  21
HETATM   21  C1  UNL     1      26.599   1.073  53.523  1.00  0.00     0.158 C 
BRANCH  21  22
HETATM   22  N1  UNL     1      26.685   2.432  53.977  1.00  0.00    -0.204 NA
HETATM   23  H2  UNL     1      26.202   2.457  54.904  1.00  0.00     0.153 HD
BRANCH  22  24
HETATM   24  O1  UNL     1      27.954   2.834  54.124  1.00  0.00    -0.315 OA
HETATM   25  H1  UNL     1      28.077   3.793  54.242  1.00  0.00     0.236 HD
ENDBRANCH  22  24
ENDBRANCH  21  22
ENDBRANCH   1  21
TORSDOF 5
ENDMDL
MODEL 2
REMARK VINA RESULT:      -7.6      3.165      4.468
REMARK  5 active torsions:
REMARK  status: ('A' for Active; 'I' for Inactive)
REMARK    1  A    between atoms: O1_1  and  N1_2 
REMARK    2  A    between atoms: N1_2  and  C1_3 
REMARK    3  A    between atoms: C1_3  and  C2_4 
REMARK    4  A    between atoms: C7_10  and  N2_11 
REMARK    5  A    between atoms: N2_11  and  C8_12 
ROOT
HETATM    1  C2  UNL     1      23.770  -0.189  53.533  1.00  0.00    -0.011 A 
HETATM    2  C3  UNL     1      24.930  -0.735  53.988  1.00  0.00     0.045 A 
HETATM    3  C4  UNL     1      26.082  -0.022  54.119  1.00  0.00     0.092 A 
HETATM    4  C5  UNL     1      26.079   1.334  53.771  1.00  0.00     0.129 A 
HETATM    5  C6  UNL     1      24.909   1.921  53.303  1.00  0.00     0.174 A 
HETATM    6  F1  UNL     1      25.006   3.240  52.991  1.00  0.00    -0.201 F 
HETATM    7  C7  UNL     1      23.740   1.165  53.177  1.00  0.00     0.082 A 
HETATM    8  N3  UNL     1      27.411   1.755  54.026  1.00  0.00    -0.220 NA
HETATM    9  C14 UNL     1      28.049   0.745  54.472  1.00  0.00     0.199 A 
HETATM   10  N4  UNL     1      27.392  -0.357  54.562  1.00  0.00    -0.224 NA
ENDROOT
BRANCH   7  11
HETATM   11  N2  UNL     1      22.648   1.928  52.685  1.00  0.00    -0.352 N 
HETATM   12  H6  UNL     1      22.030   2.133  53.491  1.00  0.00     0.166 HD
BRANCH  11  13
HETATM   13  C8  UNL     1      22.436   2.336  51.339  1.00  0.00     0.054 A 
HETATM   14  C9  UNL     1      22.420   1.352  50.379  1.00  0.00     0.032 A 
HETATM   15  C10 UNL     1      22.210   1.801  49.075  1.00  0.00     0.021 A 
HETATM   16  C11 UNL     1      22.033   3.161  48.803  1.00  0.00     0.012 A 
HETATM   17 BR1  UNL     1      21.744   3.831  47.059  1.00  0.00    -0.051 Br
HETATM   18  C12 UNL     1      22.063   4.103  49.837  1.00  0.00     0.045 A 
HETATM   19  C13 UNL     1      22.271   3.694  51.161  1.00  0.00     0.062 A 
HETATM   20 CL1  UNL     1      22.318   4.822  52.487  1.00  0.00    -0.082 Cl
ENDBRANCH  11  13
ENDBRANCH   7  11
BRANCH   1  21
HETATM   21  C1  UNL     1      22.446  -0.825  53.335  1.00  0.00     0.158 C 
BRANCH  21  22
HETATM   22  N1  UNL     1      21.474  -0.456  54.325  1.00  0.00    -0.204 NA
HETATM   23  H2  UNL     1      20.716   0.047  53.810  1.00  0.00     0.153 HD
BRANCH  22  24
HETATM   24  O1  UNL     1      20.959  -1.525  54.947  1.00  0.00    -0.315 OA
HETATM   25  H1  UNL     1      21.610  -2.146  55.316  1.00  0.00     0.236 HD
ENDBRANCH  22  24
ENDBRANCH  21  22
ENDBRANCH   1  21
TORSDOF 5
ENDMDL
MODEL 3
REMARK VINA RESULT:      -7.5      3.525      5.263
REMARK  5 active torsions:
REMARK  status: ('A' for Active; 'I' for Inactive)
REMARK    1  A    between atoms: O1_1  and  N1_2 
REMARK    2  A    between atoms: N1_2  and  C1_3 
REMARK    3  A    between atoms: C1_3  and  C2_4 
REMARK    4  A    between atoms: C7_10  and  N2_11 
REMARK    5  A    between atoms: N2_11  and  C8_12 
ROOT
HETATM    1  C2  UNL     1      25.443   2.209  53.378  1.00  0.00    -0.011 A 
HETATM    2  C3  UNL     1      26.570   2.213  54.140  1.00  0.00     0.045 A 
HETATM    3  C4  UNL     1      27.432   1.161  54.193  1.00  0.00     0.092 A 
HETATM    4  C5  UNL     1      27.151   0.021  53.432  1.00  0.00     0.129 A 
HETATM    5  C6  UNL     1      26.008  -0.015  52.642  1.00  0.00     0.174 A 
HETATM    6  F1  UNL     1      25.822  -1.163  51.940  1.00  0.00    -0.201 F 
HETATM    7  C7  UNL     1      25.139   1.081  52.607  1.00  0.00     0.082 A 
HETATM    8  N3  UNL     1      28.230  -0.856  53.719  1.00  0.00    -0.220 NA
HETATM    9  C14 UNL     1      29.005  -0.250  54.530  1.00  0.00     0.199 A 
HETATM   10  N4  UNL     1      28.646   0.930  54.897  1.00  0.00    -0.224 NA
ENDROOT
BRANCH   7  11
HETATM   11  N2  UNL     1      24.027   0.867  51.749  1.00  0.00    -0.352 N 
HETATM   12  H6  UNL     1      24.341   1.076  50.784  1.00  0.00     0.166 HD
BRANCH  11  13
HETATM   13  C8  UNL     1      22.725   0.446  52.136  1.00  0.00     0.054 A 
HETATM   14  C9  UNL     1      22.601  -0.171  53.359  1.00  0.00     0.032 A 
HETATM   15  C10 UNL     1      21.307  -0.566  53.694  1.00  0.00     0.021 A 
HETATM   16  C11 UNL     1      20.237  -0.335  52.824  1.00  0.00     0.012 A 
HETATM   17 BR1  UNL     1      18.460  -0.847  53.221  1.00  0.00    -0.051 Br
HETATM   18  C12 UNL     1      20.445   0.299  51.595  1.00  0.00     0.045 A 
HETATM   19  C13 UNL     1      21.729   0.712  51.220  1.00  0.00     0.062 A 
HETATM   20 CL1  UNL     1      22.047   1.506  49.702  1.00  0.00    -0.082 Cl
ENDBRANCH  11  13
ENDBRANCH   7  11
BRANCH   1  21
HETATM   21  C1  UNL     1      24.415   3.264  53.214  1.00  0.00     0.158 C 
BRANCH  21  22
HETATM   22  N1  UNL     1      24.512   3.977  51.972  1.00  0.00    -0.204 NA
HETATM   23  H2  UNL     1      23.899   3.466  51.298  1.00  0.00     0.153 HD
BRANCH  22  24
HETATM   24  O1  UNL     1      24.090   5.244  52.086  1.00  0.00    -0.315 OA
HETATM   25  H1  UNL     1      24.619   5.808  52.679  1.00  0.00     0.236 HD
ENDBRANCH  22  24
ENDBRANCH  21  22
ENDBRANCH   1  21
TORSDOF 5
ENDMDL
MODEL 4
REMARK VINA RESULT:      -7.4      2.644      4.038
REMARK  5 active torsions:
REMARK  status: ('A' for Active; 'I' for Inactive)
REMARK    1  A    between atoms: O1_1  and  N1_2 
REMARK    2  A    between atoms: N1_2  and  C1_3 
REMARK    3  A    between atoms: C1_3  and  C2_4 
REMARK    4  A    between atoms: C7_10  and  N2_11 
REMARK    5  A    between atoms: N2_11  and  C8_12 
ROOT
HETATM    1  C2  UNL     1      24.217  -0.072  53.668  1.00  0.00    -0.011 A 
HETATM    2  C3  UNL     1      25.242  -0.465  54.472  1.00  0.00     0.045 A 
HETATM    3  C4  UNL     1      26.541  -0.139  54.227  1.00  0.00     0.092 A 
HETATM    4  C5  UNL     1      26.841   0.634  53.100  1.00  0.00     0.129 A 
HETATM    5  C6  UNL     1      25.816   1.051  52.259  1.00  0.00     0.174 A 
HETATM    6  F1  UNL     1      26.207   1.797  51.193  1.00  0.00    -0.201 F 
HETATM    7  C7  UNL     1      24.490   0.702  52.534  1.00  0.00     0.082 A 
HETATM    8  N3  UNL     1      28.253   0.781  53.152  1.00  0.00    -0.220 NA
HETATM    9  C14 UNL     1      28.659   0.169  54.195  1.00  0.00     0.199 A 
HETATM   10  N4  UNL     1      27.761  -0.423  54.902  1.00  0.00    -0.224 NA
ENDROOT
BRANCH   7  11
HETATM   11  N2  UNL     1      23.581   1.214  51.570  1.00  0.00    -0.352 N 
HETATM   12  H6  UNL     1      23.285   0.418  50.977  1.00  0.00     0.166 HD
BRANCH  11  13
HETATM   13  C8  UNL     1      23.156   2.565  51.438  1.00  0.00     0.054 A 
HETATM   14  C9  UNL     1      23.426   3.414  52.486  1.00  0.00     0.032 A 
HETATM   15  C10 UNL     1      22.989   4.726  52.310  1.00  0.00     0.021 A 
HETATM   16  C11 UNL     1      22.328   5.114  51.141  1.00  0.00     0.012 A 
HETATM   17 BR1  UNL     1      21.713   6.877  50.844  1.00  0.00    -0.051 Br
HETATM   18  C12 UNL     1      22.091   4.189  50.119  1.00  0.00     0.045 A 
HETATM   19  C13 UNL     1      22.513   2.860  50.254  1.00  0.00     0.062 A 
HETATM   20 CL1  UNL     1      22.245   1.666  49.015  1.00  0.00    -0.082 Cl
ENDBRANCH  11  13
ENDBRANCH   7  11
BRANCH   1  21
HETATM   21  C1  UNL     1      22.765  -0.342  53.796  1.00  0.00     0.158 C 
BRANCH  21  22
HETATM   22  N1  UNL     1      22.416  -1.072  54.982  1.00  0.00    -0.204 NA
HETATM   23  H2  UNL     1      22.597  -0.423  55.782  1.00  0.00     0.153 HD
BRANCH  22  24
HETATM   24  O1  UNL     1      21.127  -1.437  54.986  1.00  0.00    -0.315 OA
HETATM   25  H1  UNL     1      20.966  -2.397  55.001  1.00  0.00     0.236 HD
ENDBRANCH  22  24
ENDBRANCH  21  22
ENDBRANCH   1  21
TORSDOF 5
ENDMDL
MODEL 5
REMARK VINA RESULT:      -7.0      3.584      6.298
REMARK  5 active torsions:
REMARK  status: ('A' for Active; 'I' for Inactive)
REMARK    1  A    between atoms: O1_1  and  N1_2 
REMARK    2  A    between atoms: N1_2  and  C1_3 
REMARK    3  A    between atoms: C1_3  and  C2_4 
REMARK    4  A    between atoms: C7_10  and  N2_11 
REMARK    5  A    between atoms: N2_11  and  C8_12 
ROOT
HETATM    1  C2  UNL     1      24.934   4.395  49.901  1.00  0.00    -0.011 A 
HETATM    2  C3  UNL     1      25.008   5.752  49.971  1.00  0.00     0.045 A 
HETATM    3  C4  UNL     1      23.914   6.545  50.140  1.00  0.00     0.092 A 
HETATM    4  C5  UNL     1      22.655   5.943  50.246  1.00  0.00     0.129 A 
HETATM    5  C6  UNL     1      22.547   4.558  50.180  1.00  0.00     0.174 A 
HETATM    6  F1  UNL     1      21.285   4.068  50.294  1.00  0.00    -0.201 F 
HETATM    7  C7  UNL     1      23.687   3.768  50.005  1.00  0.00     0.082 A 
HETATM    8  N3  UNL     1      21.766   7.037  50.410  1.00  0.00    -0.220 NA
HETATM    9  C14 UNL     1      22.469   8.101  50.405  1.00  0.00     0.199 A 
HETATM   10  N4  UNL     1      23.737   7.952  50.240  1.00  0.00    -0.224 NA
ENDROOT
BRANCH   7  11
HETATM   11  N2  UNL     1      23.386   2.380  49.960  1.00  0.00    -0.352 N 
HETATM   12  H6  UNL     1      23.462   2.083  48.970  1.00  0.00     0.166 HD
BRANCH  11  13
HETATM   13  C8  UNL     1      23.042   1.550  51.062  1.00  0.00     0.054 A 
HETATM   14  C9  UNL     1      23.902   1.541  52.135  1.00  0.00     0.032 A 
HETATM   15  C10 UNL     1      23.522   0.712  53.190  1.00  0.00     0.021 A 
HETATM   16  C11 UNL     1      22.345  -0.041  53.126  1.00  0.00     0.012 A 
HETATM   17 BR1  UNL     1      21.777  -1.182  54.522  1.00  0.00    -0.051 Br
HETATM   18  C12 UNL     1      21.522   0.023  51.997  1.00  0.00     0.045 A 
HETATM   19  C13 UNL     1      21.866   0.844  50.915  1.00  0.00     0.062 A 
HETATM   20 CL1  UNL     1      20.879   0.962  49.485  1.00  0.00    -0.082 Cl
ENDBRANCH  11  13
ENDBRANCH   7  11
BRANCH   1  21
HETATM   21  C1  UNL     1      26.020   3.402  49.722  1.00  0.00     0.158 C 
BRANCH  21  22
HETATM   22  N1  UNL     1      27.190   3.679  50.506  1.00  0.00    -0.204 NA
HETATM   23  H2  UNL     1      27.143   4.696  50.743  1.00  0.00     0.153 HD
BRANCH  22  24
HETATM   24  O1  UNL     1      27.219   2.958  51.636  1.00  0.00    -0.315 OA
HETATM   25  H1  UNL     1      28.088   2.904  52.073  1.00  0.00     0.236 HD
ENDBRANCH  22  24
ENDBRANCH  21  22
ENDBRANCH   1  21
TORSDOF 5
ENDMDL
MODEL 6
REMARK VINA RESULT:      -7.0      4.014      6.412
REMARK  5 active torsions:
REMARK  status: ('A' for Active; 'I' for Inactive)
REMARK    1  A    between atoms: O1_1  and  N1_2 
REMARK    2  A    between atoms: N1_2  and  C1_3 
REMARK    3  A    between atoms: C1_3  and  C2_4 
REMARK    4  A    between atoms: C7_10  and  N2_11 
REMARK    5  A    between atoms: N2_11  and  C8_12 
ROOT
HETATM    1  C2  UNL     1      23.951   5.470  49.615  1.00  0.00    -0.011 A 
HETATM    2  C3  UNL     1      23.583   5.834  48.357  1.00  0.00     0.045 A 
HETATM    3  C4  UNL     1      22.753   5.083  47.583  1.00  0.00     0.092 A 
HETATM    4  C5  UNL     1      22.253   3.882  48.099  1.00  0.00     0.129 A 
HETATM    5  C6  UNL     1      22.610   3.482  49.381  1.00  0.00     0.174 A 
HETATM    6  F1  UNL     1      22.074   2.304  49.793  1.00  0.00    -0.201 F 
HETATM    7  C7  UNL     1      23.465   4.273  50.155  1.00  0.00     0.082 A 
HETATM    8  N3  UNL     1      21.441   3.372  47.051  1.00  0.00    -0.220 NA
HETATM    9  C14 UNL     1      21.491   4.209  46.091  1.00  0.00     0.199 A 
HETATM   10  N4  UNL     1      22.233   5.245  46.269  1.00  0.00    -0.224 NA
ENDROOT
BRANCH   7  11
HETATM   11  N2  UNL     1      23.719   3.709  51.434  1.00  0.00    -0.352 N 
HETATM   12  H6  UNL     1      23.188   4.269  52.126  1.00  0.00     0.166 HD
BRANCH  11  13
HETATM   13  C8  UNL     1      24.548   2.589  51.718  1.00  0.00     0.054 A 
HETATM   14  C9  UNL     1      25.852   2.645  51.284  1.00  0.00     0.032 A 
HETATM   15  C10 UNL     1      26.623   1.523  51.586  1.00  0.00     0.021 A 
HETATM   16  C11 UNL     1      26.077   0.440  52.280  1.00  0.00     0.012 A 
HETATM   17 BR1  UNL     1      27.072  -1.107  52.719  1.00  0.00    -0.051 Br
HETATM   18  C12 UNL     1      24.740   0.459  52.689  1.00  0.00     0.045 A 
HETATM   19  C13 UNL     1      23.929   1.566  52.406  1.00  0.00     0.062 A 
HETATM   20 CL1  UNL     1      22.258   1.645  52.890  1.00  0.00    -0.082 Cl
ENDBRANCH  11  13
ENDBRANCH   7  11
BRANCH   1  21
HETATM   21  C1  UNL     1      24.838   6.170  50.575  1.00  0.00     0.158 C 
BRANCH  21  22
HETATM   22  N1  UNL     1      24.131   6.899  51.589  1.00  0.00    -0.204 NA
HETATM   23  H2  UNL     1      23.118   6.832  51.337  1.00  0.00     0.153 HD
BRANCH  22  24
HETATM   24  O1  UNL     1      24.322   6.378  52.808  1.00  0.00    -0.315 OA
HETATM   25  H1  UNL     1      24.019   6.931  53.550  1.00  0.00     0.236 HD
ENDBRANCH  22  24
ENDBRANCH  21  22
ENDBRANCH   1  21
TORSDOF 5
ENDMDL
MODEL 7
REMARK VINA RESULT:      -7.0      3.924      4.865
REMARK  5 active torsions:
REMARK  status: ('A' for Active; 'I' for Inactive)
REMARK    1  A    between atoms: O1_1  and  N1_2 
REMARK    2  A    between atoms: N1_2  and  C1_3 
REMARK    3  A    between atoms: C1_3  and  C2_4 
REMARK    4  A    between atoms: C7_10  and  N2_11 
REMARK    5  A    between atoms: N2_11  and  C8_12 
ROOT
HETATM    1  C2  UNL     1      20.311  -0.615  53.353  1.00  0.00    -0.011 A 
HETATM    2  C3  UNL     1      20.894  -1.154  54.457  1.00  0.00     0.045 A 
HETATM    3  C4  UNL     1      22.237  -1.115  54.679  1.00  0.00     0.092 A 
HETATM    4  C5  UNL     1      23.058  -0.493  53.732  1.00  0.00     0.129 A 
HETATM    5  C6  UNL     1      22.493   0.068  52.593  1.00  0.00     0.174 A 
HETATM    6  F1  UNL     1      23.370   0.649  51.733  1.00  0.00    -0.201 F 
HETATM    7  C7  UNL     1      21.110   0.013  52.390  1.00  0.00     0.082 A 
HETATM    8  N3  UNL     1      24.365  -0.632  54.269  1.00  0.00    -0.220 NA
HETATM    9  C14 UNL     1      24.254  -1.245  55.382  1.00  0.00     0.199 A 
HETATM   10  N4  UNL     1      23.066  -1.596  55.730  1.00  0.00    -0.224 NA
ENDROOT
BRANCH   7  11
HETATM   11  N2  UNL     1      20.712   0.636  51.177  1.00  0.00    -0.352 N 
HETATM   12  H6  UNL     1      20.422  -0.118  50.527  1.00  0.00     0.166 HD
BRANCH  11  13
HETATM   13  C8  UNL     1      20.712   2.031  50.899  1.00  0.00     0.054 A 
HETATM   14  C9  UNL     1      20.280   2.871  51.898  1.00  0.00     0.032 A 
HETATM   15  C10 UNL     1      20.298   4.228  51.578  1.00  0.00     0.021 A 
HETATM   16  C11 UNL     1      20.729   4.665  50.322  1.00  0.00     0.012 A 
HETATM   17 BR1  UNL     1      20.776   6.490  49.830  1.00  0.00    -0.051 Br
HETATM   18  C12 UNL     1      21.154   3.746  49.357  1.00  0.00     0.045 A 
HETATM   19  C13 UNL     1      21.152   2.374  49.638  1.00  0.00     0.062 A 
HETATM   20 CL1  UNL     1      21.670   1.185  48.474  1.00  0.00    -0.082 Cl
ENDBRANCH  11  13
ENDBRANCH   7  11
BRANCH   1  21
HETATM   21  C1  UNL     1      18.879  -0.576  52.970  1.00  0.00     0.158 C 
BRANCH  21  22
HETATM   22  N1  UNL     1      18.015  -1.250  53.896  1.00  0.00    -0.204 NA
HETATM   23  H2  UNL     1      18.249  -0.865  54.839  1.00  0.00     0.153 HD
BRANCH  22  24
HETATM   24  O1  UNL     1      16.721  -1.026  53.631  1.00  0.00    -0.315 OA
HETATM   25  H1  UNL     1      16.475  -0.091  53.516  1.00  0.00     0.236 HD
ENDBRANCH  22  24
ENDBRANCH  21  22
ENDBRANCH   1  21
TORSDOF 5
ENDMDL
MODEL 8
REMARK VINA RESULT:      -7.0      1.878      2.095
REMARK  5 active torsions:
REMARK  status: ('A' for Active; 'I' for Inactive)
REMARK    1  A    between atoms: O1_1  and  N1_2 
REMARK    2  A    between atoms: N1_2  and  C1_3 
REMARK    3  A    between atoms: C1_3  and  C2_4 
REMARK    4  A    between atoms: C7_10  and  N2_11 
REMARK    5  A    between atoms: N2_11  and  C8_12 
ROOT
HETATM    1  C2  UNL     1      24.750   0.399  53.451  1.00  0.00    -0.011 A 
HETATM    2  C3  UNL     1      24.129  -0.726  53.897  1.00  0.00     0.045 A 
HETATM    3  C4  UNL     1      22.774  -0.846  53.965  1.00  0.00     0.092 A 
HETATM    4  C5  UNL     1      21.981   0.233  53.560  1.00  0.00     0.129 A 
HETATM    5  C6  UNL     1      22.585   1.397  53.099  1.00  0.00     0.174 A 
HETATM    6  F1  UNL     1      21.732   2.387  52.728  1.00  0.00    -0.201 F 
HETATM    7  C7  UNL     1      23.979   1.493  53.040  1.00  0.00     0.082 A 
HETATM    8  N3  UNL     1      20.652  -0.227  53.758  1.00  0.00    -0.220 NA
HETATM    9  C14 UNL     1      20.726  -1.419  54.205  1.00  0.00     0.199 A 
HETATM   10  N4  UNL     1      21.909  -1.894  54.385  1.00  0.00    -0.224 NA
ENDROOT
BRANCH   7  11
HETATM   11  N2  UNL     1      24.417   2.751  52.545  1.00  0.00    -0.352 N 
HETATM   12  H6  UNL     1      25.088   3.134  53.236  1.00  0.00     0.166 HD
BRANCH  11  13
HETATM   13  C8  UNL     1      24.014   3.373  51.332  1.00  0.00     0.054 A 
HETATM   14  C9  UNL     1      24.181   2.654  50.171  1.00  0.00     0.032 A 
HETATM   15  C10 UNL     1      23.771   3.306  49.009  1.00  0.00     0.021 A 
HETATM   16  C11 UNL     1      23.234   4.596  49.058  1.00  0.00     0.012 A 
HETATM   17 BR1  UNL     1      22.661   5.531  47.518  1.00  0.00    -0.051 Br
HETATM   18  C12 UNL     1      23.097   5.262  50.281  1.00  0.00     0.045 A 
HETATM   19  C13 UNL     1      23.496   4.643  51.472  1.00  0.00     0.062 A 
HETATM   20 CL1  UNL     1      23.348   5.424  53.022  1.00  0.00    -0.082 Cl
ENDBRANCH  11  13
ENDBRANCH   7  11
BRANCH   1  21
HETATM   21  C1  UNL     1      26.199   0.684  53.319  1.00  0.00     0.158 C 
BRANCH  21  22
HETATM   22  N1  UNL     1      26.737   1.455  54.403  1.00  0.00    -0.204 NA
HETATM   23  H2  UNL     1      27.563   0.919  54.754  1.00  0.00     0.153 HD
BRANCH  22  24
HETATM   24  O1  UNL     1      27.132   2.673  54.006  1.00  0.00    -0.315 OA
HETATM   25  H1  UNL     1      28.093   2.785  53.898  1.00  0.00     0.236 HD
ENDBRANCH  22  24
ENDBRANCH  21  22
ENDBRANCH   1  21
TORSDOF 5
ENDMDL
MODEL 9
REMARK VINA RESULT:      -6.9     17.439     19.829
REMARK  5 active torsions:
REMARK  status: ('A' for Active; 'I' for Inactive)
REMARK    1  A    between atoms: O1_1  and  N1_2 
REMARK    2  A    between atoms: N1_2  and  C1_3 
REMARK    3  A    between atoms: C1_3  and  C2_4 
REMARK    4  A    between atoms: C7_10  and  N2_11 
REMARK    5  A    between atoms: N2_11  and  C8_12 
ROOT
HETATM    1  C2  UNL     1      40.374   7.366  53.301  1.00  0.00    -0.011 A 
HETATM    2  C3  UNL     1      40.237   7.739  52.001  1.00  0.00     0.045 A 
HETATM    3  C4  UNL     1      41.221   8.371  51.303  1.00  0.00     0.092 A 
HETATM    4  C5  UNL     1      42.430   8.651  51.949  1.00  0.00     0.129 A 
HETATM    5  C6  UNL     1      42.603   8.282  53.278  1.00  0.00     0.174 A 
HETATM    6  F1  UNL     1      43.810   8.596  53.817  1.00  0.00    -0.201 F 
HETATM    7  C7  UNL     1      41.574   7.635  53.971  1.00  0.00     0.082 A 
HETATM    8  N3  UNL     1      43.208   9.296  50.952  1.00  0.00    -0.220 NA
HETATM    9  C14 UNL     1      42.502   9.343  49.892  1.00  0.00     0.199 A 
HETATM   10  N4  UNL     1      41.316   8.850  49.968  1.00  0.00    -0.224 NA
ENDROOT
BRANCH   7  11
HETATM   11  N2  UNL     1      41.927   7.336  55.314  1.00  0.00    -0.352 N 
HETATM   12  H6  UNL     1      41.308   7.899  55.925  1.00  0.00     0.166 HD
BRANCH  11  13
HETATM   13  C8  UNL     1      42.939   6.434  55.745  1.00  0.00     0.054 A 
HETATM   14  C9  UNL     1      42.869   5.141  55.281  1.00  0.00     0.032 A 
HETATM   15  C10 UNL     1      43.882   4.296  55.731  1.00  0.00     0.021 A 
HETATM   16  C11 UNL     1      44.881   4.764  56.591  1.00  0.00     0.012 A 
HETATM   17 BR1  UNL     1      46.280   3.668  57.235  1.00  0.00    -0.051 Br
HETATM   18  C12 UNL     1      44.883   6.096  57.018  1.00  0.00     0.045 A 
HETATM   19  C13 UNL     1      43.883   6.979  56.590  1.00  0.00     0.062 A 
HETATM   20 CL1  UNL     1      43.836   8.647  57.090  1.00  0.00    -0.082 Cl
ENDBRANCH  11  13
ENDBRANCH   7  11
BRANCH   1  21
HETATM   21  C1  UNL     1      39.407   6.679  54.190  1.00  0.00     0.158 C 
BRANCH  21  22
HETATM   22  N1  UNL     1      38.034   6.922  53.846  1.00  0.00    -0.204 NA
HETATM   23  H2  UNL     1      38.029   7.811  53.297  1.00  0.00     0.153 HD
BRANCH  22  24
HETATM   24  O1  UNL     1      37.521   5.934  53.101  1.00  0.00    -0.315 OA
HETATM   25  H1  UNL     1      37.617   5.039  53.472  1.00  0.00     0.236 HD
ENDBRANCH  22  24
ENDBRANCH  21  22
ENDBRANCH   1  21
TORSDOF 5
ENDMDL
