MODEL 1
REMARK VINA RESULT:      -8.9      0.000      0.000
REMARK  7 active torsions:
REMARK  status: ('A' for Active; 'I' for Inactive)
REMARK    1  A    between atoms: O1_2  and  C2_3 
REMARK    2  A    between atoms: C6_8  and  N2_9 
REMARK    3  A    between atoms: N2_9  and  C7_10 
REMARK    4  A    between atoms: N3_25  and  C19_26 
REMARK    5  A    between atoms: C19_26  and  C20_27 
REMARK    6  A    between atoms: C20_27  and  C21_28 
REMARK    7  A    between atoms: C21_28  and  N4_29 
ROOT
HETATM    1  C2  UNL     1      21.011   2.447  52.317  1.00  0.00     0.055 C 
HETATM    2  C3  UNL     1      21.470   1.372  52.931  1.00  0.00    -0.014 A 
HETATM    3  C4  UNL     1      20.704   0.597  53.944  1.00  0.00     0.088 A 
HETATM    4  C5  UNL     1      21.486  -0.560  54.447  1.00  0.00     0.096 A 
HETATM    5  N1  UNL     1      22.680  -0.870  54.067  1.00  0.00    -0.246 NA
HETATM    6  C6  UNL     1      23.390  -0.091  53.083  1.00  0.00     0.134 A 
HETATM    7  C13 UNL     1      22.819   0.993  52.527  1.00  0.00    -0.001 A 
HETATM    8  C14 UNL     1      23.626   1.735  51.526  1.00  0.00     0.087 C 
HETATM    9  C15 UNL     1      22.655   2.314  50.501  1.00  0.00     0.190 C 
HETATM   10  C16 UNL     1      21.808   1.187  50.019  1.00  0.00     0.210 C 
HETATM   11  O2  UNL     1      21.443   1.172  48.707  1.00  0.00    -0.387 OA
HETATM   12  C17 UNL     1      22.312   1.728  47.808  1.00  0.00     0.198 C 
HETATM   13  C18 UNL     1      22.497   3.168  48.311  1.00  0.00     0.299 C 
HETATM   14  N3  UNL     1      23.345   3.023  49.472  1.00  0.00     0.103 N 
HETATM   15  C22 UNL     1      21.739   3.243  51.309  1.00  0.00     0.109 C 
ENDROOT
BRANCH  14  16
HETATM   16  C19 UNL     1      23.903   4.250  49.926  1.00  0.00     0.275 C 
BRANCH  16  17
HETATM   17  C20 UNL     1      25.252   4.563  49.336  1.00  0.00     0.060 C 
BRANCH  17  18
HETATM   18  C21 UNL     1      26.250   3.448  49.574  1.00  0.00     0.268 C 
BRANCH  18  19
HETATM   19  N4  UNL     1      26.720   3.425  50.948  1.00  0.00     0.078 N 
HETATM   20  H25 UNL     1      26.411   4.291  51.477  1.00  0.00     0.312 HD
HETATM   21  H26 UNL     1      27.771   3.465  50.995  1.00  0.00     0.312 HD
ENDBRANCH  18  19
ENDBRANCH  17  18
ENDBRANCH  16  17
ENDBRANCH  14  16
BRANCH   1  22
HETATM   22  O1  UNL     1      19.710   2.843  52.679  1.00  0.00    -0.360 OA
HETATM   23  C1  UNL     1      18.735   3.043  51.686  1.00  0.00     0.209 C 
ENDBRANCH   1  22
BRANCH   6  24
HETATM   24  N2  UNL     1      24.697  -0.520  52.742  1.00  0.00    -0.341 N 
HETATM   25  H7  UNL     1      24.543  -1.273  52.008  1.00  0.00     0.167 HD
BRANCH  24  26
HETATM   26  C7  UNL     1      25.992  -0.158  53.161  1.00  0.00     0.035 A 
HETATM   27  C8  UNL     1      26.195   1.105  53.681  1.00  0.00     0.032 A 
HETATM   28  C9  UNL     1      27.469   1.411  54.076  1.00  0.00     0.046 A 
HETATM   29  C10 UNL     1      28.554   0.564  53.995  1.00  0.00     0.138 A 
HETATM   30  F1  UNL     1      29.755   0.973  54.413  1.00  0.00    -0.204 F 
HETATM   31  C11 UNL     1      28.283  -0.689  53.465  1.00  0.00     0.074 A 
HETATM   32 CL1  UNL     1      29.656  -1.785  53.354  1.00  0.00    -0.081 Cl
HETATM   33  C12 UNL     1      27.011  -1.065  53.044  1.00  0.00     0.056 A 
ENDBRANCH  24  26
ENDBRANCH   6  24
TORSDOF 7
ENDMDL
MODEL 2
REMARK VINA RESULT:      -8.6      1.130      1.410
REMARK  7 active torsions:
REMARK  status: ('A' for Active; 'I' for Inactive)
REMARK    1  A    between atoms: O1_2  and  C2_3 
REMARK    2  A    between atoms: C6_8  and  N2_9 
REMARK    3  A    between atoms: N2_9  and  C7_10 
REMARK    4  A    between atoms: N3_25  and  C19_26 
REMARK    5  A    between atoms: C19_26  and  C20_27 
REMARK    6  A    between atoms: C20_27  and  C21_28 
REMARK    7  A    between atoms: C21_28  and  N4_29 
ROOT
HETATM    1  C2  UNL     1      21.430   2.557  52.308  1.00  0.00     0.055 C 
HETATM    2  C3  UNL     1      21.943   1.448  52.808  1.00  0.00    -0.014 A 
HETATM    3  C4  UNL     1      21.274   0.608  53.838  1.00  0.00     0.088 A 
HETATM    4  C5  UNL     1      22.097  -0.574  54.192  1.00  0.00     0.096 A 
HETATM    5  N1  UNL     1      23.250  -0.855  53.684  1.00  0.00    -0.246 NA
HETATM    6  C6  UNL     1      23.867  -0.013  52.688  1.00  0.00     0.134 A 
HETATM    7  C13 UNL     1      23.248   1.100  52.257  1.00  0.00    -0.001 A 
HETATM    8  C14 UNL     1      23.958   1.907  51.233  1.00  0.00     0.087 C 
HETATM    9  C15 UNL     1      22.896   2.544  50.340  1.00  0.00     0.190 C 
HETATM   10  C16 UNL     1      22.006   1.446  49.870  1.00  0.00     0.210 C 
HETATM   11  O2  UNL     1      21.520   1.512  48.600  1.00  0.00    -0.387 OA
HETATM   12  C17 UNL     1      22.302   2.126  47.660  1.00  0.00     0.198 C 
HETATM   13  C18 UNL     1      22.536   3.532  48.233  1.00  0.00     0.299 C 
HETATM   14  N3  UNL     1      23.488   3.319  49.298  1.00  0.00     0.103 N 
HETATM   15  C22 UNL     1      22.061   3.418  51.287  1.00  0.00     0.109 C 
ENDROOT
BRANCH  14  16
HETATM   16  C19 UNL     1      24.088   4.518  49.773  1.00  0.00     0.275 C 
BRANCH  16  17
HETATM   17  C20 UNL     1      25.296   4.951  48.986  1.00  0.00     0.060 C 
BRANCH  17  18
HETATM   18  C21 UNL     1      26.568   4.307  49.494  1.00  0.00     0.268 C 
BRANCH  18  19
HETATM   19  N4  UNL     1      27.743   5.099  49.175  1.00  0.00     0.078 N 
HETATM   20  H25 UNL     1      28.518   4.944  49.884  1.00  0.00     0.312 HD
HETATM   21  H26 UNL     1      27.542   6.130  49.246  1.00  0.00     0.312 HD
ENDBRANCH  18  19
ENDBRANCH  17  18
ENDBRANCH  16  17
ENDBRANCH  14  16
BRANCH   1  22
HETATM   22  O1  UNL     1      20.169   2.924  52.814  1.00  0.00    -0.360 OA
HETATM   23  C1  UNL     1      19.109   3.195  51.930  1.00  0.00     0.209 C 
ENDBRANCH   1  22
BRANCH   6  24
HETATM   24  N2  UNL     1      25.135  -0.415  52.199  1.00  0.00    -0.341 N 
HETATM   25  H7  UNL     1      24.920  -0.904  51.282  1.00  0.00     0.167 HD
BRANCH  24  26
HETATM   26  C7  UNL     1      26.456  -0.286  52.671  1.00  0.00     0.035 A 
HETATM   27  C8  UNL     1      27.220  -1.426  52.830  1.00  0.00     0.032 A 
HETATM   28  C9  UNL     1      28.498  -1.251  53.290  1.00  0.00     0.046 A 
HETATM   29  C10 UNL     1      29.073  -0.037  53.604  1.00  0.00     0.138 A 
HETATM   30  F1  UNL     1      30.333   0.012  54.046  1.00  0.00    -0.204 F 
HETATM   31  C11 UNL     1      28.253   1.066  53.422  1.00  0.00     0.074 A 
HETATM   32 CL1  UNL     1      28.970   2.625  53.817  1.00  0.00    -0.081 Cl
HETATM   33  C12 UNL     1      26.945   0.960  52.958  1.00  0.00     0.056 A 
ENDBRANCH  24  26
ENDBRANCH   6  24
TORSDOF 7
ENDMDL
MODEL 3
REMARK VINA RESULT:      -8.5      1.629      1.974
REMARK  7 active torsions:
REMARK  status: ('A' for Active; 'I' for Inactive)
REMARK    1  A    between atoms: O1_2  and  C2_3 
REMARK    2  A    between atoms: C6_8  and  N2_9 
REMARK    3  A    between atoms: N2_9  and  C7_10 
REMARK    4  A    between atoms: N3_25  and  C19_26 
REMARK    5  A    between atoms: C19_26  and  C20_27 
REMARK    6  A    between atoms: C20_27  and  C21_28 
REMARK    7  A    between atoms: C21_28  and  N4_29 
ROOT
HETATM    1  C2  UNL     1      20.577   0.861  53.035  1.00  0.00     0.055 C 
HETATM    2  C3  UNL     1      21.658   0.270  53.508  1.00  0.00    -0.014 A 
HETATM    3  C4  UNL     1      21.642  -0.978  54.318  1.00  0.00     0.088 A 
HETATM    4  C5  UNL     1      23.014  -1.399  54.695  1.00  0.00     0.096 A 
HETATM    5  N1  UNL     1      24.097  -0.775  54.371  1.00  0.00    -0.246 NA
HETATM    6  C6  UNL     1      24.070   0.435  53.586  1.00  0.00     0.134 A 
HETATM    7  C13 UNL     1      22.902   0.949  53.163  1.00  0.00    -0.001 A 
HETATM    8  C14 UNL     1      22.971   2.198  52.363  1.00  0.00     0.087 C 
HETATM    9  C15 UNL     1      21.817   2.161  51.364  1.00  0.00     0.190 C 
HETATM   10  C16 UNL     1      21.909   0.862  50.641  1.00  0.00     0.210 C 
HETATM   11  O2  UNL     1      21.589   0.839  49.317  1.00  0.00    -0.387 OA
HETATM   12  C17 UNL     1      21.832   1.974  48.593  1.00  0.00     0.198 C 
HETATM   13  C18 UNL     1      21.040   3.064  49.332  1.00  0.00     0.299 C 
HETATM   14  N3  UNL     1      21.820   3.314  50.522  1.00  0.00     0.103 N 
HETATM   15  C22 UNL     1      20.551   2.099  52.230  1.00  0.00     0.109 C 
ENDROOT
BRANCH  14  16
HETATM   16  C19 UNL     1      21.445   4.501  51.209  1.00  0.00     0.275 C 
BRANCH  16  17
HETATM   17  C20 UNL     1      22.330   5.683  50.915  1.00  0.00     0.060 C 
BRANCH  17  18
HETATM   18  C21 UNL     1      23.718   5.514  51.497  1.00  0.00     0.268 C 
BRANCH  18  19
HETATM   19  N4  UNL     1      24.222   6.752  52.065  1.00  0.00     0.078 N 
HETATM   20  H25 UNL     1      24.102   6.771  53.120  1.00  0.00     0.312 HD
HETATM   21  H26 UNL     1      23.666   7.581  51.734  1.00  0.00     0.312 HD
ENDBRANCH  18  19
ENDBRANCH  17  18
ENDBRANCH  16  17
ENDBRANCH  14  16
BRANCH   1  22
HETATM   22  O1  UNL     1      19.357   0.233  53.346  1.00  0.00    -0.360 OA
HETATM   23  C1  UNL     1      18.526  -0.237  52.312  1.00  0.00     0.209 C 
ENDBRANCH   1  22
BRANCH   6  24
HETATM   24  N2  UNL     1      25.318   1.039  53.291  1.00  0.00    -0.341 N 
HETATM   25  H7  UNL     1      25.063   2.001  52.918  1.00  0.00     0.167 HD
BRANCH  24  26
HETATM   26  C7  UNL     1      26.660   0.626  53.399  1.00  0.00     0.035 A 
HETATM   27  C8  UNL     1      27.615   1.554  53.765  1.00  0.00     0.032 A 
HETATM   28  C9  UNL     1      28.906   1.105  53.858  1.00  0.00     0.046 A 
HETATM   29  C10 UNL     1      29.319  -0.188  53.615  1.00  0.00     0.138 A 
HETATM   30  F1  UNL     1      30.609  -0.511  53.738  1.00  0.00    -0.204 F 
HETATM   31  C11 UNL     1      28.311  -1.069  53.253  1.00  0.00     0.074 A 
HETATM   32 CL1  UNL     1      28.820  -2.725  52.940  1.00  0.00    -0.081 Cl
HETATM   33  C12 UNL     1      26.980  -0.680  53.140  1.00  0.00     0.056 A 
ENDBRANCH  24  26
ENDBRANCH   6  24
TORSDOF 7
ENDMDL
MODEL 4
REMARK VINA RESULT:      -7.7      4.396      6.733
REMARK  7 active torsions:
REMARK  status: ('A' for Active; 'I' for Inactive)
REMARK    1  A    between atoms: O1_2  and  C2_3 
REMARK    2  A    between atoms: C6_8  and  N2_9 
REMARK    3  A    between atoms: N2_9  and  C7_10 
REMARK    4  A    between atoms: N3_25  and  C19_26 
REMARK    5  A    between atoms: C19_26  and  C20_27 
REMARK    6  A    between atoms: C20_27  and  C21_28 
REMARK    7  A    between atoms: C21_28  and  N4_29 
ROOT
HETATM    1  C2  UNL     1      24.712   0.462  52.690  1.00  0.00     0.055 C 
HETATM    2  C3  UNL     1      23.778  -0.039  53.476  1.00  0.00    -0.014 A 
HETATM    3  C4  UNL     1      24.052  -0.918  54.645  1.00  0.00     0.088 A 
HETATM    4  C5  UNL     1      22.798  -1.313  55.333  1.00  0.00     0.096 A 
HETATM    5  N1  UNL     1      21.610  -0.951  54.978  1.00  0.00    -0.246 NA
HETATM    6  C6  UNL     1      21.386  -0.099  53.835  1.00  0.00     0.134 A 
HETATM    7  C13 UNL     1      22.422   0.348  53.103  1.00  0.00    -0.001 A 
HETATM    8  C14 UNL     1      22.096   1.217  51.944  1.00  0.00     0.087 C 
HETATM    9  C15 UNL     1      23.246   2.208  51.783  1.00  0.00     0.190 C 
HETATM   10  C16 UNL     1      23.450   2.858  53.108  1.00  0.00     0.210 C 
HETATM   11  O2  UNL     1      23.788   4.176  53.133  1.00  0.00    -0.387 OA
HETATM   12  C17 UNL     1      23.315   4.964  52.119  1.00  0.00     0.198 C 
HETATM   13  C18 UNL     1      23.841   4.285  50.845  1.00  0.00     0.299 C 
HETATM   14  N3  UNL     1      23.006   3.114  50.706  1.00  0.00     0.103 N 
HETATM   15  C22 UNL     1      24.481   1.336  51.521  1.00  0.00     0.109 C 
ENDROOT
BRANCH  14  16
HETATM   16  C19 UNL     1      23.104   2.493  49.430  1.00  0.00     0.275 C 
BRANCH  16  17
HETATM   17  C20 UNL     1      22.306   3.179  48.354  1.00  0.00     0.060 C 
BRANCH  17  18
HETATM   18  C21 UNL     1      20.814   3.075  48.597  1.00  0.00     0.268 C 
BRANCH  18  19
HETATM   19  N4  UNL     1      20.367   1.694  48.639  1.00  0.00     0.078 N 
HETATM   20  H25 UNL     1      19.787   1.501  49.508  1.00  0.00     0.312 HD
HETATM   21  H26 UNL     1      21.178   1.029  48.727  1.00  0.00     0.312 HD
ENDBRANCH  18  19
ENDBRANCH  17  18
ENDBRANCH  16  17
ENDBRANCH  14  16
BRANCH   1  22
HETATM   22  O1  UNL     1      26.035   0.112  53.020  1.00  0.00    -0.360 OA
HETATM   23  C1  UNL     1      26.722  -0.843  52.250  1.00  0.00     0.209 C 
ENDBRANCH   1  22
BRANCH   6  24
HETATM   24  N2  UNL     1      20.042   0.234  53.534  1.00  0.00    -0.341 N 
HETATM   25  H7  UNL     1      19.988   1.282  53.695  1.00  0.00     0.167 HD
BRANCH  24  26
HETATM   26  C7  UNL     1      18.919  -0.502  53.110  1.00  0.00     0.035 A 
HETATM   27  C8  UNL     1      18.116   0.020  52.115  1.00  0.00     0.032 A 
HETATM   28  C9  UNL     1      17.037  -0.732  51.736  1.00  0.00     0.046 A 
HETATM   29  C10 UNL     1      16.693  -1.957  52.267  1.00  0.00     0.138 A 
HETATM   30  F1  UNL     1      15.613  -2.601  51.817  1.00  0.00    -0.204 F 
HETATM   31  C11 UNL     1      17.539  -2.424  53.261  1.00  0.00     0.074 A 
HETATM   32 CL1  UNL     1      17.116  -3.988  53.952  1.00  0.00    -0.081 Cl
HETATM   33  C12 UNL     1      18.653  -1.712  53.694  1.00  0.00     0.056 A 
ENDBRANCH  24  26
ENDBRANCH   6  24
TORSDOF 7
ENDMDL
MODEL 5
REMARK VINA RESULT:      -7.5      3.829      6.175
REMARK  7 active torsions:
REMARK  status: ('A' for Active; 'I' for Inactive)
REMARK    1  A    between atoms: O1_2  and  C2_3 
REMARK    2  A    between atoms: C6_8  and  N2_9 
REMARK    3  A    between atoms: N2_9  and  C7_10 
REMARK    4  A    between atoms: N3_25  and  C19_26 
REMARK    5  A    between atoms: C19_26  and  C20_27 
REMARK    6  A    between atoms: C20_27  and  C21_28 
REMARK    7  A    between atoms: C21_28  and  N4_29 
ROOT
HETATM    1  C2  UNL     1      25.495   3.313  49.788  1.00  0.00     0.055 C 
HETATM    2  C3  UNL     1      25.417   2.608  50.901  1.00  0.00    -0.014 A 
HETATM    3  C4  UNL     1      26.575   1.929  51.544  1.00  0.00     0.088 A 
HETATM    4  C5  UNL     1      26.170   1.223  52.784  1.00  0.00     0.096 A 
HETATM    5  N1  UNL     1      24.971   1.189  53.262  1.00  0.00    -0.246 NA
HETATM    6  C6  UNL     1      23.874   1.859  52.607  1.00  0.00     0.134 A 
HETATM    7  C13 UNL     1      24.075   2.546  51.469  1.00  0.00    -0.001 A 
HETATM    8  C14 UNL     1      22.887   3.201  50.864  1.00  0.00     0.087 C 
HETATM    9  C15 UNL     1      23.371   4.478  50.182  1.00  0.00     0.190 C 
HETATM   10  C16 UNL     1      24.152   5.244  51.194  1.00  0.00     0.210 C 
HETATM   11  O2  UNL     1      24.055   6.602  51.188  1.00  0.00    -0.387 OA
HETATM   12  C17 UNL     1      22.869   7.144  50.775  1.00  0.00     0.198 C 
HETATM   13  C18 UNL     1      22.671   6.572  49.363  1.00  0.00     0.299 C 
HETATM   14  N3  UNL     1      22.288   5.198  49.595  1.00  0.00     0.103 N 
HETATM   15  C22 UNL     1      24.371   4.000  49.120  1.00  0.00     0.109 C 
ENDROOT
BRANCH  14  16
HETATM   16  C19 UNL     1      21.754   4.554  48.445  1.00  0.00     0.275 C 
BRANCH  16  17
HETATM   17  C20 UNL     1      20.262   4.365  48.488  1.00  0.00     0.060 C 
BRANCH  17  18
HETATM   18  C21 UNL     1      19.861   2.931  48.210  1.00  0.00     0.268 C 
BRANCH  18  19
HETATM   19  N4  UNL     1      19.030   2.820  47.024  1.00  0.00     0.078 N 
HETATM   20  H25 UNL     1      19.460   3.336  46.201  1.00  0.00     0.312 HD
HETATM   21  H26 UNL     1      18.101   3.294  47.159  1.00  0.00     0.312 HD
ENDBRANCH  18  19
ENDBRANCH  17  18
ENDBRANCH  16  17
ENDBRANCH  14  16
BRANCH   1  22
HETATM   22  O1  UNL     1      26.776   3.398  49.212  1.00  0.00    -0.360 OA
HETATM   23  C1  UNL     1      27.302   4.651  48.850  1.00  0.00     0.209 C 
ENDBRANCH   1  22
BRANCH   6  24
HETATM   24  N2  UNL     1      22.599   1.754  53.216  1.00  0.00    -0.341 N 
HETATM   25  H7  UNL     1      22.407   2.728  53.595  1.00  0.00     0.167 HD
BRANCH  24  26
HETATM   26  C7  UNL     1      21.670   0.708  53.379  1.00  0.00     0.035 A 
HETATM   27  C8  UNL     1      21.968  -0.318  54.254  1.00  0.00     0.032 A 
HETATM   28  C9  UNL     1      21.034  -1.311  54.380  1.00  0.00     0.046 A 
HETATM   29  C10 UNL     1      19.833  -1.365  53.705  1.00  0.00     0.138 A 
HETATM   30  F1  UNL     1      18.997  -2.388  53.908  1.00  0.00    -0.204 F 
HETATM   31  C11 UNL     1      19.595  -0.306  52.843  1.00  0.00     0.074 A 
HETATM   32 CL1  UNL     1      18.065  -0.357  51.973  1.00  0.00    -0.081 Cl
HETATM   33  C12 UNL     1      20.500   0.736  52.668  1.00  0.00     0.056 A 
ENDBRANCH  24  26
ENDBRANCH   6  24
TORSDOF 7
ENDMDL
MODEL 6
REMARK VINA RESULT:      -7.4      2.293      2.960
REMARK  7 active torsions:
REMARK  status: ('A' for Active; 'I' for Inactive)
REMARK    1  A    between atoms: O1_2  and  C2_3 
REMARK    2  A    between atoms: C6_8  and  N2_9 
REMARK    3  A    between atoms: N2_9  and  C7_10 
REMARK    4  A    between atoms: N3_25  and  C19_26 
REMARK    5  A    between atoms: C19_26  and  C20_27 
REMARK    6  A    between atoms: C20_27  and  C21_28 
REMARK    7  A    between atoms: C21_28  and  N4_29 
ROOT
HETATM    1  C2  UNL     1      18.586   1.783  51.151  1.00  0.00     0.055 C 
HETATM    2  C3  UNL     1      19.128   0.911  51.981  1.00  0.00    -0.014 A 
HETATM    3  C4  UNL     1      18.469  -0.349  52.417  1.00  0.00     0.088 A 
HETATM    4  C5  UNL     1      19.332  -1.121  53.345  1.00  0.00     0.096 A 
HETATM    5  N1  UNL     1      20.508  -0.760  53.738  1.00  0.00    -0.246 NA
HETATM    6  C6  UNL     1      21.112   0.473  53.294  1.00  0.00     0.134 A 
HETATM    7  C13 UNL     1      20.458   1.288  52.447  1.00  0.00    -0.001 A 
HETATM    8  C14 UNL     1      21.155   2.536  52.046  1.00  0.00     0.087 C 
HETATM    9  C15 UNL     1      20.727   2.856  50.617  1.00  0.00     0.190 C 
HETATM   10  C16 UNL     1      20.967   1.629  49.805  1.00  0.00     0.210 C 
HETATM   11  O2  UNL     1      21.405   1.781  48.525  1.00  0.00    -0.387 OA
HETATM   12  C17 UNL     1      22.187   2.871  48.254  1.00  0.00     0.198 C 
HETATM   13  C18 UNL     1      21.322   4.066  48.686  1.00  0.00     0.299 C 
HETATM   14  N3  UNL     1      21.375   4.030  50.129  1.00  0.00     0.103 N 
HETATM   15  C22 UNL     1      19.205   3.044  50.696  1.00  0.00     0.109 C 
ENDROOT
BRANCH  14  16
HETATM   16  C19 UNL     1      20.900   5.220  50.745  1.00  0.00     0.275 C 
BRANCH  16  17
HETATM   17  C20 UNL     1      21.969   6.253  50.986  1.00  0.00     0.060 C 
BRANCH  17  18
HETATM   18  C21 UNL     1      23.216   5.649  51.598  1.00  0.00     0.268 C 
BRANCH  18  19
HETATM   19  N4  UNL     1      24.176   6.667  51.986  1.00  0.00     0.078 N 
HETATM   20  H25 UNL     1      24.983   6.720  51.298  1.00  0.00     0.312 HD
HETATM   21  H26 UNL     1      24.641   6.429  52.900  1.00  0.00     0.312 HD
ENDBRANCH  18  19
ENDBRANCH  17  18
ENDBRANCH  16  17
ENDBRANCH  14  16
BRANCH   1  22
HETATM   22  O1  UNL     1      17.302   1.452  50.678  1.00  0.00    -0.360 OA
HETATM   23  C1  UNL     1      17.012   1.555  49.305  1.00  0.00     0.209 C 
ENDBRANCH   1  22
BRANCH   6  24
HETATM   24  N2  UNL     1      22.405   0.772  53.789  1.00  0.00    -0.341 N 
HETATM   25  H7  UNL     1      22.226   1.354  54.659  1.00  0.00     0.167 HD
BRANCH  24  26
HETATM   26  C7  UNL     1      23.714   0.463  53.370  1.00  0.00     0.035 A 
HETATM   27  C8  UNL     1      24.323  -0.672  53.870  1.00  0.00     0.032 A 
HETATM   28  C9  UNL     1      25.594  -0.932  53.432  1.00  0.00     0.046 A 
HETATM   29  C10 UNL     1      26.305  -0.156  52.541  1.00  0.00     0.138 A 
HETATM   30  F1  UNL     1      27.543  -0.509  52.186  1.00  0.00    -0.204 F 
HETATM   31  C11 UNL     1      25.637   0.968  52.078  1.00  0.00     0.074 A 
HETATM   32 CL1  UNL     1      26.528   1.972  50.939  1.00  0.00    -0.081 Cl
HETATM   33  C12 UNL     1      24.345   1.291  52.481  1.00  0.00     0.056 A 
ENDBRANCH  24  26
ENDBRANCH   6  24
TORSDOF 7
ENDMDL
MODEL 7
REMARK VINA RESULT:      -7.4      4.258      6.429
REMARK  7 active torsions:
REMARK  status: ('A' for Active; 'I' for Inactive)
REMARK    1  A    between atoms: O1_2  and  C2_3 
REMARK    2  A    between atoms: C6_8  and  N2_9 
REMARK    3  A    between atoms: N2_9  and  C7_10 
REMARK    4  A    between atoms: N3_25  and  C19_26 
REMARK    5  A    between atoms: C19_26  and  C20_27 
REMARK    6  A    between atoms: C20_27  and  C21_28 
REMARK    7  A    between atoms: C21_28  and  N4_29 
ROOT
HETATM    1  C2  UNL     1      25.375   1.764  52.708  1.00  0.00     0.055 C 
HETATM    2  C3  UNL     1      24.380   0.915  52.883  1.00  0.00    -0.014 A 
HETATM    3  C4  UNL     1      24.327  -0.100  53.970  1.00  0.00     0.088 A 
HETATM    4  C5  UNL     1      23.079  -0.900  53.906  1.00  0.00     0.096 A 
HETATM    5  N1  UNL     1      22.146  -0.751  53.027  1.00  0.00    -0.246 NA
HETATM    6  C6  UNL     1      22.236   0.243  51.986  1.00  0.00     0.134 A 
HETATM    7  C13 UNL     1      23.307   1.053  51.905  1.00  0.00    -0.001 A 
HETATM    8  C14 UNL     1      23.314   2.045  50.800  1.00  0.00     0.087 C 
HETATM    9  C15 UNL     1      24.053   3.281  51.304  1.00  0.00     0.190 C 
HETATM   10  C16 UNL     1      23.415   3.675  52.592  1.00  0.00     0.210 C 
HETATM   11  O2  UNL     1      23.293   5.002  52.870  1.00  0.00    -0.387 OA
HETATM   12  C17 UNL     1      23.135   5.853  51.810  1.00  0.00     0.198 C 
HETATM   13  C18 UNL     1      24.367   5.585  50.932  1.00  0.00     0.299 C 
HETATM   14  N3  UNL     1      24.083   4.310  50.315  1.00  0.00     0.103 N 
HETATM   15  C22 UNL     1      25.465   2.783  51.643  1.00  0.00     0.109 C 
ENDROOT
BRANCH  14  16
HETATM   16  C19 UNL     1      24.942   4.002  49.224  1.00  0.00     0.275 C 
BRANCH  16  17
HETATM   17  C20 UNL     1      25.945   5.080  48.913  1.00  0.00     0.060 C 
BRANCH  17  18
HETATM   18  C21 UNL     1      27.364   4.548  48.891  1.00  0.00     0.268 C 
BRANCH  18  19
HETATM   19  N4  UNL     1      28.344   5.620  48.887  1.00  0.00     0.078 N 
HETATM   20  H25 UNL     1      29.237   5.325  48.394  1.00  0.00     0.312 HD
HETATM   21  H26 UNL     1      28.662   5.853  49.863  1.00  0.00     0.312 HD
ENDBRANCH  18  19
ENDBRANCH  17  18
ENDBRANCH  16  17
ENDBRANCH  14  16
BRANCH   1  22
HETATM   22  O1  UNL     1      26.429   1.662  53.636  1.00  0.00    -0.360 OA
HETATM   23  C1  UNL     1      27.727   2.061  53.269  1.00  0.00     0.209 C 
ENDBRANCH   1  22
BRANCH   6  24
HETATM   24  N2  UNL     1      21.156   0.319  51.071  1.00  0.00    -0.341 N 
HETATM   25  H7  UNL     1      21.556  -0.050  50.160  1.00  0.00     0.167 HD
BRANCH  24  26
HETATM   26  C7  UNL     1      19.817   0.746  51.166  1.00  0.00     0.035 A 
HETATM   27  C8  UNL     1      19.482   2.000  50.692  1.00  0.00     0.032 A 
HETATM   28  C9  UNL     1      18.169   2.370  50.804  1.00  0.00     0.046 A 
HETATM   29  C10 UNL     1      17.166   1.595  51.348  1.00  0.00     0.138 A 
HETATM   30  F1  UNL     1      15.916   2.063  51.404  1.00  0.00    -0.204 F 
HETATM   31  C11 UNL     1      17.568   0.348  51.803  1.00  0.00     0.074 A 
HETATM   32 CL1  UNL     1      16.300  -0.656  52.500  1.00  0.00    -0.081 Cl
HETATM   33  C12 UNL     1      18.885  -0.091  51.720  1.00  0.00     0.056 A 
ENDBRANCH  24  26
ENDBRANCH   6  24
TORSDOF 7
ENDMDL
MODEL 8
REMARK VINA RESULT:      -7.4      3.717      5.820
REMARK  7 active torsions:
REMARK  status: ('A' for Active; 'I' for Inactive)
REMARK    1  A    between atoms: O1_2  and  C2_3 
REMARK    2  A    between atoms: C6_8  and  N2_9 
REMARK    3  A    between atoms: N2_9  and  C7_10 
REMARK    4  A    between atoms: N3_25  and  C19_26 
REMARK    5  A    between atoms: C19_26  and  C20_27 
REMARK    6  A    between atoms: C20_27  and  C21_28 
REMARK    7  A    between atoms: C21_28  and  N4_29 
ROOT
HETATM    1  C2  UNL     1      23.123   2.146  52.371  1.00  0.00     0.055 C 
HETATM    2  C3  UNL     1      24.352   2.210  51.894  1.00  0.00    -0.014 A 
HETATM    3  C4  UNL     1      25.491   1.403  52.408  1.00  0.00     0.088 A 
HETATM    4  C5  UNL     1      26.742   1.693  51.664  1.00  0.00     0.096 A 
HETATM    5  N1  UNL     1      26.849   2.536  50.692  1.00  0.00    -0.246 NA
HETATM    6  C6  UNL     1      25.719   3.302  50.224  1.00  0.00     0.134 A 
HETATM    7  C13 UNL     1      24.510   3.155  50.794  1.00  0.00    -0.001 A 
HETATM    8  C14 UNL     1      23.407   3.986  50.249  1.00  0.00     0.087 C 
HETATM    9  C15 UNL     1      22.120   3.176  50.383  1.00  0.00     0.190 C 
HETATM   10  C16 UNL     1      22.373   1.850  49.753  1.00  0.00     0.210 C 
HETATM   11  O2  UNL     1      21.357   1.262  49.063  1.00  0.00    -0.387 OA
HETATM   12  C17 UNL     1      20.461   2.088  48.440  1.00  0.00     0.198 C 
HETATM   13  C18 UNL     1      19.918   2.970  49.574  1.00  0.00     0.299 C 
HETATM   14  N3  UNL     1      21.001   3.885  49.851  1.00  0.00     0.103 N 
HETATM   15  C22 UNL     1      21.967   2.929  51.890  1.00  0.00     0.109 C 
ENDROOT
BRANCH  14  16
HETATM   16  C19 UNL     1      20.617   4.994  50.655  1.00  0.00     0.275 C 
BRANCH  16  17
HETATM   17  C20 UNL     1      20.346   6.251  49.872  1.00  0.00     0.060 C 
BRANCH  17  18
HETATM   18  C21 UNL     1      21.526   7.201  49.894  1.00  0.00     0.268 C 
BRANCH  18  19
HETATM   19  N4  UNL     1      22.113   7.307  51.218  1.00  0.00     0.078 N 
HETATM   20  H25 UNL     1      21.814   8.203  51.703  1.00  0.00     0.312 HD
HETATM   21  H26 UNL     1      23.161   7.385  51.169  1.00  0.00     0.312 HD
ENDBRANCH  18  19
ENDBRANCH  17  18
ENDBRANCH  16  17
ENDBRANCH  14  16
BRANCH   1  22
HETATM   22  O1  UNL     1      22.931   1.242  53.433  1.00  0.00    -0.360 OA
HETATM   23  C1  UNL     1      21.951   0.238  53.332  1.00  0.00     0.209 C 
ENDBRANCH   1  22
BRANCH   6  24
HETATM   24  N2  UNL     1      25.949   4.200  49.152  1.00  0.00    -0.341 N 
HETATM   25  H7  UNL     1      25.458   3.753  48.323  1.00  0.00     0.167 HD
BRANCH  24  26
HETATM   26  C7  UNL     1      26.632   5.426  49.026  1.00  0.00     0.035 A 
HETATM   27  C8  UNL     1      27.867   5.440  48.407  1.00  0.00     0.032 A 
HETATM   28  C9  UNL     1      28.491   6.654  48.307  1.00  0.00     0.046 A 
HETATM   29  C10 UNL     1      27.987   7.851  48.771  1.00  0.00     0.138 A 
HETATM   30  F1  UNL     1      28.689   8.977  48.617  1.00  0.00    -0.204 F 
HETATM   31  C11 UNL     1      26.745   7.767  49.381  1.00  0.00     0.074 A 
HETATM   32 CL1  UNL     1      26.084   9.285  49.981  1.00  0.00    -0.081 Cl
HETATM   33  C12 UNL     1      26.055   6.566  49.517  1.00  0.00     0.056 A 
ENDBRANCH  24  26
ENDBRANCH   6  24
TORSDOF 7
ENDMDL
MODEL 9
REMARK VINA RESULT:      -7.2      6.692      9.942
REMARK  7 active torsions:
REMARK  status: ('A' for Active; 'I' for Inactive)
REMARK    1  A    between atoms: O1_2  and  C2_3 
REMARK    2  A    between atoms: C6_8  and  N2_9 
REMARK    3  A    between atoms: N2_9  and  C7_10 
REMARK    4  A    between atoms: N3_25  and  C19_26 
REMARK    5  A    between atoms: C19_26  and  C20_27 
REMARK    6  A    between atoms: C20_27  and  C21_28 
REMARK    7  A    between atoms: C21_28  and  N4_29 
ROOT
HETATM    1  C2  UNL     1      30.327   9.365  48.950  1.00  0.00     0.055 C 
HETATM    2  C3  UNL     1      29.029   9.128  48.973  1.00  0.00    -0.014 A 
HETATM    3  C4  UNL     1      27.999  10.150  49.301  1.00  0.00     0.088 A 
HETATM    4  C5  UNL     1      26.630   9.581  49.238  1.00  0.00     0.096 A 
HETATM    5  N1  UNL     1      26.348   8.357  48.940  1.00  0.00    -0.246 NA
HETATM    6  C6  UNL     1      27.377   7.395  48.630  1.00  0.00     0.134 A 
HETATM    7  C13 UNL     1      28.674   7.753  48.643  1.00  0.00    -0.001 A 
HETATM    8  C14 UNL     1      29.663   6.696  48.314  1.00  0.00     0.087 C 
HETATM    9  C15 UNL     1      30.834   7.374  47.608  1.00  0.00     0.190 C 
HETATM   10  C16 UNL     1      30.263   8.170  46.485  1.00  0.00     0.210 C 
HETATM   11  O2  UNL     1      30.966   8.237  45.321  1.00  0.00    -0.387 OA
HETATM   12  C17 UNL     1      31.736   7.155  44.990  1.00  0.00     0.198 C 
HETATM   13  C18 UNL     1      32.676   6.986  46.193  1.00  0.00     0.299 C 
HETATM   14  N3  UNL     1      31.829   6.427  47.221  1.00  0.00     0.103 N 
HETATM   15  C22 UNL     1      31.380   8.380  48.631  1.00  0.00     0.109 C 
ENDROOT
BRANCH  14  16
HETATM   16  C19 UNL     1      32.549   5.899  48.328  1.00  0.00     0.275 C 
BRANCH  16  17
HETATM   17  C20 UNL     1      33.936   5.425  47.985  1.00  0.00     0.060 C 
BRANCH  17  18
HETATM   18  C21 UNL     1      34.991   6.074  48.856  1.00  0.00     0.268 C 
BRANCH  18  19
HETATM   19  N4  UNL     1      35.661   5.107  49.708  1.00  0.00     0.078 N 
HETATM   20  H25 UNL     1      35.917   4.229  49.169  1.00  0.00     0.312 HD
HETATM   21  H26 UNL     1      35.024   4.758  50.468  1.00  0.00     0.312 HD
ENDBRANCH  18  19
ENDBRANCH  17  18
ENDBRANCH  16  17
ENDBRANCH  14  16
BRANCH   1  22
HETATM   22  O1  UNL     1      30.709  10.684  49.261  1.00  0.00    -0.360 OA
HETATM   23  C1  UNL     1      31.284  11.500  48.271  1.00  0.00     0.209 C 
ENDBRANCH   1  22
BRANCH   6  24
HETATM   24  N2  UNL     1      26.956   6.078  48.319  1.00  0.00    -0.341 N 
HETATM   25  H7  UNL     1      27.359   5.893  47.354  1.00  0.00     0.167 HD
BRANCH  24  26
HETATM   26  C7  UNL     1      26.192   5.106  48.993  1.00  0.00     0.035 A 
HETATM   27  C8  UNL     1      24.814   5.198  48.957  1.00  0.00     0.032 A 
HETATM   28  C9  UNL     1      24.114   4.230  49.626  1.00  0.00     0.046 A 
HETATM   29  C10 UNL     1      24.673   3.181  50.324  1.00  0.00     0.138 A 
HETATM   30  F1  UNL     1      23.888   2.293  50.940  1.00  0.00    -0.204 F 
HETATM   31  C11 UNL     1      26.060   3.145  50.321  1.00  0.00     0.074 A 
HETATM   32 CL1  UNL     1      26.792   1.812  51.207  1.00  0.00    -0.081 Cl
HETATM   33  C12 UNL     1      26.832   4.097  49.662  1.00  0.00     0.056 A 
ENDBRANCH  24  26
ENDBRANCH   6  24
TORSDOF 7
ENDMDL
