MODEL 1
REMARK VINA RESULT:      -7.1      0.000      0.000
REMARK  1 active torsions:
REMARK  status: ('A' for Active; 'I' for Inactive)
REMARK    1  A    between atoms: O1_2  and  C2_3 
ROOT
HETATM    1  C2  UNL     1      23.289   1.327  52.122  1.00  0.00     0.110 C 
HETATM    2  C3  UNL     1      23.298   2.483  51.429  1.00  0.00     0.009 C 
HETATM    3  C4  UNL     1      22.498   2.945  50.312  1.00  0.00     0.127 C 
HETATM    4  N1  UNL     1      23.284   3.517  49.408  1.00  0.00    -0.270 NA
HETATM    5  C5  UNL     1      24.682   3.581  49.769  1.00  0.00     0.141 C 
HETATM    6  C6  UNL     1      25.458   3.251  50.825  1.00  0.00     0.035 C 
HETATM    7  N2  UNL     1      26.857   3.356  50.978  1.00  0.00    -0.384 N 
HETATM    8  C7  UNL     1      27.209   2.394  51.979  1.00  0.00     0.139 C 
HETATM    9  C8  UNL     1      28.109   2.440  52.944  1.00  0.00     0.021 C 
HETATM   10  C9  UNL     1      27.836   1.096  53.518  1.00  0.00    -0.028 C 
HETATM   11  C10 UNL     1      26.984   0.104  53.172  1.00  0.00    -0.024 C 
HETATM   12  C11 UNL     1      26.352  -1.257  53.359  1.00  0.00     0.028 C 
HETATM   13  C12 UNL     1      26.739  -2.132  52.216  1.00  0.00     0.016 C 
HETATM   14  C13 UNL     1      24.832  -1.019  53.373  1.00  0.00     0.183 C 
HETATM   15  O2  UNL     1      24.561   0.202  54.112  1.00  0.00    -0.348 OA
HETATM   16  C14 UNL     1      24.297   1.314  53.208  1.00  0.00     0.100 C 
HETATM   17  C15 UNL     1      24.898   2.492  53.172  1.00  0.00     0.028 C 
HETATM   18  C16 UNL     1      24.468   3.138  51.979  1.00  0.00     0.099 C 
HETATM   19  H6  UNL     1      27.082   4.132  50.260  1.00  0.00     0.160 HD
ENDROOT
BRANCH   1  20
HETATM   20  O1  UNL     1      22.462   0.208  51.915  1.00  0.00    -0.352 OA
HETATM   21  C1  UNL     1      21.253  -0.044  52.540  1.00  0.00     0.210 C 
ENDBRANCH   1  20
TORSDOF 1
ENDMDL
MODEL 2
REMARK VINA RESULT:      -7.1      2.375      5.327
REMARK  1 active torsions:
REMARK  status: ('A' for Active; 'I' for Inactive)
REMARK    1  A    between atoms: O1_2  and  C2_3 
ROOT
HETATM    1  C2  UNL     1      25.453   2.453  51.321  1.00  0.00     0.110 C 
HETATM    2  C3  UNL     1      26.106   1.762  52.278  1.00  0.00     0.009 C 
HETATM    3  C4  UNL     1      27.438   1.194  52.319  1.00  0.00     0.127 C 
HETATM    4  N1  UNL     1      27.384  -0.032  52.824  1.00  0.00    -0.270 NA
HETATM    5  C5  UNL     1      26.068  -0.463  53.239  1.00  0.00     0.141 C 
HETATM    6  C6  UNL     1      24.821   0.055  53.305  1.00  0.00     0.035 C 
HETATM    7  N2  UNL     1      23.617  -0.556  53.715  1.00  0.00    -0.384 N 
HETATM    8  C7  UNL     1      22.571   0.192  53.081  1.00  0.00     0.139 C 
HETATM    9  C8  UNL     1      21.371   0.534  53.513  1.00  0.00     0.021 C 
HETATM   10  C9  UNL     1      20.943   1.279  52.299  1.00  0.00    -0.028 C 
HETATM   11  C10 UNL     1      21.539   1.515  51.108  1.00  0.00    -0.024 C 
HETATM   12  C11 UNL     1      21.590   2.121  49.723  1.00  0.00     0.028 C 
HETATM   13  C12 UNL     1      21.576   1.024  48.714  1.00  0.00     0.016 C 
HETATM   14  C13 UNL     1      22.911   2.907  49.654  1.00  0.00     0.183 C 
HETATM   15  O2  UNL     1      23.121   3.572  50.929  1.00  0.00    -0.348 OA
HETATM   16  C14 UNL     1      24.089   2.849  51.744  1.00  0.00     0.100 C 
HETATM   17  C15 UNL     1      23.938   2.404  52.980  1.00  0.00     0.028 C 
HETATM   18  C16 UNL     1      25.053   1.561  53.254  1.00  0.00     0.099 C 
HETATM   19  H6  UNL     1      23.994  -1.349  54.345  1.00  0.00     0.160 HD
ENDROOT
BRANCH   1  20
HETATM   20  O1  UNL     1      25.925   2.806  50.044  1.00  0.00    -0.352 OA
HETATM   21  C1  UNL     1      26.507   4.011  49.688  1.00  0.00     0.210 C 
ENDBRANCH   1  20
TORSDOF 1
ENDMDL
MODEL 3
REMARK VINA RESULT:      -6.9      2.152      4.591
REMARK  1 active torsions:
REMARK  status: ('A' for Active; 'I' for Inactive)
REMARK    1  A    between atoms: O1_2  and  C2_3 
ROOT
HETATM    1  C2  UNL     1      23.237   0.075  53.587  1.00  0.00     0.110 C 
HETATM    2  C3  UNL     1      24.313  -0.534  54.126  1.00  0.00     0.009 C 
HETATM    3  C4  UNL     1      24.509  -1.197  55.400  1.00  0.00     0.127 C 
HETATM    4  N1  UNL     1      25.666  -0.814  55.927  1.00  0.00    -0.270 NA
HETATM    5  C5  UNL     1      26.437   0.096  55.110  1.00  0.00     0.141 C 
HETATM    6  C6  UNL     1      26.343   0.668  53.889  1.00  0.00     0.035 C 
HETATM    7  N2  UNL     1      27.206   1.592  53.262  1.00  0.00    -0.384 N 
HETATM    8  C7  UNL     1      26.401   2.276  52.295  1.00  0.00     0.139 C 
HETATM    9  C8  UNL     1      26.690   2.712  51.083  1.00  0.00     0.021 C 
HETATM   10  C9  UNL     1      25.352   3.273  50.762  1.00  0.00    -0.028 C 
HETATM   11  C10 UNL     1      24.201   3.365  51.467  1.00  0.00    -0.024 C 
HETATM   12  C11 UNL     1      22.748   3.753  51.631  1.00  0.00     0.028 C 
HETATM   13  C12 UNL     1      22.648   4.834  52.652  1.00  0.00     0.016 C 
HETATM   14  C13 UNL     1      22.023   2.483  52.111  1.00  0.00     0.183 C 
HETATM   15  O2  UNL     1      22.569   1.341  51.398  1.00  0.00    -0.348 OA
HETATM   16  C14 UNL     1      23.511   0.603  52.230  1.00  0.00     0.100 C 
HETATM   17  C15 UNL     1      24.763   0.283  51.951  1.00  0.00     0.028 C 
HETATM   18  C16 UNL     1      25.340  -0.214  53.154  1.00  0.00     0.099 C 
HETATM   19  H6  UNL     1      28.131   1.394  53.786  1.00  0.00     0.160 HD
ENDROOT
BRANCH   1  20
HETATM   20  O1  UNL     1      21.966   0.240  54.165  1.00  0.00    -0.352 OA
HETATM   21  C1  UNL     1      20.939  -0.689  54.168  1.00  0.00     0.210 C 
ENDBRANCH   1  20
TORSDOF 1
ENDMDL
MODEL 4
REMARK VINA RESULT:      -6.9      1.455      2.223
REMARK  1 active torsions:
REMARK  status: ('A' for Active; 'I' for Inactive)
REMARK    1  A    between atoms: O1_2  and  C2_3 
ROOT
HETATM    1  C2  UNL     1      22.603   0.120  52.918  1.00  0.00     0.110 C 
HETATM    2  C3  UNL     1      21.818   0.862  52.110  1.00  0.00     0.009 C 
HETATM    3  C4  UNL     1      20.555   0.575  51.461  1.00  0.00     0.127 C 
HETATM    4  N1  UNL     1      20.597   0.993  50.202  1.00  0.00    -0.270 NA
HETATM    5  C5  UNL     1      21.825   1.652  49.818  1.00  0.00     0.141 C 
HETATM    6  C6  UNL     1      22.985   2.023  50.404  1.00  0.00     0.035 C 
HETATM    7  N2  UNL     1      24.120   2.641  49.835  1.00  0.00    -0.384 N 
HETATM    8  C7  UNL     1      25.214   2.302  50.696  1.00  0.00     0.139 C 
HETATM    9  C8  UNL     1      26.266   3.005  51.074  1.00  0.00     0.021 C 
HETATM   10  C9  UNL     1      26.881   1.968  51.942  1.00  0.00    -0.028 C 
HETATM   11  C10 UNL     1      26.534   0.695  52.241  1.00  0.00    -0.024 C 
HETATM   12  C11 UNL     1      26.730  -0.624  52.957  1.00  0.00     0.028 C 
HETATM   13  C12 UNL     1      27.041  -1.679  51.952  1.00  0.00     0.016 C 
HETATM   14  C13 UNL     1      25.396  -0.922  53.664  1.00  0.00     0.183 C 
HETATM   15  O2  UNL     1      24.871   0.320  54.205  1.00  0.00    -0.348 OA
HETATM   16  C14 UNL     1      23.812   0.854  53.359  1.00  0.00     0.100 C 
HETATM   17  C15 UNL     1      23.732   2.060  52.821  1.00  0.00     0.028 C 
HETATM   18  C16 UNL     1      22.654   2.027  51.892  1.00  0.00     0.099 C 
HETATM   19  H6  UNL     1      23.680   3.117  48.971  1.00  0.00     0.160 HD
ENDROOT
BRANCH   1  20
HETATM   20  O1  UNL     1      22.385  -1.202  53.347  1.00  0.00    -0.352 OA
HETATM   21  C1  UNL     1      21.673  -1.593  54.469  1.00  0.00     0.210 C 
ENDBRANCH   1  20
TORSDOF 1
ENDMDL
MODEL 5
REMARK VINA RESULT:      -6.7      3.281      6.562
REMARK  1 active torsions:
REMARK  status: ('A' for Active; 'I' for Inactive)
REMARK    1  A    between atoms: O1_2  and  C2_3 
ROOT
HETATM    1  C2  UNL     1      22.671   0.914  53.123  1.00  0.00     0.110 C 
HETATM    2  C3  UNL     1      22.077   0.133  54.047  1.00  0.00     0.009 C 
HETATM    3  C4  UNL     1      22.576  -0.969  54.845  1.00  0.00     0.127 C 
HETATM    4  N1  UNL     1      21.693  -1.958  54.840  1.00  0.00    -0.270 NA
HETATM    5  C5  UNL     1      20.475  -1.686  54.110  1.00  0.00     0.141 C 
HETATM    6  C6  UNL     1      19.926  -0.654  53.432  1.00  0.00     0.035 C 
HETATM    7  N2  UNL     1      18.704  -0.590  52.729  1.00  0.00    -0.384 N 
HETATM    8  C7  UNL     1      18.866   0.462  51.770  1.00  0.00     0.139 C 
HETATM    9  C8  UNL     1      18.012   1.366  51.327  1.00  0.00     0.021 C 
HETATM   10  C9  UNL     1      18.940   2.059  50.396  1.00  0.00    -0.028 C 
HETATM   11  C10 UNL     1      20.230   1.842  50.053  1.00  0.00    -0.024 C 
HETATM   12  C11 UNL     1      21.499   2.172  49.298  1.00  0.00     0.028 C 
HETATM   13  C12 UNL     1      21.780   1.081  48.322  1.00  0.00     0.016 C 
HETATM   14  C13 UNL     1      22.612   2.255  50.358  1.00  0.00     0.183 C 
HETATM   15  O2  UNL     1      22.078   2.910  51.539  1.00  0.00    -0.348 OA
HETATM   16  C14 UNL     1      21.751   1.938  52.575  1.00  0.00     0.100 C 
HETATM   17  C15 UNL     1      20.598   1.775  53.201  1.00  0.00     0.028 C 
HETATM   18  C16 UNL     1      20.696   0.561  53.938  1.00  0.00     0.099 C 
HETATM   19  H6  UNL     1      18.149  -1.379  53.216  1.00  0.00     0.160 HD
ENDROOT
BRANCH   1  20
HETATM   20  O1  UNL     1      24.000   0.844  52.666  1.00  0.00    -0.352 OA
HETATM   21  C1  UNL     1      25.099   1.457  53.244  1.00  0.00     0.210 C 
ENDBRANCH   1  20
TORSDOF 1
ENDMDL
MODEL 6
REMARK VINA RESULT:      -6.6      2.854      4.996
REMARK  1 active torsions:
REMARK  status: ('A' for Active; 'I' for Inactive)
REMARK    1  A    between atoms: O1_2  and  C2_3 
ROOT
HETATM    1  C2  UNL     1      20.615   1.595  52.210  1.00  0.00     0.110 C 
HETATM    2  C3  UNL     1      20.615   0.295  52.567  1.00  0.00     0.009 C 
HETATM    3  C4  UNL     1      19.685  -0.490  53.353  1.00  0.00     0.127 C 
HETATM    4  N1  UNL     1      20.357  -1.251  54.208  1.00  0.00    -0.270 NA
HETATM    5  C5  UNL     1      21.796  -1.150  54.114  1.00  0.00     0.141 C 
HETATM    6  C6  UNL     1      22.705  -0.509  53.346  1.00  0.00     0.035 C 
HETATM    7  N2  UNL     1      24.113  -0.505  53.437  1.00  0.00    -0.384 N 
HETATM    8  C7  UNL     1      24.536   0.710  52.806  1.00  0.00     0.139 C 
HETATM    9  C8  UNL     1      25.587   0.970  52.051  1.00  0.00     0.021 C 
HETATM   10  C9  UNL     1      25.290   2.405  51.805  1.00  0.00    -0.028 C 
HETATM   11  C10 UNL     1      24.301   3.225  52.231  1.00  0.00    -0.024 C 
HETATM   12  C11 UNL     1      23.584   4.556  52.288  1.00  0.00     0.028 C 
HETATM   13  C12 UNL     1      23.687   5.102  53.672  1.00  0.00     0.016 C 
HETATM   14  C13 UNL     1      22.118   4.261  51.927  1.00  0.00     0.183 C 
HETATM   15  O2  UNL     1      22.093   3.278  50.858  1.00  0.00    -0.348 OA
HETATM   16  C14 UNL     1      21.786   1.950  51.374  1.00  0.00     0.100 C 
HETATM   17  C15 UNL     1      22.481   0.836  51.215  1.00  0.00     0.028 C 
HETATM   18  C16 UNL     1      21.918  -0.131  52.096  1.00  0.00     0.099 C 
HETATM   19  H6  UNL     1      24.286  -1.436  53.958  1.00  0.00     0.160 HD
ENDROOT
BRANCH   1  20
HETATM   20  O1  UNL     1      19.662   2.576  52.541  1.00  0.00    -0.352 OA
HETATM   21  C1  UNL     1      18.643   3.038  51.726  1.00  0.00     0.210 C 
ENDBRANCH   1  20
TORSDOF 1
ENDMDL
MODEL 7
REMARK VINA RESULT:      -6.5      8.196      9.726
REMARK  1 active torsions:
REMARK  status: ('A' for Active; 'I' for Inactive)
REMARK    1  A    between atoms: O1_2  and  C2_3 
ROOT
HETATM    1  C2  UNL     1      30.030   6.623  48.416  1.00  0.00     0.110 C 
HETATM    2  C3  UNL     1      29.904   7.949  48.622  1.00  0.00     0.009 C 
HETATM    3  C4  UNL     1      28.815   8.868  48.361  1.00  0.00     0.127 C 
HETATM    4  N1  UNL     1      29.289   9.975  47.805  1.00  0.00    -0.270 NA
HETATM    5  C5  UNL     1      30.726  10.012  47.649  1.00  0.00     0.141 C 
HETATM    6  C6  UNL     1      31.785   9.230  47.955  1.00  0.00     0.035 C 
HETATM    7  N2  UNL     1      33.154   9.424  47.675  1.00  0.00    -0.384 N 
HETATM    8  C7  UNL     1      33.740   8.117  47.692  1.00  0.00     0.139 C 
HETATM    9  C8  UNL     1      34.918   7.704  48.122  1.00  0.00     0.021 C 
HETATM   10  C9  UNL     1      34.739   6.263  47.802  1.00  0.00    -0.028 C 
HETATM   11  C10 UNL     1      33.733   5.569  47.222  1.00  0.00    -0.024 C 
HETATM   12  C11 UNL     1      33.083   4.295  46.728  1.00  0.00     0.028 C 
HETATM   13  C12 UNL     1      32.971   4.353  45.243  1.00  0.00     0.016 C 
HETATM   14  C13 UNL     1      31.689   4.253  47.379  1.00  0.00     0.183 C 
HETATM   15  O2  UNL     1      31.802   4.727  48.747  1.00  0.00    -0.348 OA
HETATM   16  C14 UNL     1      31.345   6.106  48.864  1.00  0.00     0.100 C 
HETATM   17  C15 UNL     1      32.001   7.139  49.363  1.00  0.00     0.028 C 
HETATM   18  C16 UNL     1      31.247   8.303  49.039  1.00  0.00     0.099 C 
HETATM   19  H6  UNL     1      33.188  10.498  47.559  1.00  0.00     0.160 HD
ENDROOT
BRANCH   1  20
HETATM   20  O1  UNL     1      29.084   5.749  47.851  1.00  0.00    -0.352 OA
HETATM   21  C1  UNL     1      28.012   5.167  48.505  1.00  0.00     0.210 C 
ENDBRANCH   1  20
TORSDOF 1
ENDMDL
MODEL 8
REMARK VINA RESULT:      -6.2      2.817      5.170
REMARK  1 active torsions:
REMARK  status: ('A' for Active; 'I' for Inactive)
REMARK    1  A    between atoms: O1_2  and  C2_3 
ROOT
HETATM    1  C2  UNL     1      21.632   3.092  51.175  1.00  0.00     0.110 C 
HETATM    2  C3  UNL     1      22.020   1.911  51.696  1.00  0.00     0.009 C 
HETATM    3  C4  UNL     1      21.538   1.150  52.831  1.00  0.00     0.127 C 
HETATM    4  N1  UNL     1      22.569   0.706  53.539  1.00  0.00    -0.270 NA
HETATM    5  C5  UNL     1      23.868   1.034  52.998  1.00  0.00     0.141 C 
HETATM    6  C6  UNL     1      24.368   1.655  51.906  1.00  0.00     0.035 C 
HETATM    7  N2  UNL     1      25.711   1.921  51.562  1.00  0.00    -0.384 N 
HETATM    8  C7  UNL     1      25.664   3.039  50.666  1.00  0.00     0.139 C 
HETATM    9  C8  UNL     1      26.386   3.320  49.597  1.00  0.00     0.021 C 
HETATM   10  C9  UNL     1      25.718   4.602  49.253  1.00  0.00    -0.028 C 
HETATM   11  C10 UNL     1      24.723   5.307  49.839  1.00  0.00    -0.024 C 
HETATM   12  C11 UNL     1      23.768   6.477  49.923  1.00  0.00     0.028 C 
HETATM   13  C12 UNL     1      24.114   7.300  51.117  1.00  0.00     0.016 C 
HETATM   14  C13 UNL     1      22.364   5.866  50.072  1.00  0.00     0.183 C 
HETATM   15  O2  UNL     1      22.273   4.698  49.212  1.00  0.00    -0.348 OA
HETATM   16  C14 UNL     1      22.424   3.469  49.981  1.00  0.00     0.100 C 
HETATM   17  C15 UNL     1      23.282   2.484  49.777  1.00  0.00     0.028 C 
HETATM   18  C16 UNL     1      23.210   1.631  50.915  1.00  0.00     0.099 C 
HETATM   19  H6  UNL     1      26.222   1.159  52.132  1.00  0.00     0.160 HD
ENDROOT
BRANCH   1  20
HETATM   20  O1  UNL     1      20.609   3.939  51.638  1.00  0.00    -0.352 OA
HETATM   21  C1  UNL     1      19.293   3.948  51.207  1.00  0.00     0.210 C 
ENDBRANCH   1  20
TORSDOF 1
ENDMDL
MODEL 9
REMARK VINA RESULT:      -6.0      2.816      4.877
REMARK  1 active torsions:
REMARK  status: ('A' for Active; 'I' for Inactive)
REMARK    1  A    between atoms: O1_2  and  C2_3 
ROOT
HETATM    1  C2  UNL     1      24.804   5.049  49.755  1.00  0.00     0.110 C 
HETATM    2  C3  UNL     1      23.618   5.690  49.752  1.00  0.00     0.009 C 
HETATM    3  C4  UNL     1      23.282   7.099  49.762  1.00  0.00     0.127 C 
HETATM    4  N1  UNL     1      22.308   7.319  50.636  1.00  0.00    -0.270 NA
HETATM    5  C5  UNL     1      21.806   6.137  51.300  1.00  0.00     0.141 C 
HETATM    6  C6  UNL     1      22.019   4.803  51.262  1.00  0.00     0.035 C 
HETATM    7  N2  UNL     1      21.442   3.779  52.043  1.00  0.00    -0.384 N 
HETATM    8  C7  UNL     1      22.377   2.694  52.009  1.00  0.00     0.139 C 
HETATM    9  C8  UNL     1      22.184   1.389  51.964  1.00  0.00     0.021 C 
HETATM   10  C9  UNL     1      23.616   0.990  51.942  1.00  0.00    -0.028 C 
HETATM   11  C10 UNL     1      24.768   1.697  51.992  1.00  0.00    -0.024 C 
HETATM   12  C11 UNL     1      26.276   1.820  51.989  1.00  0.00     0.028 C 
HETATM   13  C12 UNL     1      26.724   2.317  53.321  1.00  0.00     0.016 C 
HETATM   14  C13 UNL     1      26.614   2.838  50.886  1.00  0.00     0.183 C 
HETATM   15  O2  UNL     1      25.735   2.604  49.754  1.00  0.00    -0.348 OA
HETATM   16  C14 UNL     1      24.649   3.576  49.725  1.00  0.00     0.100 C 
HETATM   17  C15 UNL     1      23.348   3.340  49.682  1.00  0.00     0.028 C 
HETATM   18  C16 UNL     1      22.695   4.583  49.913  1.00  0.00     0.099 C 
HETATM   19  H6  UNL     1      20.520   4.252  52.349  1.00  0.00     0.160 HD
ENDROOT
BRANCH   1  20
HETATM   20  O1  UNL     1      26.089   5.622  49.782  1.00  0.00    -0.352 OA
HETATM   21  C1  UNL     1      26.895   5.879  48.686  1.00  0.00     0.210 C 
ENDBRANCH   1  20
TORSDOF 1
ENDMDL
