MODEL 1
REMARK VINA RESULT:      -8.2      0.000      0.000
REMARK  0 active torsions:
REMARK  status: ('A' for Active; 'I' for Inactive)
ROOT
HETATM    1  C1  UNL     1      23.036  -0.905  54.206  1.00  0.00     0.018 C 
HETATM    2  C2  UNL     1      22.088  -0.657  53.344  1.00  0.00    -0.002 C 
HETATM    3  C3  UNL     1      21.292  -0.168  52.221  1.00  0.00     0.115 C 
HETATM    4  N1  UNL     1      20.717   0.344  51.183  1.00  0.00    -0.240 NA
HETATM    5  C4  UNL     1      21.419   1.218  50.291  1.00  0.00     0.181 A 
HETATM    6  N2  UNL     1      21.226   1.049  48.948  1.00  0.00    -0.220 NA
HETATM    7  C5  UNL     1      22.029   1.729  48.076  1.00  0.00     0.238 A 
HETATM    8  N3  UNL     1      23.013   2.565  48.447  1.00  0.00    -0.215 NA
HETATM    9  C6  UNL     1      23.271   2.787  49.764  1.00  0.00     0.202 A 
HETATM   10  C7  UNL     1      22.420   2.083  50.654  1.00  0.00     0.130 A 
HETATM   11  N4  UNL     1      22.342   2.347  52.088  1.00  0.00    -0.379 N 
HETATM   12  C8  UNL     1      23.311   3.078  52.878  1.00  0.00     0.161 C 
HETATM   13  C9  UNL     1      24.705   2.665  52.429  1.00  0.00    -0.006 A 
HETATM   14  C10 UNL     1      25.347   1.954  53.423  1.00  0.00     0.018 A 
HETATM   15  C11 UNL     1      26.604   1.510  53.099  1.00  0.00    -0.057 A 
HETATM   16  C12 UNL     1      27.219   1.740  51.912  1.00  0.00     0.010 A 
HETATM   17  C13 UNL     1      26.587   2.442  50.935  1.00  0.00     0.038 A 
HETATM   18  C14 UNL     1      25.285   2.926  51.166  1.00  0.00     0.086 A 
HETATM   19  O1  UNL     1      24.372   3.670  50.269  1.00  0.00    -0.289 OA
HETATM   20  C15 UNL     1      26.920   0.628  54.225  1.00  0.00     0.044 C 
HETATM   21  C16 UNL     1      25.688  -0.199  54.655  1.00  0.00     0.023 C 
HETATM   22  C17 UNL     1      24.419  -0.626  54.556  1.00  0.00    -0.015 C 
HETATM   23  H5  UNL     1      21.572   2.073  52.695  1.00  0.00     0.160 HD
ENDROOT
TORSDOF 0
ENDMDL
MODEL 2
REMARK VINA RESULT:      -7.9      1.518      1.768
REMARK  0 active torsions:
REMARK  status: ('A' for Active; 'I' for Inactive)
ROOT
HETATM    1  C1  UNL     1      21.485   0.236  53.804  1.00  0.00     0.018 C 
HETATM    2  C2  UNL     1      20.888   1.124  53.057  1.00  0.00    -0.002 C 
HETATM    3  C3  UNL     1      20.568   2.173  52.093  1.00  0.00     0.115 C 
HETATM    4  N1  UNL     1      20.438   3.104  51.205  1.00  0.00    -0.240 NA
HETATM    5  C4  UNL     1      21.559   3.594  50.462  1.00  0.00     0.181 A 
HETATM    6  N2  UNL     1      21.391   3.817  49.124  1.00  0.00    -0.220 NA
HETATM    7  C5  UNL     1      22.489   4.091  48.357  1.00  0.00     0.238 A 
HETATM    8  N3  UNL     1      23.745   4.155  48.829  1.00  0.00    -0.215 NA
HETATM    9  C6  UNL     1      23.999   3.943  50.149  1.00  0.00     0.202 A 
HETATM   10  C7  UNL     1      22.846   3.673  50.931  1.00  0.00     0.130 A 
HETATM   11  N4  UNL     1      22.837   3.660  52.391  1.00  0.00    -0.379 N 
HETATM   12  C8  UNL     1      23.996   3.568  53.254  1.00  0.00     0.161 C 
HETATM   13  C9  UNL     1      24.955   2.546  52.660  1.00  0.00    -0.006 A 
HETATM   14  C10 UNL     1      25.034   1.426  53.463  1.00  0.00     0.018 A 
HETATM   15  C11 UNL     1      25.855   0.433  52.994  1.00  0.00    -0.057 A 
HETATM   16  C12 UNL     1      26.569   0.504  51.842  1.00  0.00     0.010 A 
HETATM   17  C13 UNL     1      26.492   1.609  51.054  1.00  0.00     0.038 A 
HETATM   18  C14 UNL     1      25.662   2.677  51.442  1.00  0.00     0.086 A 
HETATM   19  O1  UNL     1      25.370   3.956  50.755  1.00  0.00    -0.289 OA
HETATM   20  C15 UNL     1      25.560  -0.671  53.911  1.00  0.00     0.044 C 
HETATM   21  C16 UNL     1      24.052  -0.742  54.238  1.00  0.00     0.023 C 
HETATM   22  C17 UNL     1      22.767  -0.368  54.127  1.00  0.00    -0.015 C 
HETATM   23  H5  UNL     1      22.007   3.748  52.974  1.00  0.00     0.160 HD
ENDROOT
TORSDOF 0
ENDMDL
MODEL 3
REMARK VINA RESULT:      -7.8      1.927      3.260
REMARK  0 active torsions:
REMARK  status: ('A' for Active; 'I' for Inactive)
ROOT
HETATM    1  C1  UNL     1      18.599  -0.572  52.369  1.00  0.00     0.018 C 
HETATM    2  C2  UNL     1      18.466   0.158  51.295  1.00  0.00    -0.002 C 
HETATM    3  C3  UNL     1      18.684   1.035  50.148  1.00  0.00     0.115 C 
HETATM    4  N1  UNL     1      19.027   1.819  49.178  1.00  0.00    -0.240 NA
HETATM    5  C4  UNL     1      20.376   2.274  49.023  1.00  0.00     0.181 A 
HETATM    6  N2  UNL     1      20.903   2.292  47.761  1.00  0.00    -0.220 NA
HETATM    7  C5  UNL     1      22.240   2.529  47.608  1.00  0.00     0.238 A 
HETATM    8  N3  UNL     1      23.092   2.746  48.624  1.00  0.00    -0.215 NA
HETATM    9  C6  UNL     1      22.648   2.741  49.910  1.00  0.00     0.202 A 
HETATM   10  C7  UNL     1      21.256   2.507  50.049  1.00  0.00     0.130 A 
HETATM   11  N4  UNL     1      20.517   2.701  51.294  1.00  0.00    -0.379 N 
HETATM   12  C8  UNL     1      21.087   2.812  52.620  1.00  0.00     0.161 C 
HETATM   13  C9  UNL     1      22.203   1.785  52.749  1.00  0.00    -0.006 A 
HETATM   14  C10 UNL     1      21.856   0.799  53.651  1.00  0.00     0.018 A 
HETATM   15  C11 UNL     1      22.790  -0.193  53.813  1.00  0.00    -0.057 A 
HETATM   16  C12 UNL     1      23.985  -0.237  53.172  1.00  0.00     0.010 A 
HETATM   17  C13 UNL     1      24.326   0.736  52.287  1.00  0.00     0.038 A 
HETATM   18  C14 UNL     1      23.426   1.789  52.039  1.00  0.00     0.086 A 
HETATM   19  O1  UNL     1      23.532   2.934  51.106  1.00  0.00    -0.289 OA
HETATM   20  C15 UNL     1      22.062  -1.173  54.623  1.00  0.00     0.044 C 
HETATM   21  C16 UNL     1      20.592  -1.300  54.167  1.00  0.00     0.023 C 
HETATM   22  C17 UNL     1      19.540  -1.035  53.376  1.00  0.00    -0.015 C 
HETATM   23  H5  UNL     1      19.508   2.814  51.366  1.00  0.00     0.160 HD
ENDROOT
TORSDOF 0
ENDMDL
MODEL 4
REMARK VINA RESULT:      -7.6      2.339      4.591
REMARK  0 active torsions:
REMARK  status: ('A' for Active; 'I' for Inactive)
ROOT
HETATM    1  C1  UNL     1      25.956   1.182  52.055  1.00  0.00     0.018 C 
HETATM    2  C2  UNL     1      25.962   2.315  51.408  1.00  0.00    -0.002 C 
HETATM    3  C3  UNL     1      25.601   3.572  50.757  1.00  0.00     0.115 C 
HETATM    4  N1  UNL     1      25.133   4.654  50.227  1.00  0.00    -0.240 NA
HETATM    5  C4  UNL     1      23.743   4.989  50.307  1.00  0.00     0.181 A 
HETATM    6  N2  UNL     1      23.413   6.289  50.574  1.00  0.00    -0.220 NA
HETATM    7  C5  UNL     1      22.110   6.595  50.852  1.00  0.00     0.238 A 
HETATM    8  N3  UNL     1      21.112   5.697  50.886  1.00  0.00    -0.215 NA
HETATM    9  C6  UNL     1      21.356   4.382  50.634  1.00  0.00     0.202 A 
HETATM   10  C7  UNL     1      22.711   4.086  50.334  1.00  0.00     0.130 A 
HETATM   11  N4  UNL     1      23.165   2.807  49.794  1.00  0.00    -0.379 N 
HETATM   12  C8  UNL     1      22.424   1.563  49.800  1.00  0.00     0.161 C 
HETATM   13  C9  UNL     1      21.735   1.422  51.150  1.00  0.00    -0.006 A 
HETATM   14  C10 UNL     1      22.287   0.383  51.873  1.00  0.00     0.018 A 
HETATM   15  C11 UNL     1      21.751   0.197  53.121  1.00  0.00    -0.057 A 
HETATM   16  C12 UNL     1      20.743   0.939  53.645  1.00  0.00     0.010 A 
HETATM   17  C13 UNL     1      20.199   1.960  52.931  1.00  0.00     0.038 A 
HETATM   18  C14 UNL     1      20.694   2.241  51.644  1.00  0.00     0.086 A 
HETATM   19  O1  UNL     1      20.314   3.307  50.688  1.00  0.00    -0.289 OA
HETATM   20  C15 UNL     1      22.665  -0.787  53.707  1.00  0.00     0.044 C 
HETATM   21  C16 UNL     1      24.132  -0.490  53.323  1.00  0.00     0.023 C 
HETATM   22  C17 UNL     1      25.116   0.222  52.753  1.00  0.00    -0.015 C 
HETATM   23  H5  UNL     1      24.050   2.653  49.316  1.00  0.00     0.160 HD
ENDROOT
TORSDOF 0
ENDMDL
MODEL 5
REMARK VINA RESULT:      -7.6      2.463      2.749
REMARK  0 active torsions:
REMARK  status: ('A' for Active; 'I' for Inactive)
ROOT
HETATM    1  C1  UNL     1      22.350   0.612  53.319  1.00  0.00     0.018 C 
HETATM    2  C2  UNL     1      21.258   1.292  53.097  1.00  0.00    -0.002 C 
HETATM    3  C3  UNL     1      20.263   2.250  52.624  1.00  0.00     0.115 C 
HETATM    4  N1  UNL     1      19.498   3.163  52.119  1.00  0.00    -0.240 NA
HETATM    5  C4  UNL     1      19.996   4.127  51.185  1.00  0.00     0.181 A 
HETATM    6  N2  UNL     1      19.217   4.431  50.104  1.00  0.00    -0.220 NA
HETATM    7  C5  UNL     1      19.748   5.191  49.100  1.00  0.00     0.238 A 
HETATM    8  N3  UNL     1      21.004   5.667  49.094  1.00  0.00    -0.215 NA
HETATM    9  C6  UNL     1      21.845   5.408  50.132  1.00  0.00     0.202 A 
HETATM   10  C7  UNL     1      21.273   4.630  51.170  1.00  0.00     0.130 A 
HETATM   11  N4  UNL     1      21.890   4.437  52.480  1.00  0.00    -0.379 N 
HETATM   12  C8  UNL     1      23.276   4.686  52.818  1.00  0.00     0.161 C 
HETATM   13  C9  UNL     1      24.146   4.184  51.675  1.00  0.00    -0.006 A 
HETATM   14  C10 UNL     1      24.887   3.088  52.071  1.00  0.00     0.018 A 
HETATM   15  C11 UNL     1      25.683   2.544  51.096  1.00  0.00    -0.057 A 
HETATM   16  C12 UNL     1      25.782   3.019  49.828  1.00  0.00     0.010 A 
HETATM   17  C13 UNL     1      25.054   4.099  49.441  1.00  0.00     0.038 A 
HETATM   18  C14 UNL     1      24.193   4.719  50.367  1.00  0.00     0.086 A 
HETATM   19  O1  UNL     1      23.272   5.865  50.193  1.00  0.00    -0.289 OA
HETATM   20  C15 UNL     1      26.148   1.308  51.730  1.00  0.00     0.044 C 
HETATM   21  C16 UNL     1      25.019   0.632  52.540  1.00  0.00     0.023 C 
HETATM   22  C17 UNL     1      23.763   0.503  52.994  1.00  0.00    -0.015 C 
HETATM   23  H5  UNL     1      21.402   4.133  53.320  1.00  0.00     0.160 HD
ENDROOT
TORSDOF 0
ENDMDL
MODEL 6
REMARK VINA RESULT:      -7.4      2.728      4.895
REMARK  0 active torsions:
REMARK  status: ('A' for Active; 'I' for Inactive)
ROOT
HETATM    1  C1  UNL     1      21.165   1.696  48.354  1.00  0.00     0.018 C 
HETATM    2  C2  UNL     1      21.532   2.826  47.813  1.00  0.00    -0.002 C 
HETATM    3  C3  UNL     1      22.115   4.137  47.539  1.00  0.00     0.115 C 
HETATM    4  N1  UNL     1      22.693   5.289  47.441  1.00  0.00    -0.240 NA
HETATM    5  C4  UNL     1      23.475   5.830  48.511  1.00  0.00     0.181 A 
HETATM    6  N2  UNL     1      24.656   6.443  48.194  1.00  0.00    -0.220 NA
HETATM    7  C5  UNL     1      25.512   6.787  49.201  1.00  0.00     0.238 A 
HETATM    8  N3  UNL     1      25.278   6.561  50.505  1.00  0.00    -0.215 NA
HETATM    9  C6  UNL     1      24.128   5.954  50.905  1.00  0.00     0.202 A 
HETATM   10  C7  UNL     1      23.246   5.616  49.847  1.00  0.00     0.130 A 
HETATM   11  N4  UNL     1      21.863   5.190  50.043  1.00  0.00    -0.379 N 
HETATM   12  C8  UNL     1      21.280   4.717  51.281  1.00  0.00     0.161 C 
HETATM   13  C9  UNL     1      22.284   3.797  51.962  1.00  0.00    -0.006 A 
HETATM   14  C10 UNL     1      21.827   2.494  51.967  1.00  0.00     0.018 A 
HETATM   15  C11 UNL     1      22.681   1.583  52.534  1.00  0.00    -0.057 A 
HETATM   16  C12 UNL     1      23.885   1.891  53.078  1.00  0.00     0.010 A 
HETATM   17  C13 UNL     1      24.332   3.174  53.076  1.00  0.00     0.038 A 
HETATM   18  C14 UNL     1      23.534   4.181  52.500  1.00  0.00     0.086 A 
HETATM   19  O1  UNL     1      23.800   5.628  52.331  1.00  0.00    -0.289 OA
HETATM   20  C15 UNL     1      22.044   0.308  52.192  1.00  0.00     0.044 C 
HETATM   21  C16 UNL     1      21.476   0.331  50.756  1.00  0.00     0.023 C 
HETATM   22  C17 UNL     1      21.249   0.874  49.549  1.00  0.00    -0.015 C 
HETATM   23  H5  UNL     1      21.135   5.209  49.331  1.00  0.00     0.160 HD
ENDROOT
TORSDOF 0
ENDMDL
MODEL 7
REMARK VINA RESULT:      -7.4      2.260      3.597
REMARK  0 active torsions:
REMARK  status: ('A' for Active; 'I' for Inactive)
ROOT
HETATM    1  C1  UNL     1      23.453  -0.054  53.565  1.00  0.00     0.018 C 
HETATM    2  C2  UNL     1      22.187  -0.358  53.659  1.00  0.00    -0.002 C 
HETATM    3  C3  UNL     1      20.744  -0.471  53.467  1.00  0.00     0.115 C 
HETATM    4  N1  UNL     1      19.484  -0.473  53.176  1.00  0.00    -0.240 NA
HETATM    5  C4  UNL     1      18.968   0.282  52.074  1.00  0.00     0.181 A 
HETATM    6  N2  UNL     1      18.026  -0.311  51.280  1.00  0.00    -0.220 NA
HETATM    7  C5  UNL     1      17.666   0.304  50.113  1.00  0.00     0.238 A 
HETATM    8  N3  UNL     1      18.179   1.468  49.680  1.00  0.00    -0.215 NA
HETATM    9  C6  UNL     1      19.123   2.120  50.412  1.00  0.00     0.202 A 
HETATM   10  C7  UNL     1      19.475   1.474  51.624  1.00  0.00     0.130 A 
HETATM   11  N4  UNL     1      20.270   2.098  52.679  1.00  0.00    -0.379 N 
HETATM   12  C8  UNL     1      21.095   3.279  52.544  1.00  0.00     0.161 C 
HETATM   13  C9  UNL     1      21.836   3.197  51.217  1.00  0.00    -0.006 A 
HETATM   14  C10 UNL     1      23.191   3.025  51.425  1.00  0.00     0.018 A 
HETATM   15  C11 UNL     1      23.942   2.910  50.283  1.00  0.00    -0.057 A 
HETATM   16  C12 UNL     1      23.442   2.969  49.023  1.00  0.00     0.010 A 
HETATM   17  C13 UNL     1      22.109   3.140  48.820  1.00  0.00     0.038 A 
HETATM   18  C14 UNL     1      21.251   3.253  49.931  1.00  0.00     0.086 A 
HETATM   19  O1  UNL     1      19.779   3.400  49.988  1.00  0.00    -0.289 OA
HETATM   20  C15 UNL     1      25.251   2.521  50.813  1.00  0.00     0.044 C 
HETATM   21  C16 UNL     1      25.111   1.517  51.979  1.00  0.00     0.023 C 
HETATM   22  C17 UNL     1      24.431   0.718  52.816  1.00  0.00    -0.015 C 
HETATM   23  H5  UNL     1      20.306   1.787  53.648  1.00  0.00     0.160 HD
ENDROOT
TORSDOF 0
ENDMDL
MODEL 8
REMARK VINA RESULT:      -7.4      2.717      4.895
REMARK  0 active torsions:
REMARK  status: ('A' for Active; 'I' for Inactive)
ROOT
HETATM    1  C1  UNL     1      24.181   3.377  51.932  1.00  0.00     0.018 C 
HETATM    2  C2  UNL     1      23.239   4.054  51.333  1.00  0.00    -0.002 C 
HETATM    3  C3  UNL     1      21.973   4.527  50.781  1.00  0.00     0.115 C 
HETATM    4  N1  UNL     1      20.786   4.815  50.354  1.00  0.00    -0.240 NA
HETATM    5  C4  UNL     1      19.666   3.964  50.619  1.00  0.00     0.181 A 
HETATM    6  N2  UNL     1      18.485   4.554  50.975  1.00  0.00    -0.220 NA
HETATM    7  C5  UNL     1      17.463   3.766  51.425  1.00  0.00     0.238 A 
HETATM    8  N3  UNL     1      17.534   2.430  51.548  1.00  0.00    -0.215 NA
HETATM    9  C6  UNL     1      18.675   1.766  51.217  1.00  0.00     0.202 A 
HETATM   10  C7  UNL     1      19.720   2.598  50.740  1.00  0.00     0.130 A 
HETATM   11  N4  UNL     1      20.933   2.098  50.099  1.00  0.00    -0.379 N 
HETATM   12  C8  UNL     1      21.430   0.739  50.149  1.00  0.00     0.161 C 
HETATM   13  C9  UNL     1      21.253   0.217  51.568  1.00  0.00    -0.006 A 
HETATM   14  C10 UNL     1      22.479   0.034  52.177  1.00  0.00     0.018 A 
HETATM   15  C11 UNL     1      22.422  -0.407  53.474  1.00  0.00    -0.057 A 
HETATM   16  C12 UNL     1      21.275  -0.674  54.146  1.00  0.00     0.010 A 
HETATM   17  C13 UNL     1      20.069  -0.497  53.545  1.00  0.00     0.038 A 
HETATM   18  C14 UNL     1      20.022  -0.030  52.218  1.00  0.00     0.086 A 
HETATM   19  O1  UNL     1      18.858   0.285  51.359  1.00  0.00    -0.289 OA
HETATM   20  C15 UNL     1      23.818  -0.286  53.903  1.00  0.00     0.044 C 
HETATM   21  C16 UNL     1      24.466   1.003  53.352  1.00  0.00     0.023 C 
HETATM   22  C17 UNL     1      24.471   2.172  52.691  1.00  0.00    -0.015 C 
HETATM   23  H5  UNL     1      21.555   2.647  49.509  1.00  0.00     0.160 HD
ENDROOT
TORSDOF 0
ENDMDL
MODEL 9
REMARK VINA RESULT:      -7.3      7.841     10.372
REMARK  0 active torsions:
REMARK  status: ('A' for Active; 'I' for Inactive)
ROOT
HETATM    1  C1  UNL     1      30.190   6.125  47.590  1.00  0.00     0.018 C 
HETATM    2  C2  UNL     1      30.693   7.307  47.362  1.00  0.00    -0.002 C 
HETATM    3  C3  UNL     1      30.931   8.744  47.254  1.00  0.00     0.115 C 
HETATM    4  N1  UNL     1      30.999  10.035  47.224  1.00  0.00    -0.240 NA
HETATM    5  C4  UNL     1      29.936  10.854  47.721  1.00  0.00     0.181 A 
HETATM    6  N2  UNL     1      30.269  11.953  48.463  1.00  0.00    -0.220 NA
HETATM    7  C5  UNL     1      29.280  12.635  49.114  1.00  0.00     0.238 A 
HETATM    8  N3  UNL     1      27.980  12.298  49.081  1.00  0.00    -0.215 NA
HETATM    9  C6  UNL     1      27.565  11.216  48.367  1.00  0.00     0.202 A 
HETATM   10  C7  UNL     1      28.603  10.529  47.689  1.00  0.00     0.130 A 
HETATM   11  N4  UNL     1      28.375   9.503  46.675  1.00  0.00    -0.379 N 
HETATM   12  C8  UNL     1      27.138   8.786  46.445  1.00  0.00     0.161 C 
HETATM   13  C9  UNL     1      26.536   8.426  47.796  1.00  0.00    -0.006 A 
HETATM   14  C10 UNL     1      26.572   7.060  47.998  1.00  0.00     0.018 A 
HETATM   15  C11 UNL     1      26.077   6.640  49.205  1.00  0.00    -0.057 A 
HETATM   16  C12 UNL     1      25.564   7.461  50.156  1.00  0.00     0.010 A 
HETATM   17  C13 UNL     1      25.527   8.805  49.955  1.00  0.00     0.038 A 
HETATM   18  C14 UNL     1      26.028   9.336  48.751  1.00  0.00     0.086 A 
HETATM   19  O1  UNL     1      26.144  10.744  48.306  1.00  0.00    -0.289 OA
HETATM   20  C15 UNL     1      26.451   5.223  49.216  1.00  0.00     0.044 C 
HETATM   21  C16 UNL     1      27.863   5.010  48.627  1.00  0.00     0.023 C 
HETATM   22  C17 UNL     1      29.035   5.411  48.111  1.00  0.00    -0.015 C 
HETATM   23  H5  UNL     1      29.058   9.197  45.985  1.00  0.00     0.160 HD
ENDROOT
TORSDOF 0
ENDMDL
