MODEL 1
REMARK VINA RESULT:      -6.5      0.000      0.000
REMARK  7 active torsions:
REMARK  status: ('A' for Active; 'I' for Inactive)
REMARK    1  A    between atoms: C3_3  and  C4_4 
REMARK    2  A    between atoms: C4_4  and  C5_5 
REMARK    3  A    between atoms: C5_5  and  C6_6 
REMARK    4  A    between atoms: C6_6  and  N1_7 
REMARK    5  A    between atoms: N1_7  and  C8_9 
REMARK    6  A    between atoms: C12_15  and  O1_16 
REMARK    7  A    between atoms: C14_18  and  O2_19 
ROOT
HETATM    1  C1  UNL     1      26.843  -1.906  52.630  1.00  0.00     0.096 C 
HETATM    2  C2  UNL     1      27.871  -1.191  53.034  1.00  0.00    -0.155 C 
HETATM    3  C3  UNL     1      28.738  -0.325  53.507  1.00  0.00     0.050 C 
ENDROOT
BRANCH   3   4
HETATM    4  C4  UNL     1      28.285   0.775  54.298  1.00  0.00     0.005 C 
BRANCH   4   5
HETATM    5  C5  UNL     1      27.545   1.707  53.720  1.00  0.00    -0.007 C 
BRANCH   5   6
HETATM    6  C6  UNL     1      26.069   1.917  53.952  1.00  0.00     0.151 C 
BRANCH   6   7
HETATM    7  N1  UNL     1      25.297   1.495  52.795  1.00  0.00    -0.366 N 
HETATM    8  C7  UNL     1      25.969   1.701  51.504  1.00  0.00     0.151 C 
BRANCH   7   9
HETATM    9  C8  UNL     1      24.003   0.946  53.094  1.00  0.00     0.139 A 
HETATM   10  N2  UNL     1      23.965  -0.270  53.633  1.00  0.00    -0.224 NA
HETATM   11  C9  UNL     1      22.825  -0.896  53.978  1.00  0.00     0.236 A 
HETATM   12  N3  UNL     1      21.657  -0.251  53.764  1.00  0.00    -0.241 NA
HETATM   13  C10 UNL     1      21.659   0.983  53.219  1.00  0.00     0.075 A 
HETATM   14  C11 UNL     1      20.455   1.648  52.997  1.00  0.00     0.072 A 
HETATM   15  C17 UNL     1      22.831   1.620  52.868  1.00  0.00     0.041 A 
HETATM   16  C12 UNL     1      20.463   2.920  52.432  1.00  0.00     0.103 A 
HETATM   17  C14 UNL     1      21.678   3.511  52.095  1.00  0.00     0.102 A 
HETATM   18  C16 UNL     1      22.898   2.878  52.305  1.00  0.00     0.057 A 
BRANCH  16  19
HETATM   19  O1  UNL     1      19.244   3.555  52.223  1.00  0.00    -0.353 OA
HETATM   20  C13 UNL     1      18.373   2.980  51.276  1.00  0.00     0.210 C 
ENDBRANCH  16  19
BRANCH  17  21
HETATM   21  O2  UNL     1      21.567   4.763  51.545  1.00  0.00    -0.353 OA
HETATM   22  C15 UNL     1      22.601   5.693  51.429  1.00  0.00     0.210 C 
ENDBRANCH  17  21
ENDBRANCH   7   9
ENDBRANCH   6   7
ENDBRANCH   5   6
ENDBRANCH   4   5
ENDBRANCH   3   4
TORSDOF 7
ENDMDL
MODEL 2
REMARK VINA RESULT:      -5.8      2.882      6.548
REMARK  7 active torsions:
REMARK  status: ('A' for Active; 'I' for Inactive)
REMARK    1  A    between atoms: C3_3  and  C4_4 
REMARK    2  A    between atoms: C4_4  and  C5_5 
REMARK    3  A    between atoms: C5_5  and  C6_6 
REMARK    4  A    between atoms: C6_6  and  N1_7 
REMARK    5  A    between atoms: N1_7  and  C8_9 
REMARK    6  A    between atoms: C12_15  and  O1_16 
REMARK    7  A    between atoms: C14_18  and  O2_19 
ROOT
HETATM    1  C1  UNL     1      20.661   0.560  50.724  1.00  0.00     0.096 C 
HETATM    2  C2  UNL     1      20.168   1.481  51.524  1.00  0.00    -0.155 C 
HETATM    3  C3  UNL     1      19.883   2.502  52.301  1.00  0.00     0.050 C 
ENDROOT
BRANCH   3   4
HETATM    4  C4  UNL     1      20.769   3.622  52.357  1.00  0.00     0.005 C 
BRANCH   4   5
HETATM    5  C5  UNL     1      21.000   4.302  51.245  1.00  0.00    -0.007 C 
BRANCH   5   6
HETATM    6  C6  UNL     1      22.355   4.773  50.777  1.00  0.00     0.151 C 
BRANCH   6   7
HETATM    7  N1  UNL     1      22.944   3.820  49.851  1.00  0.00    -0.366 N 
HETATM    8  C7  UNL     1      22.006   3.271  48.861  1.00  0.00     0.151 C 
BRANCH   7   9
HETATM    9  C8  UNL     1      24.343   3.564  50.049  1.00  0.00     0.139 A 
HETATM   10  N2  UNL     1      25.202   4.246  49.296  1.00  0.00    -0.224 NA
HETATM   11  C9  UNL     1      26.537   4.119  49.388  1.00  0.00     0.236 A 
HETATM   12  N3  UNL     1      27.031   3.250  50.298  1.00  0.00    -0.241 NA
HETATM   13  C10 UNL     1      26.189   2.541  51.078  1.00  0.00     0.075 A 
HETATM   14  C11 UNL     1      26.697   1.643  52.014  1.00  0.00     0.072 A 
HETATM   15  C17 UNL     1      24.821   2.676  50.979  1.00  0.00     0.041 A 
HETATM   16  C12 UNL     1      25.824   0.912  52.814  1.00  0.00     0.103 A 
HETATM   17  C14 UNL     1      24.451   1.090  52.667  1.00  0.00     0.102 A 
HETATM   18  C16 UNL     1      23.909   1.979  51.744  1.00  0.00     0.057 A 
BRANCH  16  19
HETATM   19  O1  UNL     1      26.364   0.025  53.738  1.00  0.00    -0.353 OA
HETATM   20  C13 UNL     1      27.671  -0.443  53.491  1.00  0.00     0.210 C 
ENDBRANCH  16  19
BRANCH  17  21
HETATM   21  O2  UNL     1      23.685   0.320  53.505  1.00  0.00    -0.353 OA
HETATM   22  C15 UNL     1      23.028  -0.860  53.151  1.00  0.00     0.210 C 
ENDBRANCH  17  21
ENDBRANCH   7   9
ENDBRANCH   6   7
ENDBRANCH   5   6
ENDBRANCH   4   5
ENDBRANCH   3   4
TORSDOF 7
ENDMDL
MODEL 3
REMARK VINA RESULT:      -5.8      3.473      7.383
REMARK  7 active torsions:
REMARK  status: ('A' for Active; 'I' for Inactive)
REMARK    1  A    between atoms: C3_3  and  C4_4 
REMARK    2  A    between atoms: C4_4  and  C5_5 
REMARK    3  A    between atoms: C5_5  and  C6_6 
REMARK    4  A    between atoms: C6_6  and  N1_7 
REMARK    5  A    between atoms: N1_7  and  C8_9 
REMARK    6  A    between atoms: C12_15  and  O1_16 
REMARK    7  A    between atoms: C14_18  and  O2_19 
ROOT
HETATM    1  C1  UNL     1      19.094   3.493  46.573  1.00  0.00     0.096 C 
HETATM    2  C2  UNL     1      20.008   2.989  47.375  1.00  0.00    -0.155 C 
HETATM    3  C3  UNL     1      20.743   2.444  48.318  1.00  0.00     0.050 C 
ENDROOT
BRANCH   3   4
HETATM    4  C4  UNL     1      20.114   1.761  49.404  1.00  0.00     0.005 C 
BRANCH   4   5
HETATM    5  C5  UNL     1      20.878   1.244  50.353  1.00  0.00    -0.007 C 
BRANCH   5   6
HETATM    6  C6  UNL     1      22.385   1.185  50.323  1.00  0.00     0.151 C 
BRANCH   6   7
HETATM    7  N1  UNL     1      22.955   1.880  51.465  1.00  0.00    -0.366 N 
HETATM    8  C7  UNL     1      21.983   2.241  52.507  1.00  0.00     0.151 C 
BRANCH   7   9
HETATM    9  C8  UNL     1      24.372   2.105  51.397  1.00  0.00     0.139 A 
HETATM   10  N2  UNL     1      24.802   3.046  50.561  1.00  0.00    -0.224 NA
HETATM   11  C9  UNL     1      26.097   3.373  50.410  1.00  0.00     0.236 A 
HETATM   12  N3  UNL     1      27.011   2.706  51.150  1.00  0.00    -0.241 NA
HETATM   13  C10 UNL     1      26.610   1.745  52.008  1.00  0.00     0.075 A 
HETATM   14  C11 UNL     1      27.551   1.055  52.770  1.00  0.00     0.072 A 
HETATM   15  C17 UNL     1      25.280   1.415  52.159  1.00  0.00     0.041 A 
HETATM   16  C12 UNL     1      27.132   0.063  53.651  1.00  0.00     0.103 A 
HETATM   17  C14 UNL     1      25.775  -0.228  53.759  1.00  0.00     0.102 A 
HETATM   18  C16 UNL     1      24.808   0.441  53.015  1.00  0.00     0.057 A 
BRANCH  16  19
HETATM   19  O1  UNL     1      28.097  -0.605  54.396  1.00  0.00    -0.353 OA
HETATM   20  C13 UNL     1      29.396  -0.673  53.852  1.00  0.00     0.210 C 
ENDBRANCH  16  19
BRANCH  17  21
HETATM   21  O2  UNL     1      25.476  -1.222  54.655  1.00  0.00    -0.353 OA
HETATM   22  C15 UNL     1      24.500  -1.152  55.651  1.00  0.00     0.210 C 
ENDBRANCH  17  21
ENDBRANCH   7   9
ENDBRANCH   6   7
ENDBRANCH   5   6
ENDBRANCH   4   5
ENDBRANCH   3   4
TORSDOF 7
ENDMDL
MODEL 4
REMARK VINA RESULT:      -5.7      2.633      6.233
REMARK  7 active torsions:
REMARK  status: ('A' for Active; 'I' for Inactive)
REMARK    1  A    between atoms: C3_3  and  C4_4 
REMARK    2  A    between atoms: C4_4  and  C5_5 
REMARK    3  A    between atoms: C5_5  and  C6_6 
REMARK    4  A    between atoms: C6_6  and  N1_7 
REMARK    5  A    between atoms: N1_7  and  C8_9 
REMARK    6  A    between atoms: C12_15  and  O1_16 
REMARK    7  A    between atoms: C14_18  and  O2_19 
ROOT
HETATM    1  C1  UNL     1      22.398   8.189  49.631  1.00  0.00     0.096 C 
HETATM    2  C2  UNL     1      22.776   7.051  50.174  1.00  0.00    -0.155 C 
HETATM    3  C3  UNL     1      22.963   5.937  50.844  1.00  0.00     0.050 C 
ENDROOT
BRANCH   3   4
HETATM    4  C4  UNL     1      21.919   5.421  51.672  1.00  0.00     0.005 C 
BRANCH   4   5
HETATM    5  C5  UNL     1      22.066   4.216  52.199  1.00  0.00    -0.007 C 
BRANCH   5   6
HETATM    6  C6  UNL     1      21.009   3.139  52.220  1.00  0.00     0.151 C 
BRANCH   6   7
HETATM    7  N1  UNL     1      21.524   1.897  51.668  1.00  0.00    -0.366 N 
HETATM    8  C7  UNL     1      21.472   1.812  50.202  1.00  0.00     0.151 C 
BRANCH   7   9
HETATM    9  C8  UNL     1      22.000   0.951  52.639  1.00  0.00     0.139 A 
HETATM   10  N2  UNL     1      21.089   0.315  53.370  1.00  0.00    -0.224 NA
HETATM   11  C9  UNL     1      21.393  -0.607  54.301  1.00  0.00     0.236 A 
HETATM   12  N3  UNL     1      22.696  -0.902  54.500  1.00  0.00    -0.241 NA
HETATM   13  C10 UNL     1      23.648  -0.276  53.777  1.00  0.00     0.075 A 
HETATM   14  C11 UNL     1      24.992  -0.578  53.983  1.00  0.00     0.072 A 
HETATM   15  C17 UNL     1      23.329   0.669  52.823  1.00  0.00     0.041 A 
HETATM   16  C12 UNL     1      25.968   0.074  53.235  1.00  0.00     0.103 A 
HETATM   17  C14 UNL     1      25.586   1.020  52.288  1.00  0.00     0.102 A 
HETATM   18  C16 UNL     1      24.254   1.345  52.054  1.00  0.00     0.057 A 
BRANCH  16  19
HETATM   19  O1  UNL     1      27.300  -0.251  53.467  1.00  0.00    -0.353 OA
HETATM   20  C13 UNL     1      27.878   0.222  54.662  1.00  0.00     0.210 C 
ENDBRANCH  16  19
BRANCH  17  21
HETATM   21  O2  UNL     1      26.629   1.599  51.611  1.00  0.00    -0.353 OA
HETATM   22  C15 UNL     1      26.517   2.618  50.664  1.00  0.00     0.210 C 
ENDBRANCH  17  21
ENDBRANCH   7   9
ENDBRANCH   6   7
ENDBRANCH   5   6
ENDBRANCH   4   5
ENDBRANCH   3   4
TORSDOF 7
ENDMDL
MODEL 5
REMARK VINA RESULT:      -5.7      3.884      6.159
REMARK  7 active torsions:
REMARK  status: ('A' for Active; 'I' for Inactive)
REMARK    1  A    between atoms: C3_3  and  C4_4 
REMARK    2  A    between atoms: C4_4  and  C5_5 
REMARK    3  A    between atoms: C5_5  and  C6_6 
REMARK    4  A    between atoms: C6_6  and  N1_7 
REMARK    5  A    between atoms: N1_7  and  C8_9 
REMARK    6  A    between atoms: C12_15  and  O1_16 
REMARK    7  A    between atoms: C14_18  and  O2_19 
ROOT
HETATM    1  C1  UNL     1      27.521   8.606  49.597  1.00  0.00     0.096 C 
HETATM    2  C2  UNL     1      27.654   7.651  48.702  1.00  0.00    -0.155 C 
HETATM    3  C3  UNL     1      27.770   6.553  47.989  1.00  0.00     0.050 C 
ENDROOT
BRANCH   3   4
HETATM    4  C4  UNL     1      27.507   5.284  48.590  1.00  0.00     0.005 C 
BRANCH   4   5
HETATM    5  C5  UNL     1      26.441   5.159  49.364  1.00  0.00    -0.007 C 
BRANCH   5   6
HETATM    6  C6  UNL     1      25.704   3.870  49.631  1.00  0.00     0.151 C 
BRANCH   6   7
HETATM    7  N1  UNL     1      24.626   4.077  50.584  1.00  0.00    -0.366 N 
HETATM    8  C7  UNL     1      24.419   5.478  50.977  1.00  0.00     0.151 C 
BRANCH   7   9
HETATM    9  C8  UNL     1      23.935   2.885  50.990  1.00  0.00     0.139 A 
HETATM   10  N2  UNL     1      22.767   2.627  50.410  1.00  0.00    -0.224 NA
HETATM   11  C9  UNL     1      22.024   1.539  50.682  1.00  0.00     0.236 A 
HETATM   12  N3  UNL     1      22.494   0.662  51.596  1.00  0.00    -0.241 NA
HETATM   13  C10 UNL     1      23.676   0.892  52.205  1.00  0.00     0.075 A 
HETATM   14  C11 UNL     1      24.160  -0.011  53.149  1.00  0.00     0.072 A 
HETATM   15  C17 UNL     1      24.433   2.009  51.921  1.00  0.00     0.041 A 
HETATM   16  C12 UNL     1      25.379   0.233  53.776  1.00  0.00     0.103 A 
HETATM   17  C14 UNL     1      26.098   1.380  53.450  1.00  0.00     0.102 A 
HETATM   18  C16 UNL     1      25.646   2.302  52.511  1.00  0.00     0.057 A 
BRANCH  16  19
HETATM   19  O1  UNL     1      25.833  -0.688  54.713  1.00  0.00    -0.353 OA
HETATM   20  C13 UNL     1      25.203  -0.686  55.974  1.00  0.00     0.210 C 
ENDBRANCH  16  19
BRANCH  17  21
HETATM   21  O2  UNL     1      27.283   1.520  54.127  1.00  0.00    -0.353 OA
HETATM   22  C15 UNL     1      28.555   1.495  53.554  1.00  0.00     0.210 C 
ENDBRANCH  17  21
ENDBRANCH   7   9
ENDBRANCH   6   7
ENDBRANCH   5   6
ENDBRANCH   4   5
ENDBRANCH   3   4
TORSDOF 7
ENDMDL
MODEL 6
REMARK VINA RESULT:      -5.6      3.607      5.663
REMARK  7 active torsions:
REMARK  status: ('A' for Active; 'I' for Inactive)
REMARK    1  A    between atoms: C3_3  and  C4_4 
REMARK    2  A    between atoms: C4_4  and  C5_5 
REMARK    3  A    between atoms: C5_5  and  C6_6 
REMARK    4  A    between atoms: C6_6  and  N1_7 
REMARK    5  A    between atoms: N1_7  and  C8_9 
REMARK    6  A    between atoms: C12_15  and  O1_16 
REMARK    7  A    between atoms: C14_18  and  O2_19 
ROOT
HETATM    1  C1  UNL     1      28.337   7.385  47.291  1.00  0.00     0.096 C 
HETATM    2  C2  UNL     1      27.411   6.991  48.139  1.00  0.00    -0.155 C 
HETATM    3  C3  UNL     1      26.528   6.385  48.901  1.00  0.00     0.050 C 
ENDROOT
BRANCH   3   4
HETATM    4  C4  UNL     1      26.501   4.958  48.962  1.00  0.00     0.005 C 
BRANCH   4   5
HETATM    5  C5  UNL     1      25.678   4.378  49.820  1.00  0.00    -0.007 C 
BRANCH   5   6
HETATM    6  C6  UNL     1      24.178   4.303  49.673  1.00  0.00     0.151 C 
BRANCH   6   7
HETATM    7  N1  UNL     1      23.516   4.694  50.906  1.00  0.00    -0.366 N 
HETATM    8  C7  UNL     1      24.030   5.932  51.510  1.00  0.00     0.151 C 
BRANCH   7   9
HETATM    9  C8  UNL     1      22.467   3.813  51.341  1.00  0.00     0.139 A 
HETATM   10  N2  UNL     1      21.219   4.141  51.016  1.00  0.00    -0.224 NA
HETATM   11  C9  UNL     1      20.146   3.400  51.342  1.00  0.00     0.236 A 
HETATM   12  N3  UNL     1      20.349   2.259  52.037  1.00  0.00    -0.241 NA
HETATM   13  C10 UNL     1      21.602   1.896  52.384  1.00  0.00     0.075 A 
HETATM   14  C11 UNL     1      21.812   0.721  53.102  1.00  0.00     0.072 A 
HETATM   15  C17 UNL     1      22.699   2.660  52.046  1.00  0.00     0.041 A 
HETATM   16  C12 UNL     1      23.106   0.353  53.458  1.00  0.00     0.103 A 
HETATM   17  C14 UNL     1      24.175   1.166  53.091  1.00  0.00     0.102 A 
HETATM   18  C16 UNL     1      24.002   2.345  52.373  1.00  0.00     0.057 A 
BRANCH  16  19
HETATM   19  O1  UNL     1      23.281  -0.825  54.175  1.00  0.00    -0.353 OA
HETATM   20  C13 UNL     1      22.202  -1.258  54.973  1.00  0.00     0.210 C 
ENDBRANCH  16  19
BRANCH  17  21
HETATM   21  O2  UNL     1      25.403   0.708  53.495  1.00  0.00    -0.353 OA
HETATM   22  C15 UNL     1      26.488   1.506  53.862  1.00  0.00     0.210 C 
ENDBRANCH  17  21
ENDBRANCH   7   9
ENDBRANCH   6   7
ENDBRANCH   5   6
ENDBRANCH   4   5
ENDBRANCH   3   4
TORSDOF 7
ENDMDL
MODEL 7
REMARK VINA RESULT:      -5.6      2.953      6.462
REMARK  7 active torsions:
REMARK  status: ('A' for Active; 'I' for Inactive)
REMARK    1  A    between atoms: C3_3  and  C4_4 
REMARK    2  A    between atoms: C4_4  and  C5_5 
REMARK    3  A    between atoms: C5_5  and  C6_6 
REMARK    4  A    between atoms: C6_6  and  N1_7 
REMARK    5  A    between atoms: N1_7  and  C8_9 
REMARK    6  A    between atoms: C12_15  and  O1_16 
REMARK    7  A    between atoms: C14_18  and  O2_19 
ROOT
HETATM    1  C1  UNL     1      18.777   3.250  46.670  1.00  0.00     0.096 C 
HETATM    2  C2  UNL     1      19.968   3.099  47.210  1.00  0.00    -0.155 C 
HETATM    3  C3  UNL     1      21.055   2.786  47.878  1.00  0.00     0.050 C 
ENDROOT
BRANCH   3   4
HETATM    4  C4  UNL     1      21.070   1.623  48.707  1.00  0.00     0.005 C 
BRANCH   4   5
HETATM    5  C5  UNL     1      20.326   1.618  49.802  1.00  0.00    -0.007 C 
BRANCH   5   6
HETATM    6  C6  UNL     1      20.425   0.607  50.918  1.00  0.00     0.151 C 
BRANCH   6   7
HETATM    7  N1  UNL     1      20.844   1.242  52.157  1.00  0.00    -0.366 N 
HETATM    8  C7  UNL     1      20.344   2.612  52.340  1.00  0.00     0.151 C 
BRANCH   7   9
HETATM    9  C8  UNL     1      21.677   0.435  53.004  1.00  0.00     0.139 A 
HETATM   10  N2  UNL     1      21.070  -0.370  53.871  1.00  0.00    -0.224 NA
HETATM   11  C9  UNL     1      21.726  -1.192  54.710  1.00  0.00     0.236 A 
HETATM   12  N3  UNL     1      23.076  -1.197  54.666  1.00  0.00    -0.241 NA
HETATM   13  C10 UNL     1      23.726  -0.393  53.799  1.00  0.00     0.075 A 
HETATM   14  C11 UNL     1      25.118  -0.396  53.755  1.00  0.00     0.072 A 
HETATM   15  C17 UNL     1      23.047   0.447  52.941  1.00  0.00     0.041 A 
HETATM   16  C12 UNL     1      25.782   0.438  52.860  1.00  0.00     0.103 A 
HETATM   17  C14 UNL     1      25.043   1.266  52.019  1.00  0.00     0.102 A 
HETATM   18  C16 UNL     1      23.652   1.294  52.035  1.00  0.00     0.057 A 
BRANCH  16  19
HETATM   19  O1  UNL     1      27.172   0.410  52.842  1.00  0.00    -0.353 OA
HETATM   20  C13 UNL     1      27.795  -0.806  53.188  1.00  0.00     0.210 C 
ENDBRANCH  16  19
BRANCH  17  21
HETATM   21  O2  UNL     1      25.799   2.045  51.180  1.00  0.00    -0.353 OA
HETATM   22  C15 UNL     1      25.324   3.107  50.410  1.00  0.00     0.210 C 
ENDBRANCH  17  21
ENDBRANCH   7   9
ENDBRANCH   6   7
ENDBRANCH   5   6
ENDBRANCH   4   5
ENDBRANCH   3   4
TORSDOF 7
ENDMDL
MODEL 8
REMARK VINA RESULT:      -5.4      3.203      7.526
REMARK  7 active torsions:
REMARK  status: ('A' for Active; 'I' for Inactive)
REMARK    1  A    between atoms: C3_3  and  C4_4 
REMARK    2  A    between atoms: C4_4  and  C5_5 
REMARK    3  A    between atoms: C5_5  and  C6_6 
REMARK    4  A    between atoms: C6_6  and  N1_7 
REMARK    5  A    between atoms: N1_7  and  C8_9 
REMARK    6  A    between atoms: C12_15  and  O1_16 
REMARK    7  A    between atoms: C14_18  and  O2_19 
ROOT
HETATM    1  C1  UNL     1      19.489   9.169  49.882  1.00  0.00     0.096 C 
HETATM    2  C2  UNL     1      20.753   8.914  49.616  1.00  0.00    -0.155 C 
HETATM    3  C3  UNL     1      22.008   8.532  49.545  1.00  0.00     0.050 C 
ENDROOT
BRANCH   3   4
HETATM    4  C4  UNL     1      22.488   7.500  50.408  1.00  0.00     0.005 C 
BRANCH   4   5
HETATM    5  C5  UNL     1      22.127   6.251  50.162  1.00  0.00    -0.007 C 
BRANCH   5   6
HETATM    6  C6  UNL     1      22.464   5.060  51.025  1.00  0.00     0.151 C 
BRANCH   6   7
HETATM    7  N1  UNL     1      22.870   3.927  50.210  1.00  0.00    -0.366 N 
HETATM    8  C7  UNL     1      21.783   3.307  49.440  1.00  0.00     0.151 C 
BRANCH   7   9
HETATM    9  C8  UNL     1      24.265   3.592  50.285  1.00  0.00     0.139 A 
HETATM   10  N2  UNL     1      25.102   4.281  49.514  1.00  0.00    -0.224 NA
HETATM   11  C9  UNL     1      26.432   4.084  49.497  1.00  0.00     0.236 A 
HETATM   12  N3  UNL     1      26.944   3.134  50.311  1.00  0.00    -0.241 NA
HETATM   13  C10 UNL     1      26.124   2.416  51.106  1.00  0.00     0.075 A 
HETATM   14  C11 UNL     1      26.651   1.435  51.944  1.00  0.00     0.072 A 
HETATM   15  C17 UNL     1      24.761   2.623  51.119  1.00  0.00     0.041 A 
HETATM   16  C12 UNL     1      25.800   0.695  52.760  1.00  0.00     0.103 A 
HETATM   17  C14 UNL     1      24.431   0.948  52.728  1.00  0.00     0.102 A 
HETATM   18  C16 UNL     1      23.871   1.921  51.906  1.00  0.00     0.057 A 
BRANCH  16  19
HETATM   19  O1  UNL     1      26.358  -0.276  53.583  1.00  0.00    -0.353 OA
HETATM   20  C13 UNL     1      27.216   0.167  54.610  1.00  0.00     0.210 C 
ENDBRANCH  16  19
BRANCH  17  21
HETATM   21  O2  UNL     1      23.689   0.161  53.572  1.00  0.00    -0.353 OA
HETATM   22  C15 UNL     1      22.814  -0.853  53.178  1.00  0.00     0.210 C 
ENDBRANCH  17  21
ENDBRANCH   7   9
ENDBRANCH   6   7
ENDBRANCH   5   6
ENDBRANCH   4   5
ENDBRANCH   3   4
TORSDOF 7
ENDMDL
MODEL 9
REMARK VINA RESULT:      -5.3      2.562      6.757
REMARK  7 active torsions:
REMARK  status: ('A' for Active; 'I' for Inactive)
REMARK    1  A    between atoms: C3_3  and  C4_4 
REMARK    2  A    between atoms: C4_4  and  C5_5 
REMARK    3  A    between atoms: C5_5  and  C6_6 
REMARK    4  A    between atoms: C6_6  and  N1_7 
REMARK    5  A    between atoms: N1_7  and  C8_9 
REMARK    6  A    between atoms: C12_15  and  O1_16 
REMARK    7  A    between atoms: C14_18  and  O2_19 
ROOT
HETATM    1  C1  UNL     1      17.093  -0.139  49.904  1.00  0.00     0.096 C 
HETATM    2  C2  UNL     1      16.890   0.778  50.825  1.00  0.00    -0.155 C 
HETATM    3  C3  UNL     1      16.890   1.780  51.676  1.00  0.00     0.050 C 
ENDROOT
BRANCH   3   4
HETATM    4  C4  UNL     1      17.856   2.824  51.544  1.00  0.00     0.005 C 
BRANCH   4   5
HETATM    5  C5  UNL     1      19.103   2.497  51.243  1.00  0.00    -0.007 C 
BRANCH   5   6
HETATM    6  C6  UNL     1      20.164   2.098  52.238  1.00  0.00     0.151 C 
BRANCH   6   7
HETATM    7  N1  UNL     1      20.962   0.994  51.730  1.00  0.00    -0.366 N 
HETATM    8  C7  UNL     1      21.002   0.892  50.264  1.00  0.00     0.151 C 
BRANCH   7   9
HETATM    9  C8  UNL     1      21.582   0.178  52.736  1.00  0.00     0.139 A 
HETATM   10  N2  UNL     1      20.828  -0.746  53.326  1.00  0.00    -0.224 NA
HETATM   11  C9  UNL     1      21.283  -1.588  54.269  1.00  0.00     0.236 A 
HETATM   12  N3  UNL     1      22.580  -1.489  54.637  1.00  0.00    -0.241 NA
HETATM   13  C10 UNL     1      23.375  -0.563  54.060  1.00  0.00     0.075 A 
HETATM   14  C11 UNL     1      24.711  -0.459  54.440  1.00  0.00     0.072 A 
HETATM   15  C17 UNL     1      22.901   0.297  53.093  1.00  0.00     0.041 A 
HETATM   16  C12 UNL     1      25.525   0.500  53.843  1.00  0.00     0.103 A 
HETATM   17  C14 UNL     1      24.990   1.343  52.873  1.00  0.00     0.102 A 
HETATM   18  C16 UNL     1      23.661   1.266  52.469  1.00  0.00     0.057 A 
BRANCH  16  19
HETATM   19  O1  UNL     1      26.853   0.577  54.246  1.00  0.00    -0.353 OA
HETATM   20  C13 UNL     1      27.742  -0.380  53.717  1.00  0.00     0.210 C 
ENDBRANCH  16  19
BRANCH  17  21
HETATM   21  O2  UNL     1      25.880   2.248  52.354  1.00  0.00    -0.353 OA
HETATM   22  C15 UNL     1      26.536   2.131  51.128  1.00  0.00     0.210 C 
ENDBRANCH  17  21
ENDBRANCH   7   9
ENDBRANCH   6   7
ENDBRANCH   5   6
ENDBRANCH   4   5
ENDBRANCH   3   4
TORSDOF 7
ENDMDL
