MODEL 1
REMARK VINA RESULT:      -7.3      0.000      0.000
REMARK  6 active torsions:
REMARK  status: ('A' for Active; 'I' for Inactive)
REMARK    1  A    between atoms: C4_4  and  C5_5 
REMARK    2  A    between atoms: C6_6  and  C7_7 
REMARK    3  A    between atoms: C7_7  and  N1_8 
REMARK    4  A    between atoms: C11_12  and  N2_13 
REMARK    5  A    between atoms: N2_13  and  C12_14 
REMARK    6  A    between atoms: C18_22  and  N4_23 
ROOT
HETATM    1  C1  UNL     1      26.515   4.802  48.977  1.00  0.00     0.017 C 
HETATM    2  C2  UNL     1      26.503   3.858  49.711  1.00  0.00    -0.089 C 
HETATM    3  C3  UNL     1      26.476   2.722  50.582  1.00  0.00     0.063 C 
HETATM    4  C4  UNL     1      25.538   2.585  51.503  1.00  0.00     0.009 C 
ENDROOT
BRANCH   4   5
HETATM    5  C5  UNL     1      24.936   1.830  52.591  1.00  0.00    -0.002 C 
HETATM    6  C6  UNL     1      23.877   1.096  52.861  1.00  0.00    -0.007 C 
BRANCH   6   7
HETATM    7  C7  UNL     1      22.824   0.820  51.877  1.00  0.00     0.157 C 
BRANCH   7   8
HETATM    8  N1  UNL     1      21.599   0.313  52.434  1.00  0.00    -0.337 N 
HETATM    9  C8  UNL     1      21.440  -0.322  53.634  1.00  0.00     0.094 A 
HETATM   10  C9  UNL     1      20.096  -0.613  53.725  1.00  0.00     0.036 A 
HETATM   11  C10 UNL     1      19.477  -0.150  52.586  1.00  0.00     0.059 A 
HETATM   12  C11 UNL     1      18.161  -0.177  52.172  1.00  0.00     0.161 A 
HETATM   13  C19 UNL     1      20.422   0.426  51.789  1.00  0.00     0.163 A 
HETATM   14  N3  UNL     1      17.811   0.360  50.989  1.00  0.00    -0.044 NA
HETATM   15  C18 UNL     1      18.743   0.926  50.207  1.00  0.00     0.724 A 
HETATM   16  N5  UNL     1      20.046   0.956  50.611  1.00  0.00    -0.044 NA
BRANCH  12  17
HETATM   17  N2  UNL     1      17.109  -0.749  52.896  1.00  0.00    -0.340 N 
HETATM   18  H10 UNL     1      16.589  -0.080  53.485  1.00  0.00     0.167 HD
BRANCH  17  19
HETATM   19  C12 UNL     1      16.704  -2.113  52.899  1.00  0.00     0.035 A 
HETATM   20  C13 UNL     1      17.446  -3.086  53.544  1.00  0.00     0.029 A 
HETATM   21  C14 UNL     1      17.072  -4.404  53.573  1.00  0.00     0.004 A 
HETATM   22  C15 UNL     1      15.901  -4.781  52.927  1.00  0.00     0.019 A 
HETATM   23  C16 UNL     1      15.097  -3.852  52.251  1.00  0.00     0.013 A 
HETATM   24 BR1  UNL     1      13.479  -4.338  51.360  1.00  0.00    -0.051 Br
HETATM   25  C17 UNL     1      15.553  -2.556  52.278  1.00  0.00     0.048 A 
ENDBRANCH  17  19
ENDBRANCH  12  17
BRANCH  15  26
HETATM   26  N4  UNL     1      18.471   1.519  48.937  1.00  0.00    -0.231 N 
HETATM   27  H15 UNL     1      18.833   2.494  48.913  1.00  0.00     0.174 HD
HETATM   28  H16 UNL     1      17.992   1.166  48.062  1.00  0.00     0.174 HD
ENDBRANCH  15  26
ENDBRANCH   7   8
ENDBRANCH   6   7
ENDBRANCH   4   5
TORSDOF 6
ENDMDL
MODEL 2
REMARK VINA RESULT:      -7.3     10.351     13.472
REMARK  6 active torsions:
REMARK  status: ('A' for Active; 'I' for Inactive)
REMARK    1  A    between atoms: C4_4  and  C5_5 
REMARK    2  A    between atoms: C6_6  and  C7_7 
REMARK    3  A    between atoms: C7_7  and  N1_8 
REMARK    4  A    between atoms: C11_12  and  N2_13 
REMARK    5  A    between atoms: N2_13  and  C12_14 
REMARK    6  A    between atoms: C18_22  and  N4_23 
ROOT
HETATM    1  C1  UNL     1      31.991   0.389  46.766  1.00  0.00     0.017 C 
HETATM    2  C2  UNL     1      32.498   1.471  46.714  1.00  0.00    -0.089 C 
HETATM    3  C3  UNL     1      33.120   2.759  46.647  1.00  0.00     0.063 C 
HETATM    4  C4  UNL     1      33.949   3.171  47.591  1.00  0.00     0.009 C 
ENDROOT
BRANCH   4   5
HETATM    5  C5  UNL     1      34.833   4.187  48.141  1.00  0.00    -0.002 C 
HETATM    6  C6  UNL     1      35.029   5.488  48.124  1.00  0.00    -0.007 C 
BRANCH   6   7
HETATM    7  C7  UNL     1      34.187   6.413  47.355  1.00  0.00     0.157 C 
BRANCH   7   8
HETATM    8  N1  UNL     1      32.936   6.747  47.981  1.00  0.00    -0.337 N 
HETATM    9  C8  UNL     1      32.627   6.648  49.309  1.00  0.00     0.094 A 
HETATM   10  C9  UNL     1      31.324   7.082  49.420  1.00  0.00     0.036 A 
HETATM   11  C10 UNL     1      30.878   7.433  48.165  1.00  0.00     0.059 A 
HETATM   12  C11 UNL     1      29.670   7.925  47.717  1.00  0.00     0.161 A 
HETATM   13  C19 UNL     1      31.891   7.221  47.276  1.00  0.00     0.163 A 
HETATM   14  N3  UNL     1      29.490   8.194  46.410  1.00  0.00    -0.044 NA
HETATM   15  C18 UNL     1      30.488   7.983  45.538  1.00  0.00     0.724 A 
HETATM   16  N5  UNL     1      31.685   7.497  45.976  1.00  0.00    -0.044 NA
BRANCH  12  17
HETATM   17  N2  UNL     1      28.558   8.170  48.529  1.00  0.00    -0.340 N 
HETATM   18  H10 UNL     1      28.514   9.130  48.906  1.00  0.00     0.167 HD
BRANCH  17  19
HETATM   19  C12 UNL     1      27.522   7.258  48.875  1.00  0.00     0.035 A 
HETATM   20  C13 UNL     1      27.620   5.909  48.586  1.00  0.00     0.029 A 
HETATM   21  C14 UNL     1      26.643   5.008  48.919  1.00  0.00     0.004 A 
HETATM   22  C15 UNL     1      25.506   5.466  49.573  1.00  0.00     0.019 A 
HETATM   23  C16 UNL     1      25.334   6.819  49.898  1.00  0.00     0.013 A 
HETATM   24 BR1  UNL     1      23.786   7.478  50.802  1.00  0.00    -0.051 Br
HETATM   25  C17 UNL     1      26.367   7.646  49.525  1.00  0.00     0.048 A 
ENDBRANCH  17  19
ENDBRANCH  12  17
BRANCH  15  26
HETATM   26  N4  UNL     1      30.393   8.236  44.136  1.00  0.00    -0.231 N 
HETATM   27  H15 UNL     1      30.174   7.354  43.629  1.00  0.00     0.174 HD
HETATM   28  H16 UNL     1      30.499   9.110  43.550  1.00  0.00     0.174 HD
ENDBRANCH  15  26
ENDBRANCH   7   8
ENDBRANCH   6   7
ENDBRANCH   4   5
TORSDOF 6
ENDMDL
MODEL 3
REMARK VINA RESULT:      -7.3      5.431     10.571
REMARK  6 active torsions:
REMARK  status: ('A' for Active; 'I' for Inactive)
REMARK    1  A    between atoms: C4_4  and  C5_5 
REMARK    2  A    between atoms: C6_6  and  C7_7 
REMARK    3  A    between atoms: C7_7  and  N1_8 
REMARK    4  A    between atoms: C11_12  and  N2_13 
REMARK    5  A    between atoms: N2_13  and  C12_14 
REMARK    6  A    between atoms: C18_22  and  N4_23 
ROOT
HETATM    1  C1  UNL     1      16.325   2.161  51.328  1.00  0.00     0.017 C 
HETATM    2  C2  UNL     1      17.480   1.869  51.229  1.00  0.00    -0.089 C 
HETATM    3  C3  UNL     1      18.860   1.505  51.105  1.00  0.00     0.063 C 
HETATM    4  C4  UNL     1      19.422   0.651  51.942  1.00  0.00     0.009 C 
ENDROOT
BRANCH   4   5
HETATM    5  C5  UNL     1      20.586  -0.098  52.391  1.00  0.00    -0.002 C 
HETATM    6  C6  UNL     1      21.811   0.088  52.838  1.00  0.00    -0.007 C 
BRANCH   6   7
HETATM    7  C7  UNL     1      22.401   1.420  53.019  1.00  0.00     0.157 C 
BRANCH   7   8
HETATM    8  N1  UNL     1      23.161   1.898  51.895  1.00  0.00    -0.337 N 
HETATM    9  C8  UNL     1      22.687   2.201  50.649  1.00  0.00     0.094 A 
HETATM   10  C9  UNL     1      23.785   2.614  49.925  1.00  0.00     0.036 A 
HETATM   11  C10 UNL     1      24.889   2.553  50.745  1.00  0.00     0.059 A 
HETATM   12  C11 UNL     1      26.219   2.853  50.530  1.00  0.00     0.161 A 
HETATM   13  C19 UNL     1      24.489   2.106  51.970  1.00  0.00     0.163 A 
HETATM   14  N3  UNL     1      27.117   2.705  51.522  1.00  0.00    -0.044 NA
HETATM   15  C18 UNL     1      26.719   2.264  52.726  1.00  0.00     0.724 A 
HETATM   16  N5  UNL     1      25.406   1.966  52.945  1.00  0.00    -0.044 NA
BRANCH  12  17
HETATM   17  N2  UNL     1      26.748   3.306  49.317  1.00  0.00    -0.340 N 
HETATM   18  H10 UNL     1      26.985   2.553  48.652  1.00  0.00     0.167 HD
BRANCH  17  19
HETATM   19  C12 UNL     1      26.983   4.654  48.927  1.00  0.00     0.035 A 
HETATM   20  C13 UNL     1      25.970   5.595  48.927  1.00  0.00     0.029 A 
HETATM   21  C14 UNL     1      26.173   6.901  48.568  1.00  0.00     0.004 A 
HETATM   22  C15 UNL     1      27.449   7.299  48.186  1.00  0.00     0.019 A 
HETATM   23  C16 UNL     1      28.526   6.403  48.160  1.00  0.00     0.013 A 
HETATM   24 BR1  UNL     1      30.292   6.920  47.647  1.00  0.00    -0.051 Br
HETATM   25  C17 UNL     1      28.225   5.115  48.537  1.00  0.00     0.048 A 
ENDBRANCH  17  19
ENDBRANCH  12  17
BRANCH  15  26
HETATM   26  N4  UNL     1      27.595   2.073  53.837  1.00  0.00    -0.231 N 
HETATM   27  H15 UNL     1      27.668   2.952  54.389  1.00  0.00     0.174 HD
HETATM   28  H16 UNL     1      28.155   1.245  54.183  1.00  0.00     0.174 HD
ENDBRANCH  15  26
ENDBRANCH   7   8
ENDBRANCH   6   7
ENDBRANCH   4   5
TORSDOF 6
ENDMDL
MODEL 4
REMARK VINA RESULT:      -7.1      4.894      6.086
REMARK  6 active torsions:
REMARK  status: ('A' for Active; 'I' for Inactive)
REMARK    1  A    between atoms: C4_4  and  C5_5 
REMARK    2  A    between atoms: C6_6  and  C7_7 
REMARK    3  A    between atoms: C7_7  and  N1_8 
REMARK    4  A    between atoms: C11_12  and  N2_13 
REMARK    5  A    between atoms: N2_13  and  C12_14 
REMARK    6  A    between atoms: C18_22  and  N4_23 
ROOT
HETATM    1  C1  UNL     1      25.324   5.334  49.309  1.00  0.00     0.017 C 
HETATM    2  C2  UNL     1      25.939   4.323  49.478  1.00  0.00    -0.089 C 
HETATM    3  C3  UNL     1      26.662   3.103  49.676  1.00  0.00     0.063 C 
HETATM    4  C4  UNL     1      26.454   2.346  50.739  1.00  0.00     0.009 C 
ENDROOT
BRANCH   4   5
HETATM    5  C5  UNL     1      26.750   1.155  51.520  1.00  0.00    -0.002 C 
HETATM    6  C6  UNL     1      26.428   0.571  52.655  1.00  0.00    -0.007 C 
BRANCH   6   7
HETATM    7  C7  UNL     1      25.464   1.145  53.602  1.00  0.00     0.157 C 
BRANCH   7   8
HETATM    8  N1  UNL     1      24.132   1.298  53.084  1.00  0.00    -0.337 N 
HETATM    9  C8  UNL     1      23.220   0.307  52.849  1.00  0.00     0.094 A 
HETATM   10  C9  UNL     1      22.099   0.942  52.360  1.00  0.00     0.036 A 
HETATM   11  C10 UNL     1      22.356   2.294  52.312  1.00  0.00     0.059 A 
HETATM   12  C11 UNL     1      21.588   3.368  51.911  1.00  0.00     0.161 A 
HETATM   13  C19 UNL     1      23.625   2.504  52.766  1.00  0.00     0.163 A 
HETATM   14  N3  UNL     1      22.087   4.617  51.968  1.00  0.00    -0.044 NA
HETATM   15  C18 UNL     1      23.336   4.820  52.415  1.00  0.00     0.724 A 
HETATM   16  N5  UNL     1      24.100   3.762  52.812  1.00  0.00    -0.044 NA
BRANCH  12  17
HETATM   17  N2  UNL     1      20.282   3.274  51.418  1.00  0.00    -0.340 N 
HETATM   18  H10 UNL     1      19.558   3.206  52.150  1.00  0.00     0.167 HD
BRANCH  17  19
HETATM   19  C12 UNL     1      19.873   3.262  50.055  1.00  0.00     0.035 A 
HETATM   20  C13 UNL     1      18.546   3.099  49.700  1.00  0.00     0.029 A 
HETATM   21  C14 UNL     1      18.124   3.096  48.397  1.00  0.00     0.004 A 
HETATM   22  C15 UNL     1      19.066   3.262  47.388  1.00  0.00     0.019 A 
HETATM   23  C16 UNL     1      20.429   3.432  47.670  1.00  0.00     0.013 A 
HETATM   24 BR1  UNL     1      21.746   3.670  46.308  1.00  0.00    -0.051 Br
HETATM   25  C17 UNL     1      20.756   3.422  49.006  1.00  0.00     0.048 A 
ENDBRANCH  17  19
ENDBRANCH  12  17
BRANCH  15  26
HETATM   26  N4  UNL     1      23.952   6.104  52.509  1.00  0.00    -0.231 N 
HETATM   27  H15 UNL     1      23.321   6.768  53.002  1.00  0.00     0.174 HD
HETATM   28  H16 UNL     1      24.885   6.485  52.185  1.00  0.00     0.174 HD
ENDBRANCH  15  26
ENDBRANCH   7   8
ENDBRANCH   6   7
ENDBRANCH   4   5
TORSDOF 6
ENDMDL
MODEL 5
REMARK VINA RESULT:      -7.1      6.790     12.368
REMARK  6 active torsions:
REMARK  status: ('A' for Active; 'I' for Inactive)
REMARK    1  A    between atoms: C4_4  and  C5_5 
REMARK    2  A    between atoms: C6_6  and  C7_7 
REMARK    3  A    between atoms: C7_7  and  N1_8 
REMARK    4  A    between atoms: C11_12  and  N2_13 
REMARK    5  A    between atoms: N2_13  and  C12_14 
REMARK    6  A    between atoms: C18_22  and  N4_23 
ROOT
HETATM    1  C1  UNL     1      21.537  -0.600  54.051  1.00  0.00     0.017 C 
HETATM    2  C2  UNL     1      22.688  -0.495  53.747  1.00  0.00    -0.089 C 
HETATM    3  C3  UNL     1      24.070  -0.364  53.397  1.00  0.00     0.063 C 
HETATM    4  C4  UNL     1      24.626   0.823  53.225  1.00  0.00     0.009 C 
ENDROOT
BRANCH   4   5
HETATM    5  C5  UNL     1      25.787   1.642  52.912  1.00  0.00    -0.002 C 
HETATM    6  C6  UNL     1      26.227   2.484  52.001  1.00  0.00    -0.007 C 
BRANCH   6   7
HETATM    7  C7  UNL     1      25.443   2.865  50.820  1.00  0.00     0.157 C 
BRANCH   7   8
HETATM    8  N1  UNL     1      26.034   3.902  50.017  1.00  0.00    -0.337 N 
HETATM    9  C8  UNL     1      27.108   3.786  49.180  1.00  0.00     0.094 A 
HETATM   10  C9  UNL     1      27.293   5.038  48.637  1.00  0.00     0.036 A 
HETATM   11  C10 UNL     1      26.333   5.879  49.154  1.00  0.00     0.059 A 
HETATM   12  C11 UNL     1      26.066   7.217  48.949  1.00  0.00     0.161 A 
HETATM   13  C19 UNL     1      25.553   5.160  50.013  1.00  0.00     0.163 A 
HETATM   14  N3  UNL     1      25.043   7.811  49.591  1.00  0.00    -0.044 NA
HETATM   15  C18 UNL     1      24.278   7.101  50.435  1.00  0.00     0.724 A 
HETATM   16  N5  UNL     1      24.537   5.778  50.642  1.00  0.00    -0.044 NA
BRANCH  12  17
HETATM   17  N2  UNL     1      26.802   8.056  48.104  1.00  0.00    -0.340 N 
HETATM   18  H10 UNL     1      26.484   8.050  47.122  1.00  0.00     0.167 HD
BRANCH  17  19
HETATM   19  C12 UNL     1      27.905   8.882  48.456  1.00  0.00     0.035 A 
HETATM   20  C13 UNL     1      29.147   8.346  48.744  1.00  0.00     0.029 A 
HETATM   21  C14 UNL     1      30.229   9.120  49.073  1.00  0.00     0.004 A 
HETATM   22  C15 UNL     1      30.073  10.500  49.121  1.00  0.00     0.019 A 
HETATM   23  C16 UNL     1      28.846  11.116  48.843  1.00  0.00     0.013 A 
HETATM   24 BR1  UNL     1      28.602  13.010  48.894  1.00  0.00    -0.051 Br
HETATM   25  C17 UNL     1      27.820  10.259  48.522  1.00  0.00     0.048 A 
ENDBRANCH  17  19
ENDBRANCH  12  17
BRANCH  15  26
HETATM   26  N4  UNL     1      23.175   7.642  51.162  1.00  0.00    -0.231 N 
HETATM   27  H15 UNL     1      22.710   8.386  50.603  1.00  0.00     0.174 HD
HETATM   28  H16 UNL     1      22.766   7.435  52.115  1.00  0.00     0.174 HD
ENDBRANCH  15  26
ENDBRANCH   7   8
ENDBRANCH   6   7
ENDBRANCH   4   5
TORSDOF 6
ENDMDL
MODEL 6
REMARK VINA RESULT:      -7.1      4.101      9.027
REMARK  6 active torsions:
REMARK  status: ('A' for Active; 'I' for Inactive)
REMARK    1  A    between atoms: C4_4  and  C5_5 
REMARK    2  A    between atoms: C6_6  and  C7_7 
REMARK    3  A    between atoms: C7_7  and  N1_8 
REMARK    4  A    between atoms: C11_12  and  N2_13 
REMARK    5  A    between atoms: N2_13  and  C12_14 
REMARK    6  A    between atoms: C18_22  and  N4_23 
ROOT
HETATM    1  C1  UNL     1      13.918  -3.510  50.112  1.00  0.00     0.017 C 
HETATM    2  C2  UNL     1      14.425  -3.164  51.138  1.00  0.00    -0.089 C 
HETATM    3  C3  UNL     1      15.043  -2.738  52.357  1.00  0.00     0.063 C 
HETATM    4  C4  UNL     1      16.283  -3.081  52.656  1.00  0.00     0.009 C 
ENDROOT
BRANCH   4   5
HETATM    5  C5  UNL     1      17.422  -3.045  53.560  1.00  0.00    -0.002 C 
HETATM    6  C6  UNL     1      18.492  -2.325  53.827  1.00  0.00    -0.007 C 
BRANCH   6   7
HETATM    7  C7  UNL     1      18.844  -1.111  53.082  1.00  0.00     0.157 C 
BRANCH   7   8
HETATM    8  N1  UNL     1      20.144  -0.576  53.385  1.00  0.00    -0.337 N 
HETATM    9  C8  UNL     1      20.788  -0.609  54.590  1.00  0.00     0.094 A 
HETATM   10  C9  UNL     1      21.995   0.023  54.384  1.00  0.00     0.036 A 
HETATM   11  C10 UNL     1      22.053   0.421  53.067  1.00  0.00     0.059 A 
HETATM   12  C11 UNL     1      23.023   1.084  52.343  1.00  0.00     0.161 A 
HETATM   13  C19 UNL     1      20.895   0.042  52.454  1.00  0.00     0.163 A 
HETATM   14  N3  UNL     1      22.828   1.355  51.039  1.00  0.00    -0.044 NA
HETATM   15  C18 UNL     1      21.687   0.982  50.439  1.00  0.00     0.724 A 
HETATM   16  N5  UNL     1      20.725   0.326  51.150  1.00  0.00    -0.044 NA
BRANCH  12  17
HETATM   17  N2  UNL     1      24.241   1.531  52.864  1.00  0.00    -0.340 N 
HETATM   18  H10 UNL     1      24.227   2.511  53.189  1.00  0.00     0.167 HD
BRANCH  17  19
HETATM   19  C12 UNL     1      25.452   0.794  52.983  1.00  0.00     0.035 A 
HETATM   20  C13 UNL     1      25.523  -0.542  52.633  1.00  0.00     0.029 A 
HETATM   21  C14 UNL     1      26.680  -1.271  52.727  1.00  0.00     0.004 A 
HETATM   22  C15 UNL     1      27.829  -0.644  53.194  1.00  0.00     0.019 A 
HETATM   23  C16 UNL     1      27.835   0.707  53.568  1.00  0.00     0.013 A 
HETATM   24 BR1  UNL     1      29.399   1.598  54.206  1.00  0.00    -0.051 Br
HETATM   25  C17 UNL     1      26.629   1.355  53.439  1.00  0.00     0.048 A 
ENDBRANCH  17  19
ENDBRANCH  12  17
BRANCH  15  26
HETATM   26  N4  UNL     1      21.389   1.226  49.064  1.00  0.00    -0.231 N 
HETATM   27  H15 UNL     1      22.230   1.047  48.479  1.00  0.00     0.174 HD
HETATM   28  H16 UNL     1      20.514   1.541  48.559  1.00  0.00     0.174 HD
ENDBRANCH  15  26
ENDBRANCH   7   8
ENDBRANCH   6   7
ENDBRANCH   4   5
TORSDOF 6
ENDMDL
MODEL 7
REMARK VINA RESULT:      -7.0      4.817      9.165
REMARK  6 active torsions:
REMARK  status: ('A' for Active; 'I' for Inactive)
REMARK    1  A    between atoms: C4_4  and  C5_5 
REMARK    2  A    between atoms: C6_6  and  C7_7 
REMARK    3  A    between atoms: C7_7  and  N1_8 
REMARK    4  A    between atoms: C11_12  and  N2_13 
REMARK    5  A    between atoms: N2_13  and  C12_14 
REMARK    6  A    between atoms: C18_22  and  N4_23 
ROOT
HETATM    1  C1  UNL     1      17.627   1.539  51.023  1.00  0.00     0.017 C 
HETATM    2  C2  UNL     1      18.517   0.861  51.446  1.00  0.00    -0.089 C 
HETATM    3  C3  UNL     1      19.572   0.041  51.961  1.00  0.00     0.063 C 
HETATM    4  C4  UNL     1      20.042   0.215  53.184  1.00  0.00     0.009 C 
ENDROOT
BRANCH   4   5
HETATM    5  C5  UNL     1      20.956  -0.161  54.251  1.00  0.00    -0.002 C 
HETATM    6  C6  UNL     1      22.201  -0.542  54.443  1.00  0.00    -0.007 C 
BRANCH   6   7
HETATM    7  C7  UNL     1      23.163  -0.708  53.346  1.00  0.00     0.157 C 
BRANCH   7   8
HETATM    8  N1  UNL     1      23.916   0.473  53.023  1.00  0.00    -0.337 N 
HETATM    9  C8  UNL     1      24.990   0.977  53.702  1.00  0.00     0.094 A 
HETATM   10  C9  UNL     1      25.366   2.111  53.014  1.00  0.00     0.036 A 
HETATM   11  C10 UNL     1      24.516   2.266  51.942  1.00  0.00     0.059 A 
HETATM   12  C11 UNL     1      24.448   3.217  50.945  1.00  0.00     0.161 A 
HETATM   13  C19 UNL     1      23.617   1.240  51.957  1.00  0.00     0.163 A 
HETATM   14  N3  UNL     1      23.501   3.134  49.992  1.00  0.00    -0.044 NA
HETATM   15  C18 UNL     1      22.618   2.124  50.010  1.00  0.00     0.724 A 
HETATM   16  N5  UNL     1      22.680   1.180  50.994  1.00  0.00    -0.044 NA
BRANCH  12  17
HETATM   17  N2  UNL     1      25.305   4.317  50.833  1.00  0.00    -0.340 N 
HETATM   18  H10 UNL     1      26.285   4.117  51.087  1.00  0.00     0.167 HD
BRANCH  17  19
HETATM   19  C12 UNL     1      24.967   5.637  50.422  1.00  0.00     0.035 A 
HETATM   20  C13 UNL     1      24.167   6.454  51.200  1.00  0.00     0.029 A 
HETATM   21  C14 UNL     1      23.837   7.733  50.832  1.00  0.00     0.004 A 
HETATM   22  C15 UNL     1      24.324   8.229  49.629  1.00  0.00     0.019 A 
HETATM   23  C16 UNL     1      25.139   7.460  48.787  1.00  0.00     0.013 A 
HETATM   24 BR1  UNL     1      25.828   8.116  47.131  1.00  0.00    -0.051 Br
HETATM   25  C17 UNL     1      25.416   6.192  49.240  1.00  0.00     0.048 A 
ENDBRANCH  17  19
ENDBRANCH  12  17
BRANCH  15  26
HETATM   26  N4  UNL     1      21.578   1.953  49.047  1.00  0.00    -0.231 N 
HETATM   27  H15 UNL     1      21.128   1.022  49.168  1.00  0.00     0.174 HD
HETATM   28  H16 UNL     1      21.202   2.567  48.272  1.00  0.00     0.174 HD
ENDBRANCH  15  26
ENDBRANCH   7   8
ENDBRANCH   6   7
ENDBRANCH   4   5
TORSDOF 6
ENDMDL
MODEL 8
REMARK VINA RESULT:      -7.0      7.413      9.264
REMARK  6 active torsions:
REMARK  status: ('A' for Active; 'I' for Inactive)
REMARK    1  A    between atoms: C4_4  and  C5_5 
REMARK    2  A    between atoms: C6_6  and  C7_7 
REMARK    3  A    between atoms: C7_7  and  N1_8 
REMARK    4  A    between atoms: C11_12  and  N2_13 
REMARK    5  A    between atoms: N2_13  and  C12_14 
REMARK    6  A    between atoms: C18_22  and  N4_23 
ROOT
HETATM    1  C1  UNL     1      23.863   7.980  43.358  1.00  0.00     0.017 C 
HETATM    2  C2  UNL     1      24.880   8.246  43.926  1.00  0.00    -0.089 C 
HETATM    3  C3  UNL     1      26.104   8.551  44.605  1.00  0.00     0.063 C 
HETATM    4  C4  UNL     1      26.356   8.077  45.812  1.00  0.00     0.009 C 
ENDROOT
BRANCH   4   5
HETATM    5  C5  UNL     1      27.235   7.959  46.966  1.00  0.00    -0.002 C 
HETATM    6  C6  UNL     1      27.225   7.562  48.221  1.00  0.00    -0.007 C 
BRANCH   6   7
HETATM    7  C7  UNL     1      26.029   7.021  48.878  1.00  0.00     0.157 C 
BRANCH   7   8
HETATM    8  N1  UNL     1      26.142   5.650  49.296  1.00  0.00    -0.337 N 
HETATM    9  C8  UNL     1      27.077   4.739  48.890  1.00  0.00     0.094 A 
HETATM   10  C9  UNL     1      26.776   3.574  49.563  1.00  0.00     0.036 A 
HETATM   11  C10 UNL     1      25.675   3.806  50.356  1.00  0.00     0.059 A 
HETATM   12  C11 UNL     1      24.971   2.995  51.222  1.00  0.00     0.161 A 
HETATM   13  C19 UNL     1      25.288   5.103  50.182  1.00  0.00     0.163 A 
HETATM   14  N3  UNL     1      23.909   3.479  51.892  1.00  0.00    -0.044 NA
HETATM   15  C18 UNL     1      23.531   4.755  51.719  1.00  0.00     0.724 A 
HETATM   16  N5  UNL     1      24.223   5.562  50.864  1.00  0.00    -0.044 NA
BRANCH  12  17
HETATM   17  N2  UNL     1      25.265   1.650  51.471  1.00  0.00    -0.340 N 
HETATM   18  H10 UNL     1      24.620   0.985  51.014  1.00  0.00     0.167 HD
BRANCH  17  19
HETATM   19  C12 UNL     1      26.324   1.130  52.265  1.00  0.00     0.035 A 
HETATM   20  C13 UNL     1      27.026   1.930  53.149  1.00  0.00     0.029 A 
HETATM   21  C14 UNL     1      28.042   1.451  53.933  1.00  0.00     0.004 A 
HETATM   22  C15 UNL     1      28.384   0.107  53.837  1.00  0.00     0.019 A 
HETATM   23  C16 UNL     1      27.720  -0.765  52.964  1.00  0.00     0.013 A 
HETATM   24 BR1  UNL     1      28.163  -2.617  52.814  1.00  0.00    -0.051 Br
HETATM   25  C17 UNL     1      26.716  -0.194  52.219  1.00  0.00     0.048 A 
ENDBRANCH  17  19
ENDBRANCH  12  17
BRANCH  15  26
HETATM   26  N4  UNL     1      22.420   5.357  52.382  1.00  0.00    -0.231 N 
HETATM   27  H15 UNL     1      22.427   6.386  52.229  1.00  0.00     0.174 HD
HETATM   28  H16 UNL     1      21.631   4.968  52.970  1.00  0.00     0.174 HD
ENDBRANCH  15  26
ENDBRANCH   7   8
ENDBRANCH   6   7
ENDBRANCH   4   5
TORSDOF 6
ENDMDL
MODEL 9
REMARK VINA RESULT:      -7.0      3.095      4.463
REMARK  6 active torsions:
REMARK  status: ('A' for Active; 'I' for Inactive)
REMARK    1  A    between atoms: C4_4  and  C5_5 
REMARK    2  A    between atoms: C6_6  and  C7_7 
REMARK    3  A    between atoms: C7_7  and  N1_8 
REMARK    4  A    between atoms: C11_12  and  N2_13 
REMARK    5  A    between atoms: N2_13  and  C12_14 
REMARK    6  A    between atoms: C18_22  and  N4_23 
ROOT
HETATM    1  C1  UNL     1      26.213   3.529  49.891  1.00  0.00     0.017 C 
HETATM    2  C2  UNL     1      26.609   2.793  50.746  1.00  0.00    -0.089 C 
HETATM    3  C3  UNL     1      27.089   1.902  51.759  1.00  0.00     0.063 C 
HETATM    4  C4  UNL     1      26.434   0.797  52.068  1.00  0.00     0.009 C 
ENDROOT
BRANCH   4   5
HETATM    5  C5  UNL     1      26.307  -0.418  52.857  1.00  0.00    -0.002 C 
HETATM    6  C6  UNL     1      25.553  -0.954  53.794  1.00  0.00    -0.007 C 
BRANCH   6   7
HETATM    7  C7  UNL     1      24.400  -0.263  54.383  1.00  0.00     0.157 C 
BRANCH   7   8
HETATM    8  N1  UNL     1      23.311  -0.031  53.472  1.00  0.00    -0.337 N 
HETATM    9  C8  UNL     1      22.422  -0.954  52.997  1.00  0.00     0.094 A 
HETATM   10  C9  UNL     1      21.573  -0.258  52.164  1.00  0.00     0.036 A 
HETATM   11  C10 UNL     1      21.965   1.062  52.155  1.00  0.00     0.059 A 
HETATM   12  C11 UNL     1      21.466   2.170  51.502  1.00  0.00     0.161 A 
HETATM   13  C19 UNL     1      23.048   1.192  52.974  1.00  0.00     0.163 A 
HETATM   14  N3  UNL     1      22.045   3.374  51.671  1.00  0.00    -0.044 NA
HETATM   15  C18 UNL     1      23.111   3.499  52.476  1.00  0.00     0.724 A 
HETATM   16  N5  UNL     1      23.608   2.406  53.125  1.00  0.00    -0.044 NA
BRANCH  12  17
HETATM   17  N2  UNL     1      20.372   2.157  50.631  1.00  0.00    -0.340 N 
HETATM   18  H10 UNL     1      20.628   2.124  49.631  1.00  0.00     0.167 HD
BRANCH  17  19
HETATM   19  C12 UNL     1      18.992   2.186  50.977  1.00  0.00     0.035 A 
HETATM   20  C13 UNL     1      18.329   3.377  51.207  1.00  0.00     0.029 A 
HETATM   21  C14 UNL     1      16.998   3.433  51.530  1.00  0.00     0.004 A 
HETATM   22  C15 UNL     1      16.284   2.245  51.632  1.00  0.00     0.019 A 
HETATM   23  C16 UNL     1      16.888   0.999  51.413  1.00  0.00     0.013 A 
HETATM   24 BR1  UNL     1      15.933  -0.651  51.540  1.00  0.00    -0.051 Br
HETATM   25  C17 UNL     1      18.225   1.044  51.095  1.00  0.00     0.048 A 
ENDBRANCH  17  19
ENDBRANCH  12  17
BRANCH  15  26
HETATM   26  N4  UNL     1      23.792   4.730  52.716  1.00  0.00    -0.231 N 
HETATM   27  H15 UNL     1      23.516   5.117  53.641  1.00  0.00     0.174 HD
HETATM   28  H16 UNL     1      24.491   5.291  52.154  1.00  0.00     0.174 HD
ENDBRANCH  15  26
ENDBRANCH   7   8
ENDBRANCH   6   7
ENDBRANCH   4   5
TORSDOF 6
ENDMDL
