MODEL 1
REMARK VINA RESULT:      -9.5      0.000      0.000
REMARK  5 active torsions:
REMARK  status: ('A' for Active; 'I' for Inactive)
REMARK    1  A    between atoms: C6_6  and  N1_7 
REMARK    2  A    between atoms: N1_7  and  C7_8 
REMARK    3  A    between atoms: N4_18  and  C15_19 
REMARK    4  A    between atoms: C15_19  and  C16_20 
REMARK    5  A    between atoms: C16_20  and  N5_21 
ROOT
HETATM    1  C7  UNL     1      24.524  -0.318  53.952  1.00  0.00     0.142 A 
HETATM    2  N2  UNL     1      25.031  -0.891  55.063  1.00  0.00    -0.224 NA
HETATM    3  C8  UNL     1      24.203  -1.517  55.914  1.00  0.00     0.236 A 
HETATM    4  N3  UNL     1      22.859  -1.611  55.727  1.00  0.00    -0.241 NA
HETATM    5  C9  UNL     1      22.354  -1.039  54.620  1.00  0.00     0.075 A 
HETATM    6  C10 UNL     1      20.995  -1.079  54.321  1.00  0.00     0.071 A 
HETATM    7  C11 UNL     1      20.524  -0.474  53.150  1.00  0.00     0.098 A 
HETATM    8  C12 UNL     1      21.408   0.158  52.302  1.00  0.00     0.071 A 
HETATM    9  C13 UNL     1      22.764   0.229  52.549  1.00  0.00     0.050 A 
HETATM   10  C14 UNL     1      23.168  -0.388  53.722  1.00  0.00     0.041 A 
HETATM   11  N4  UNL     1      20.852   0.721  51.126  1.00  0.00    -0.312 N 
HETATM   12  C21 UNL     1      19.431   0.580  50.923  1.00  0.00     0.248 A 
HETATM   13  O1  UNL     1      18.861   1.017  49.892  1.00  0.00    -0.271 OA
HETATM   14  C22 UNL     1      18.511  -0.078  51.885  1.00  0.00     0.279 A 
HETATM   15  O2  UNL     1      19.165  -0.611  53.017  1.00  0.00    -0.340 OA
ENDROOT
BRANCH   1  16
HETATM   16  N1  UNL     1      25.553   0.288  53.174  1.00  0.00    -0.340 N 
HETATM   17  H7  UNL     1      25.556   1.194  52.676  1.00  0.00     0.167 HD
BRANCH  16  18
HETATM   18  C6  UNL     1      26.713  -0.532  53.125  1.00  0.00     0.034 A 
HETATM   19  C5  UNL     1      26.740  -1.834  52.701  1.00  0.00     0.029 A 
HETATM   20  C4  UNL     1      27.817  -2.673  52.597  1.00  0.00     0.003 A 
HETATM   21  C3  UNL     1      29.041  -2.116  52.978  1.00  0.00     0.007 A 
HETATM   22  C2  UNL     1      29.072  -0.809  53.414  1.00  0.00    -0.060 A 
HETATM   23  C1  UNL     1      30.464  -0.360  53.769  1.00  0.00     0.048 C 
HETATM   24  C23 UNL     1      27.953  -0.001  53.501  1.00  0.00     0.036 A 
ENDBRANCH  16  18
ENDBRANCH   1  16
BRANCH  11  25
HETATM   25  C15 UNL     1      21.668   1.416  50.140  1.00  0.00     0.162 C 
BRANCH  25  26
HETATM   26  C16 UNL     1      21.547   2.914  50.261  1.00  0.00     0.292 C 
BRANCH  26  27
HETATM   27  N5  UNL     1      22.802   3.510  50.686  1.00  0.00     0.090 N 
HETATM   28  C17 UNL     1      22.912   4.796  50.054  1.00  0.00     0.272 C 
HETATM   29  C18 UNL     1      23.885   4.630  48.917  1.00  0.00     0.032 C 
HETATM   30  C19 UNL     1      24.865   3.643  49.502  1.00  0.00     0.032 C 
HETATM   31  C20 UNL     1      23.940   2.725  50.281  1.00  0.00     0.272 C 
ENDBRANCH  26  27
ENDBRANCH  25  26
ENDBRANCH  11  25
TORSDOF 5
ENDMDL
MODEL 2
REMARK VINA RESULT:      -9.4      2.967      6.245
REMARK  5 active torsions:
REMARK  status: ('A' for Active; 'I' for Inactive)
REMARK    1  A    between atoms: C6_6  and  N1_7 
REMARK    2  A    between atoms: N1_7  and  C7_8 
REMARK    3  A    between atoms: N4_18  and  C15_19 
REMARK    4  A    between atoms: C15_19  and  C16_20 
REMARK    5  A    between atoms: C16_20  and  N5_21 
ROOT
HETATM    1  C7  UNL     1      22.219  -0.459  52.798  1.00  0.00     0.142 A 
HETATM    2  N2  UNL     1      21.168  -1.046  53.407  1.00  0.00    -0.224 NA
HETATM    3  C8  UNL     1      21.331  -1.581  54.627  1.00  0.00     0.236 A 
HETATM    4  N3  UNL     1      22.511  -1.570  55.303  1.00  0.00    -0.241 NA
HETATM    5  C9  UNL     1      23.559  -0.984  54.696  1.00  0.00     0.075 A 
HETATM    6  C10 UNL     1      24.812  -0.907  55.295  1.00  0.00     0.071 A 
HETATM    7  C11 UNL     1      25.866  -0.279  54.621  1.00  0.00     0.098 A 
HETATM    8  C12 UNL     1      25.656   0.258  53.370  1.00  0.00     0.071 A 
HETATM    9  C13 UNL     1      24.435   0.209  52.728  1.00  0.00     0.050 A 
HETATM   10  C14 UNL     1      23.434  -0.425  53.446  1.00  0.00     0.041 A 
HETATM   11  N4  UNL     1      26.769   0.900  52.770  1.00  0.00    -0.312 N 
HETATM   12  C21 UNL     1      28.003   0.935  53.515  1.00  0.00     0.248 A 
HETATM   13  O1  UNL     1      29.028   1.514  53.075  1.00  0.00    -0.271 OA
HETATM   14  C22 UNL     1      28.193   0.310  54.848  1.00  0.00     0.279 A 
HETATM   15  O2  UNL     1      27.024  -0.295  55.359  1.00  0.00    -0.340 OA
ENDROOT
BRANCH   1  16
HETATM   16  N1  UNL     1      21.849   0.052  51.520  1.00  0.00    -0.340 N 
HETATM   17  H7  UNL     1      21.991  -0.357  50.581  1.00  0.00     0.167 HD
BRANCH  16  18
HETATM   18  C6  UNL     1      21.194   1.308  51.637  1.00  0.00     0.034 A 
HETATM   19  C5  UNL     1      19.837   1.489  51.670  1.00  0.00     0.029 A 
HETATM   20  C4  UNL     1      19.138   2.658  51.811  1.00  0.00     0.003 A 
HETATM   21  C3  UNL     1      19.924   3.808  51.934  1.00  0.00     0.007 A 
HETATM   22  C2  UNL     1      21.296   3.684  51.906  1.00  0.00    -0.060 A 
HETATM   23  C1  UNL     1      21.990   5.009  52.066  1.00  0.00     0.048 C 
HETATM   24  C23 UNL     1      21.956   2.477  51.761  1.00  0.00     0.036 A 
ENDBRANCH  16  18
ENDBRANCH   1  16
BRANCH  11  25
HETATM   25  C15 UNL     1      26.690   1.512  51.451  1.00  0.00     0.162 C 
BRANCH  25  26
HETATM   26  C16 UNL     1      26.145   2.917  51.512  1.00  0.00     0.292 C 
BRANCH  26  27
HETATM   27  N5  UNL     1      25.615   3.331  50.224  1.00  0.00     0.090 N 
HETATM   28  C17 UNL     1      26.660   3.175  49.250  1.00  0.00     0.272 C 
HETATM   29  C18 UNL     1      27.198   4.555  48.977  1.00  0.00     0.032 C 
HETATM   30  C19 UNL     1      25.944   5.390  49.070  1.00  0.00     0.032 C 
HETATM   31  C20 UNL     1      25.218   4.716  50.221  1.00  0.00     0.272 C 
ENDBRANCH  26  27
ENDBRANCH  25  26
ENDBRANCH  11  25
TORSDOF 5
ENDMDL
MODEL 3
REMARK VINA RESULT:      -9.3      1.830      2.724
REMARK  5 active torsions:
REMARK  status: ('A' for Active; 'I' for Inactive)
REMARK    1  A    between atoms: C6_6  and  N1_7 
REMARK    2  A    between atoms: N1_7  and  C7_8 
REMARK    3  A    between atoms: N4_18  and  C15_19 
REMARK    4  A    between atoms: C15_19  and  C16_20 
REMARK    5  A    between atoms: C16_20  and  N5_21 
ROOT
HETATM    1  C7  UNL     1      24.161   0.335  53.457  1.00  0.00     0.142 A 
HETATM    2  N2  UNL     1      23.846  -0.495  54.473  1.00  0.00    -0.224 NA
HETATM    3  C8  UNL     1      22.634  -1.073  54.497  1.00  0.00     0.236 A 
HETATM    4  N3  UNL     1      21.684  -0.871  53.545  1.00  0.00    -0.241 NA
HETATM    5  C9  UNL     1      21.998  -0.043  52.532  1.00  0.00     0.075 A 
HETATM    6  C10 UNL     1      21.109   0.232  51.499  1.00  0.00     0.071 A 
HETATM    7  C11 UNL     1      21.491   1.094  50.465  1.00  0.00     0.098 A 
HETATM    8  C12 UNL     1      22.744   1.666  50.478  1.00  0.00     0.071 A 
HETATM    9  C13 UNL     1      23.666   1.431  51.478  1.00  0.00     0.050 A 
HETATM   10  C14 UNL     1      23.229   0.569  52.471  1.00  0.00     0.041 A 
HETATM   11  N4  UNL     1      23.060   2.506  49.380  1.00  0.00    -0.312 N 
HETATM   12  C21 UNL     1      22.056   2.680  48.360  1.00  0.00     0.248 A 
HETATM   13  O1  UNL     1      22.264   3.377  47.335  1.00  0.00    -0.271 OA
HETATM   14  C22 UNL     1      20.703   2.072  48.407  1.00  0.00     0.279 A 
HETATM   15  O2  UNL     1      20.493   1.249  49.535  1.00  0.00    -0.340 OA
ENDROOT
BRANCH   1  16
HETATM   16  N1  UNL     1      25.484   0.842  53.604  1.00  0.00    -0.340 N 
HETATM   17  H7  UNL     1      25.801   1.794  53.854  1.00  0.00     0.167 HD
BRANCH  16  18
HETATM   18  C6  UNL     1      26.454  -0.167  53.356  1.00  0.00     0.034 A 
HETATM   19  C5  UNL     1      26.208  -1.358  52.727  1.00  0.00     0.029 A 
HETATM   20  C4  UNL     1      27.092  -2.360  52.426  1.00  0.00     0.003 A 
HETATM   21  C3  UNL     1      28.412  -2.123  52.818  1.00  0.00     0.007 A 
HETATM   22  C2  UNL     1      28.716  -0.940  53.456  1.00  0.00    -0.060 A 
HETATM   23  C1  UNL     1      30.179  -0.836  53.795  1.00  0.00     0.048 C 
HETATM   24  C23 UNL     1      27.785   0.043  53.738  1.00  0.00     0.036 A 
ENDBRANCH  16  18
ENDBRANCH   1  16
BRANCH  11  25
HETATM   25  C15 UNL     1      24.349   3.174  49.263  1.00  0.00     0.162 C 
BRANCH  25  26
HETATM   26  C16 UNL     1      24.310   4.576  49.815  1.00  0.00     0.292 C 
BRANCH  26  27
HETATM   27  N5  UNL     1      25.649   5.065  50.102  1.00  0.00     0.090 N 
HETATM   28  C17 UNL     1      25.701   6.448  49.717  1.00  0.00     0.272 C 
HETATM   29  C18 UNL     1      26.442   6.498  48.406  1.00  0.00     0.032 C 
HETATM   30  C19 UNL     1      27.465   5.406  48.598  1.00  0.00     0.032 C 
HETATM   31  C20 UNL     1      26.656   4.362  49.348  1.00  0.00     0.272 C 
ENDBRANCH  26  27
ENDBRANCH  25  26
ENDBRANCH  11  25
TORSDOF 5
ENDMDL
MODEL 4
REMARK VINA RESULT:      -9.1      2.086      6.474
REMARK  5 active torsions:
REMARK  status: ('A' for Active; 'I' for Inactive)
REMARK    1  A    between atoms: C6_6  and  N1_7 
REMARK    2  A    between atoms: N1_7  and  C7_8 
REMARK    3  A    between atoms: N4_18  and  C15_19 
REMARK    4  A    between atoms: C15_19  and  C16_20 
REMARK    5  A    between atoms: C16_20  and  N5_21 
ROOT
HETATM    1  C7  UNL     1      24.036   2.732  49.958  1.00  0.00     0.142 A 
HETATM    2  N2  UNL     1      23.485   3.366  48.902  1.00  0.00    -0.224 NA
HETATM    3  C8  UNL     1      22.181   3.190  48.638  1.00  0.00     0.236 A 
HETATM    4  N3  UNL     1      21.363   2.396  49.380  1.00  0.00    -0.241 NA
HETATM    5  C9  UNL     1      21.912   1.764  50.432  1.00  0.00     0.075 A 
HETATM    6  C10 UNL     1      21.170   0.933  51.266  1.00  0.00     0.071 A 
HETATM    7  C11 UNL     1      21.791   0.306  52.353  1.00  0.00     0.098 A 
HETATM    8  C12 UNL     1      23.132   0.515  52.589  1.00  0.00     0.071 A 
HETATM    9  C13 UNL     1      23.916   1.327  51.795  1.00  0.00     0.050 A 
HETATM   10  C14 UNL     1      23.244   1.918  50.737  1.00  0.00     0.041 A 
HETATM   11  N4  UNL     1      23.675  -0.135  53.726  1.00  0.00    -0.312 N 
HETATM   12  C21 UNL     1      22.786  -0.943  54.523  1.00  0.00     0.248 A 
HETATM   13  O1  UNL     1      23.175  -1.526  55.567  1.00  0.00    -0.271 OA
HETATM   14  C22 UNL     1      21.353  -1.170  54.208  1.00  0.00     0.279 A 
HETATM   15  O2  UNL     1      20.911  -0.472  53.063  1.00  0.00    -0.340 OA
ENDROOT
BRANCH   1  16
HETATM   16  N1  UNL     1      25.420   3.048  50.079  1.00  0.00    -0.340 N 
HETATM   17  H7  UNL     1      26.222   2.429  50.287  1.00  0.00     0.167 HD
BRANCH  16  18
HETATM   18  C6  UNL     1      25.653   4.434  49.866  1.00  0.00     0.034 A 
HETATM   19  C5  UNL     1      24.968   5.451  50.477  1.00  0.00     0.029 A 
HETATM   20  C4  UNL     1      25.155   6.802  50.347  1.00  0.00     0.003 A 
HETATM   21  C3  UNL     1      26.181   7.177  49.475  1.00  0.00     0.007 A 
HETATM   22  C2  UNL     1      26.903   6.194  48.833  1.00  0.00    -0.060 A 
HETATM   23  C1  UNL     1      27.977   6.765  47.946  1.00  0.00     0.048 C 
HETATM   24  C23 UNL     1      26.675   4.840  48.998  1.00  0.00     0.036 A 
ENDBRANCH  16  18
ENDBRANCH   1  16
BRANCH  11  25
HETATM   25  C15 UNL     1      25.077  -0.002  54.097  1.00  0.00     0.162 C 
BRANCH  25  26
HETATM   26  C16 UNL     1      25.944  -1.024  53.406  1.00  0.00     0.292 C 
BRANCH  26  27
HETATM   27  N5  UNL     1      27.081  -0.394  52.755  1.00  0.00     0.090 N 
HETATM   28  C17 UNL     1      28.265  -1.098  53.166  1.00  0.00     0.272 C 
HETATM   29  C18 UNL     1      28.938  -0.232  54.199  1.00  0.00     0.032 C 
HETATM   30  C19 UNL     1      28.651   1.150  53.665  1.00  0.00     0.032 C 
HETATM   31  C20 UNL     1      27.233   0.984  53.145  1.00  0.00     0.272 C 
ENDBRANCH  26  27
ENDBRANCH  25  26
ENDBRANCH  11  25
TORSDOF 5
ENDMDL
MODEL 5
REMARK VINA RESULT:      -8.8      1.963      4.986
REMARK  5 active torsions:
REMARK  status: ('A' for Active; 'I' for Inactive)
REMARK    1  A    between atoms: C6_6  and  N1_7 
REMARK    2  A    between atoms: N1_7  and  C7_8 
REMARK    3  A    between atoms: N4_18  and  C15_19 
REMARK    4  A    between atoms: C15_19  and  C16_20 
REMARK    5  A    between atoms: C16_20  and  N5_21 
ROOT
HETATM    1  C7  UNL     1      25.558   2.942  51.541  1.00  0.00     0.142 A 
HETATM    2  N2  UNL     1      26.764   3.159  50.977  1.00  0.00    -0.224 NA
HETATM    3  C8  UNL     1      26.826   3.630  49.721  1.00  0.00     0.236 A 
HETATM    4  N3  UNL     1      25.730   3.906  48.965  1.00  0.00    -0.241 NA
HETATM    5  C9  UNL     1      24.527   3.689  49.528  1.00  0.00     0.075 A 
HETATM    6  C10 UNL     1      23.338   3.942  48.852  1.00  0.00     0.071 A 
HETATM    7  C11 UNL     1      22.114   3.707  49.489  1.00  0.00     0.098 A 
HETATM    8  C12 UNL     1      22.095   3.224  50.779  1.00  0.00     0.071 A 
HETATM    9  C13 UNL     1      23.243   2.953  51.496  1.00  0.00     0.050 A 
HETATM   10  C14 UNL     1      24.421   3.207  50.812  1.00  0.00     0.041 A 
HETATM   11  N4  UNL     1      20.814   3.039  51.358  1.00  0.00    -0.312 N 
HETATM   12  C21 UNL     1      19.663   3.372  50.557  1.00  0.00     0.248 A 
HETATM   13  O1  UNL     1      18.492   3.272  51.003  1.00  0.00    -0.271 OA
HETATM   14  C22 UNL     1      19.731   3.854  49.155  1.00  0.00     0.279 A 
HETATM   15  O2  UNL     1      21.050   4.012  48.676  1.00  0.00    -0.340 OA
ENDROOT
BRANCH   1  16
HETATM   16  N1  UNL     1      25.698   2.451  52.872  1.00  0.00    -0.340 N 
HETATM   17  H7  UNL     1      25.391   2.872  53.765  1.00  0.00     0.167 HD
BRANCH  16  18
HETATM   18  C6  UNL     1      26.363   1.195  52.891  1.00  0.00     0.034 A 
HETATM   19  C5  UNL     1      25.847   0.022  52.408  1.00  0.00     0.029 A 
HETATM   20  C4  UNL     1      26.437  -1.213  52.364  1.00  0.00     0.003 A 
HETATM   21  C3  UNL     1      27.734  -1.269  52.884  1.00  0.00     0.007 A 
HETATM   22  C2  UNL     1      28.302  -0.118  53.384  1.00  0.00    -0.060 A 
HETATM   23  C1  UNL     1      29.702  -0.347  53.888  1.00  0.00     0.048 C 
HETATM   24  C23 UNL     1      27.663   1.109  53.406  1.00  0.00     0.036 A 
ENDBRANCH  16  18
ENDBRANCH   1  16
BRANCH  11  25
HETATM   25  C15 UNL     1      20.644   2.537  52.715  1.00  0.00     0.162 C 
BRANCH  25  26
HETATM   26  C16 UNL     1      20.301   1.069  52.735  1.00  0.00     0.292 C 
BRANCH  26  27
HETATM   27  N5  UNL     1      20.828   0.423  53.926  1.00  0.00     0.090 N 
HETATM   28  C17 UNL     1      22.258   0.371  53.799  1.00  0.00     0.272 C 
HETATM   29  C18 UNL     1      22.601  -1.045  53.416  1.00  0.00     0.032 C 
HETATM   30  C19 UNL     1      21.571  -1.824  54.197  1.00  0.00     0.032 C 
HETATM   31  C20 UNL     1      20.351  -0.929  54.065  1.00  0.00     0.272 C 
ENDBRANCH  26  27
ENDBRANCH  25  26
ENDBRANCH  11  25
TORSDOF 5
ENDMDL
MODEL 6
REMARK VINA RESULT:      -8.8      1.871      2.750
REMARK  5 active torsions:
REMARK  status: ('A' for Active; 'I' for Inactive)
REMARK    1  A    between atoms: C6_6  and  N1_7 
REMARK    2  A    between atoms: N1_7  and  C7_8 
REMARK    3  A    between atoms: N4_18  and  C15_19 
REMARK    4  A    between atoms: C15_19  and  C16_20 
REMARK    5  A    between atoms: C16_20  and  N5_21 
ROOT
HETATM    1  C7  UNL     1      24.439   0.580  52.622  1.00  0.00     0.142 A 
HETATM    2  N2  UNL     1      24.620  -0.451  53.473  1.00  0.00    -0.224 NA
HETATM    3  C8  UNL     1      23.587  -0.879  54.216  1.00  0.00     0.236 A 
HETATM    4  N3  UNL     1      22.345  -0.329  54.166  1.00  0.00    -0.241 NA
HETATM    5  C9  UNL     1      22.163   0.700  53.318  1.00  0.00     0.075 A 
HETATM    6  C10 UNL     1      20.934   1.335  53.178  1.00  0.00     0.071 A 
HETATM    7  C11 UNL     1      20.799   2.395  52.274  1.00  0.00     0.098 A 
HETATM    8  C12 UNL     1      21.885   2.803  51.530  1.00  0.00     0.071 A 
HETATM    9  C13 UNL     1      23.128   2.210  51.629  1.00  0.00     0.050 A 
HETATM   10  C14 UNL     1      23.196   1.168  52.540  1.00  0.00     0.041 A 
HETATM   11  N4  UNL     1      21.655   3.865  50.619  1.00  0.00    -0.312 N 
HETATM   12  C21 UNL     1      20.323   4.412  50.552  1.00  0.00     0.248 A 
HETATM   13  O1  UNL     1      20.022   5.331  49.748  1.00  0.00    -0.271 OA
HETATM   14  C22 UNL     1      19.191   3.965  51.402  1.00  0.00     0.279 A 
HETATM   15  O2  UNL     1      19.522   2.899  52.267  1.00  0.00    -0.340 OA
ENDROOT
BRANCH   1  16
HETATM   16  N1  UNL     1      25.642   0.883  51.922  1.00  0.00    -0.340 N 
HETATM   17  H7  UNL     1      25.772   1.307  50.988  1.00  0.00     0.167 HD
BRANCH  16  18
HETATM   18  C6  UNL     1      26.787   0.522  52.684  1.00  0.00     0.034 A 
HETATM   19  C5  UNL     1      27.381   1.308  53.635  1.00  0.00     0.029 A 
HETATM   20  C4  UNL     1      28.460   1.017  54.426  1.00  0.00     0.003 A 
HETATM   21  C3  UNL     1      29.018  -0.249  54.226  1.00  0.00     0.007 A 
HETATM   22  C2  UNL     1      28.461  -1.082  53.280  1.00  0.00    -0.060 A 
HETATM   23  C1  UNL     1      29.168  -2.408  53.202  1.00  0.00     0.048 C 
HETATM   24  C23 UNL     1      27.367  -0.741  52.504  1.00  0.00     0.036 A 
ENDBRANCH  16  18
ENDBRANCH   1  16
BRANCH  11  25
HETATM   25  C15 UNL     1      22.711   4.396  49.768  1.00  0.00     0.162 C 
BRANCH  25  26
HETATM   26  C16 UNL     1      23.344   5.631  50.358  1.00  0.00     0.292 C 
BRANCH  26  27
HETATM   27  N5  UNL     1      24.759   5.424  50.614  1.00  0.00     0.090 N 
HETATM   28  C17 UNL     1      25.458   6.603  50.180  1.00  0.00     0.272 C 
HETATM   29  C18 UNL     1      26.098   6.258  48.860  1.00  0.00     0.032 C 
HETATM   30  C19 UNL     1      26.477   4.814  49.079  1.00  0.00     0.032 C 
HETATM   31  C20 UNL     1      25.287   4.306  49.874  1.00  0.00     0.272 C 
ENDBRANCH  26  27
ENDBRANCH  25  26
ENDBRANCH  11  25
TORSDOF 5
ENDMDL
MODEL 7
REMARK VINA RESULT:      -8.6      2.590      4.993
REMARK  5 active torsions:
REMARK  status: ('A' for Active; 'I' for Inactive)
REMARK    1  A    between atoms: C6_6  and  N1_7 
REMARK    2  A    between atoms: N1_7  and  C7_8 
REMARK    3  A    between atoms: N4_18  and  C15_19 
REMARK    4  A    between atoms: C15_19  and  C16_20 
REMARK    5  A    between atoms: C16_20  and  N5_21 
ROOT
HETATM    1  C7  UNL     1      26.324   2.350  51.054  1.00  0.00     0.142 A 
HETATM    2  N2  UNL     1      27.483   2.533  51.720  1.00  0.00    -0.224 NA
HETATM    3  C8  UNL     1      27.536   2.260  53.033  1.00  0.00     0.236 A 
HETATM    4  N3  UNL     1      26.475   1.801  53.751  1.00  0.00    -0.241 NA
HETATM    5  C9  UNL     1      25.319   1.619  53.087  1.00  0.00     0.075 A 
HETATM    6  C10 UNL     1      24.172   1.147  53.716  1.00  0.00     0.071 A 
HETATM    7  C11 UNL     1      22.998   0.967  52.974  1.00  0.00     0.098 A 
HETATM    8  C12 UNL     1      22.987   1.259  51.628  1.00  0.00     0.071 A 
HETATM    9  C13 UNL     1      24.095   1.731  50.953  1.00  0.00     0.050 A 
HETATM   10  C14 UNL     1      25.224   1.887  51.741  1.00  0.00     0.041 A 
HETATM   11  N4  UNL     1      21.766   1.023  50.947  1.00  0.00    -0.312 N 
HETATM   12  C21 UNL     1      20.662   0.501  51.715  1.00  0.00     0.248 A 
HETATM   13  O1  UNL     1      19.555   0.229  51.184  1.00  0.00    -0.271 OA
HETATM   14  C22 UNL     1      20.709   0.236  53.174  1.00  0.00     0.279 A 
HETATM   15  O2  UNL     1      21.970   0.496  53.754  1.00  0.00    -0.340 OA
ENDROOT
BRANCH   1  16
HETATM   16  N1  UNL     1      26.467   2.686  49.677  1.00  0.00    -0.340 N 
HETATM   17  H7  UNL     1      26.574   2.068  48.855  1.00  0.00     0.167 HD
BRANCH  16  18
HETATM   18  C6  UNL     1      26.450   4.095  49.486  1.00  0.00     0.034 A 
HETATM   19  C5  UNL     1      25.528   4.952  50.025  1.00  0.00     0.029 A 
HETATM   20  C4  UNL     1      25.465   6.315  49.911  1.00  0.00     0.003 A 
HETATM   21  C3  UNL     1      26.479   6.893  49.143  1.00  0.00     0.007 A 
HETATM   22  C2  UNL     1      27.434   6.078  48.576  1.00  0.00    -0.060 A 
HETATM   23  C1  UNL     1      28.458   6.857  47.797  1.00  0.00     0.048 C 
HETATM   24  C23 UNL     1      27.454   4.702  48.720  1.00  0.00     0.036 A 
ENDBRANCH  16  18
ENDBRANCH   1  16
BRANCH  11  25
HETATM   25  C15 UNL     1      21.611   1.284  49.523  1.00  0.00     0.162 C 
BRANCH  25  26
HETATM   26  C16 UNL     1      20.979   2.628  49.261  1.00  0.00     0.292 C 
BRANCH  26  27
HETATM   27  N5  UNL     1      21.973   3.688  49.272  1.00  0.00     0.090 N 
HETATM   28  C17 UNL     1      21.279   4.936  49.431  1.00  0.00     0.272 C 
HETATM   29  C18 UNL     1      21.249   5.582  48.070  1.00  0.00     0.032 C 
HETATM   30  C19 UNL     1      22.590   5.171  47.513  1.00  0.00     0.032 C 
HETATM   31  C20 UNL     1      22.712   3.751  48.037  1.00  0.00     0.272 C 
ENDBRANCH  26  27
ENDBRANCH  25  26
ENDBRANCH  11  25
TORSDOF 5
ENDMDL
MODEL 8
REMARK VINA RESULT:      -8.6      2.812      6.229
REMARK  5 active torsions:
REMARK  status: ('A' for Active; 'I' for Inactive)
REMARK    1  A    between atoms: C6_6  and  N1_7 
REMARK    2  A    between atoms: N1_7  and  C7_8 
REMARK    3  A    between atoms: N4_18  and  C15_19 
REMARK    4  A    between atoms: C15_19  and  C16_20 
REMARK    5  A    between atoms: C16_20  and  N5_21 
ROOT
HETATM    1  C7  UNL     1      20.955   1.692  51.416  1.00  0.00     0.142 A 
HETATM    2  N2  UNL     1      19.658   1.600  51.776  1.00  0.00    -0.224 NA
HETATM    3  C8  UNL     1      18.946   2.724  51.959  1.00  0.00     0.236 A 
HETATM    4  N3  UNL     1      19.459   3.974  51.803  1.00  0.00    -0.241 NA
HETATM    5  C9  UNL     1      20.753   4.065  51.445  1.00  0.00     0.075 A 
HETATM    6  C10 UNL     1      21.381   5.291  51.250  1.00  0.00     0.071 A 
HETATM    7  C11 UNL     1      22.728   5.328  50.869  1.00  0.00     0.098 A 
HETATM    8  C12 UNL     1      23.421   4.150  50.691  1.00  0.00     0.071 A 
HETATM    9  C13 UNL     1      22.849   2.907  50.872  1.00  0.00     0.050 A 
HETATM   10  C14 UNL     1      21.516   2.938  51.248  1.00  0.00     0.041 A 
HETATM   11  N4  UNL     1      24.772   4.277  50.279  1.00  0.00    -0.312 N 
HETATM   12  C21 UNL     1      25.290   5.609  50.082  1.00  0.00     0.248 A 
HETATM   13  O1  UNL     1      26.465   5.812  49.684  1.00  0.00    -0.271 OA
HETATM   14  C22 UNL     1      24.515   6.851  50.323  1.00  0.00     0.279 A 
HETATM   15  O2  UNL     1      23.181   6.615  50.722  1.00  0.00    -0.340 OA
ENDROOT
BRANCH   1  16
HETATM   16  N1  UNL     1      21.536   0.400  51.265  1.00  0.00    -0.340 N 
HETATM   17  H7  UNL     1      21.779  -0.117  50.403  1.00  0.00     0.167 HD
BRANCH  16  18
HETATM   18  C6  UNL     1      21.789  -0.203  52.528  1.00  0.00     0.034 A 
HETATM   19  C5  UNL     1      20.854  -0.841  53.298  1.00  0.00     0.029 A 
HETATM   20  C4  UNL     1      21.030  -1.469  54.503  1.00  0.00     0.003 A 
HETATM   21  C3  UNL     1      22.336  -1.446  54.999  1.00  0.00     0.007 A 
HETATM   22  C2  UNL     1      23.317  -0.816  54.265  1.00  0.00    -0.060 A 
HETATM   23  C1  UNL     1      24.665  -0.896  54.929  1.00  0.00     0.048 C 
HETATM   24  C23 UNL     1      23.089  -0.195  53.050  1.00  0.00     0.036 A 
ENDBRANCH  16  18
ENDBRANCH   1  16
BRANCH  11  25
HETATM   25  C15 UNL     1      25.624   3.118  50.051  1.00  0.00     0.162 C 
BRANCH  25  26
HETATM   26  C16 UNL     1      26.547   2.858  51.214  1.00  0.00     0.292 C 
BRANCH  26  27
HETATM   27  N5  UNL     1      26.085   1.733  52.010  1.00  0.00     0.090 N 
HETATM   28  C17 UNL     1      26.353   2.036  53.390  1.00  0.00     0.272 C 
HETATM   29  C18 UNL     1      27.572   1.237  53.772  1.00  0.00     0.032 C 
HETATM   30  C19 UNL     1      27.361  -0.030  52.980  1.00  0.00     0.032 C 
HETATM   31  C20 UNL     1      26.783   0.516  51.686  1.00  0.00     0.272 C 
ENDBRANCH  26  27
ENDBRANCH  25  26
ENDBRANCH  11  25
TORSDOF 5
ENDMDL
MODEL 9
REMARK VINA RESULT:      -8.2      2.365      5.391
REMARK  5 active torsions:
REMARK  status: ('A' for Active; 'I' for Inactive)
REMARK    1  A    between atoms: C6_6  and  N1_7 
REMARK    2  A    between atoms: N1_7  and  C7_8 
REMARK    3  A    between atoms: N4_18  and  C15_19 
REMARK    4  A    between atoms: C15_19  and  C16_20 
REMARK    5  A    between atoms: C16_20  and  N5_21 
ROOT
HETATM    1  C7  UNL     1      25.426   2.306  51.156  1.00  0.00     0.142 A 
HETATM    2  N2  UNL     1      26.753   2.518  51.284  1.00  0.00    -0.224 NA
HETATM    3  C8  UNL     1      27.422   1.912  52.278  1.00  0.00     0.236 A 
HETATM    4  N3  UNL     1      26.837   1.081  53.182  1.00  0.00    -0.241 NA
HETATM    5  C9  UNL     1      25.515   0.869  53.055  1.00  0.00     0.075 A 
HETATM    6  C10 UNL     1      24.813   0.034  53.918  1.00  0.00     0.071 A 
HETATM    7  C11 UNL     1      23.439  -0.158  53.734  1.00  0.00     0.098 A 
HETATM    8  C12 UNL     1      22.791   0.484  52.701  1.00  0.00     0.071 A 
HETATM    9  C13 UNL     1      23.436   1.324  51.816  1.00  0.00     0.050 A 
HETATM   10  C14 UNL     1      24.793   1.472  52.051  1.00  0.00     0.041 A 
HETATM   11  N4  UNL     1      21.405   0.213  52.570  1.00  0.00    -0.312 N 
HETATM   12  C21 UNL     1      20.808  -0.698  53.514  1.00  0.00     0.248 A 
HETATM   13  O1  UNL     1      19.595  -1.021  53.449  1.00  0.00    -0.271 OA
HETATM   14  C22 UNL     1      21.540  -1.338  54.636  1.00  0.00     0.279 A 
HETATM   15  O2  UNL     1      22.913  -1.010  54.672  1.00  0.00    -0.340 OA
ENDROOT
BRANCH   1  16
HETATM   16  N1  UNL     1      24.898   3.027  50.047  1.00  0.00    -0.340 N 
HETATM   17  H7  UNL     1      24.601   2.683  49.118  1.00  0.00     0.167 HD
BRANCH  16  18
HETATM   18  C6  UNL     1      24.794   4.415  50.336  1.00  0.00     0.034 A 
HETATM   19  C5  UNL     1      23.913   4.971  51.225  1.00  0.00     0.029 A 
HETATM   20  C4  UNL     1      23.776   6.287  51.577  1.00  0.00     0.003 A 
HETATM   21  C3  UNL     1      24.654   7.166  50.938  1.00  0.00     0.007 A 
HETATM   22  C2  UNL     1      25.562   6.661  50.032  1.00  0.00    -0.060 A 
HETATM   23  C1  UNL     1      26.441   7.734  49.448  1.00  0.00     0.048 C 
HETATM   24  C23 UNL     1      25.662   5.319  49.710  1.00  0.00     0.036 A 
ENDBRANCH  16  18
ENDBRANCH   1  16
BRANCH  11  25
HETATM   25  C15 UNL     1      20.594   0.820  51.522  1.00  0.00     0.162 C 
BRANCH  25  26
HETATM   26  C16 UNL     1      19.877   2.054  52.007  1.00  0.00     0.292 C 
BRANCH  26  27
HETATM   27  N5  UNL     1      20.236   3.217  51.212  1.00  0.00     0.090 N 
HETATM   28  C17 UNL     1      19.040   3.983  50.994  1.00  0.00     0.272 C 
HETATM   29  C18 UNL     1      18.605   3.701  49.579  1.00  0.00     0.032 C 
HETATM   30  C19 UNL     1      19.934   3.576  48.876  1.00  0.00     0.032 C 
HETATM   31  C20 UNL     1      20.763   2.850  49.922  1.00  0.00     0.272 C 
ENDBRANCH  26  27
ENDBRANCH  25  26
ENDBRANCH  11  25
TORSDOF 5
ENDMDL
