MODEL 1
REMARK VINA RESULT:      -8.6      0.000      0.000
REMARK  3 active torsions:
REMARK  status: ('A' for Active; 'I' for Inactive)
REMARK    1  A    between atoms: C2_2  and  C3_4 
REMARK    2  A    between atoms: C13_15  and  C14_16 
REMARK    3  A    between atoms: C14_16  and  O4_18 
ROOT
HETATM    1  C3  UNL     1      23.585   0.765  52.320  1.00  0.00     0.014 C 
HETATM    2  C4  UNL     1      22.986   1.368  51.095  1.00  0.00     0.012 C 
HETATM    3  C5  UNL     1      23.598   2.646  50.533  1.00  0.00    -0.006 C 
HETATM    4  C6  UNL     1      24.704   3.598  51.164  1.00  0.00     0.065 A 
HETATM    5  C7  UNL     1      24.394   3.635  52.485  1.00  0.00     0.159 A 
HETATM    6  O2  UNL     1      23.602   4.259  53.280  1.00  0.00    -0.295 OA
HETATM    7  C8  UNL     1      25.450   2.693  52.172  1.00  0.00     0.082 A 
HETATM    8  C9  UNL     1      25.005   1.278  52.698  1.00  0.00    -0.037 C 
HETATM    9  C10 UNL     1      25.806   0.367  53.448  1.00  0.00     0.046 C 
HETATM   10  C11 UNL     1      26.326   0.783  54.774  1.00  0.00     0.018 C 
HETATM   11  C12 UNL     1      27.717   0.188  54.730  1.00  0.00     0.046 C 
HETATM   12  C13 UNL     1      27.762  -0.769  53.608  1.00  0.00     0.018 C 
HETATM   13  C15 UNL     1      26.657  -0.674  52.856  1.00  0.00    -0.063 C 
HETATM   14  C16 UNL     1      26.401  -1.502  51.672  1.00  0.00     0.045 C 
HETATM   15  C17 UNL     1      26.466   1.991  51.257  1.00  0.00    -0.007 C 
HETATM   16  C18 UNL     1      26.404   2.532  49.926  1.00  0.00    -0.028 C 
HETATM   17  C19 UNL     1      25.428   3.790  49.871  1.00  0.00     0.050 C 
ENDROOT
BRANCH   1  18
HETATM   18  C2  UNL     1      22.921  -0.191  53.072  1.00  0.00     0.155 C 
HETATM   19  C1  UNL     1      21.929   0.165  54.077  1.00  0.00     0.097 C 
HETATM   20  O1  UNL     1      22.872  -1.409  53.206  1.00  0.00    -0.293 OA
ENDBRANCH   1  18
BRANCH  12  21
HETATM   21  C14 UNL     1      28.854  -1.674  53.368  1.00  0.00     0.172 C 
HETATM   22  O3  UNL     1      30.044  -1.331  53.148  1.00  0.00    -0.646 OA
BRANCH  21  23
HETATM   23  O4  UNL     1      28.721  -3.037  53.351  1.00  0.00    -0.773 OA
HETATM   24  H11 UNL     1      28.718  -3.663  54.138  1.00  0.00     0.167 HD
ENDBRANCH  21  23
ENDBRANCH  12  21
TORSDOF 3
ENDMDL
MODEL 2
REMARK VINA RESULT:      -7.4      2.622      6.407
REMARK  3 active torsions:
REMARK  status: ('A' for Active; 'I' for Inactive)
REMARK    1  A    between atoms: C2_2  and  C3_4 
REMARK    2  A    between atoms: C13_15  and  C14_16 
REMARK    3  A    between atoms: C14_16  and  O4_18 
ROOT
HETATM    1  C3  UNL     1      25.701   2.499  50.851  1.00  0.00     0.014 C 
HETATM    2  C4  UNL     1      26.457   1.214  50.831  1.00  0.00     0.012 C 
HETATM    3  C5  UNL     1      26.512   0.376  52.104  1.00  0.00    -0.006 C 
HETATM    4  C6  UNL     1      26.035   0.744  53.576  1.00  0.00     0.065 A 
HETATM    5  C7  UNL     1      26.388   2.046  53.722  1.00  0.00     0.159 A 
HETATM    6  O2  UNL     1      27.420   2.745  54.031  1.00  0.00    -0.295 OA
HETATM    7  C8  UNL     1      24.994   1.869  53.365  1.00  0.00     0.082 A 
HETATM    8  C9  UNL     1      24.726   2.689  52.048  1.00  0.00    -0.037 C 
HETATM    9  C10 UNL     1      23.622   3.559  51.808  1.00  0.00     0.046 C 
HETATM   10  C11 UNL     1      23.432   4.745  52.679  1.00  0.00     0.018 C 
HETATM   11  C12 UNL     1      21.926   4.743  52.832  1.00  0.00     0.046 C 
HETATM   12  C13 UNL     1      21.370   3.832  51.813  1.00  0.00     0.018 C 
HETATM   13  C15 UNL     1      22.346   3.139  51.211  1.00  0.00    -0.063 C 
HETATM   14  C16 UNL     1      22.113   2.159  50.144  1.00  0.00     0.045 C 
HETATM   15  C17 UNL     1      23.722   1.056  53.073  1.00  0.00    -0.007 C 
HETATM   16  C18 UNL     1      23.974  -0.350  53.238  1.00  0.00    -0.028 C 
HETATM   17  C19 UNL     1      25.432  -0.599  53.829  1.00  0.00     0.050 C 
ENDROOT
BRANCH   1  18
HETATM   18  C2  UNL     1      25.856   3.461  49.866  1.00  0.00     0.155 C 
HETATM   19  C1  UNL     1      27.169   3.886  49.398  1.00  0.00     0.097 C 
HETATM   20  O1  UNL     1      25.175   4.185  49.147  1.00  0.00    -0.293 OA
ENDBRANCH   1  18
BRANCH  12  21
HETATM   21  C14 UNL     1      19.967   3.717  51.520  1.00  0.00     0.172 C 
HETATM   22  O3  UNL     1      19.132   3.083  52.215  1.00  0.00    -0.646 OA
BRANCH  21  23
HETATM   23  O4  UNL     1      19.369   4.295  50.431  1.00  0.00    -0.773 OA
HETATM   24  H11 UNL     1      19.384   3.969  49.480  1.00  0.00     0.167 HD
ENDBRANCH  21  23
ENDBRANCH  12  21
TORSDOF 3
ENDMDL
MODEL 3
REMARK VINA RESULT:      -7.3      2.690      5.186
REMARK  3 active torsions:
REMARK  status: ('A' for Active; 'I' for Inactive)
REMARK    1  A    between atoms: C2_2  and  C3_4 
REMARK    2  A    between atoms: C13_15  and  C14_16 
REMARK    3  A    between atoms: C14_16  and  O4_18 
ROOT
HETATM    1  C3  UNL     1      22.621   4.447  50.138  1.00  0.00     0.014 C 
HETATM    2  C4  UNL     1      21.136   4.324  50.102  1.00  0.00     0.012 C 
HETATM    3  C5  UNL     1      20.521   2.967  49.776  1.00  0.00    -0.006 C 
HETATM    4  C6  UNL     1      21.225   1.638  49.259  1.00  0.00     0.065 A 
HETATM    5  C7  UNL     1      22.159   2.079  48.379  1.00  0.00     0.159 A 
HETATM    6  O2  UNL     1      22.243   2.435  47.149  1.00  0.00    -0.295 OA
HETATM    7  C8  UNL     1      22.701   1.799  49.694  1.00  0.00     0.082 A 
HETATM    8  C9  UNL     1      23.408   3.106  50.212  1.00  0.00    -0.037 C 
HETATM    9  C10 UNL     1      24.697   3.185  50.815  1.00  0.00     0.046 C 
HETATM   10  C11 UNL     1      25.887   2.755  50.039  1.00  0.00     0.018 C 
HETATM   11  C12 UNL     1      26.686   2.051  51.114  1.00  0.00     0.046 C 
HETATM   12  C13 UNL     1      26.104   2.417  52.420  1.00  0.00     0.018 C 
HETATM   13  C15 UNL     1      24.949   3.076  52.259  1.00  0.00    -0.063 C 
HETATM   14  C16 UNL     1      24.136   3.582  53.371  1.00  0.00     0.045 C 
HETATM   15  C17 UNL     1      22.647   1.298  51.147  1.00  0.00    -0.007 C 
HETATM   16  C18 UNL     1      21.340   0.783  51.453  1.00  0.00    -0.028 C 
HETATM   17  C19 UNL     1      20.426   0.743  50.150  1.00  0.00     0.050 C 
ENDROOT
BRANCH   1  18
HETATM   18  C2  UNL     1      23.260   5.677  50.110  1.00  0.00     0.155 C 
HETATM   19  C1  UNL     1      23.806   6.238  48.882  1.00  0.00     0.097 C 
HETATM   20  O1  UNL     1      23.571   6.588  50.869  1.00  0.00    -0.293 OA
ENDBRANCH   1  18
BRANCH  12  21
HETATM   21  C14 UNL     1      26.710   2.099  53.685  1.00  0.00     0.172 C 
HETATM   22  O3  UNL     1      26.342   1.172  54.452  1.00  0.00    -0.646 OA
BRANCH  21  23
HETATM   23  O4  UNL     1      27.775   2.782  54.209  1.00  0.00    -0.773 OA
HETATM   24  H11 UNL     1      27.755   3.509  54.903  1.00  0.00     0.167 HD
ENDBRANCH  21  23
ENDBRANCH  12  21
TORSDOF 3
ENDMDL
MODEL 4
REMARK VINA RESULT:      -7.3      3.114      4.608
REMARK  3 active torsions:
REMARK  status: ('A' for Active; 'I' for Inactive)
REMARK    1  A    between atoms: C2_2  and  C3_4 
REMARK    2  A    between atoms: C13_15  and  C14_16 
REMARK    3  A    between atoms: C14_16  and  O4_18 
ROOT
HETATM    1  C3  UNL     1      22.611   3.659  48.832  1.00  0.00     0.014 C 
HETATM    2  C4  UNL     1      22.355   4.944  48.120  1.00  0.00     0.012 C 
HETATM    3  C5  UNL     1      22.125   6.206  48.946  1.00  0.00    -0.006 C 
HETATM    4  C6  UNL     1      21.916   6.361  50.514  1.00  0.00     0.065 A 
HETATM    5  C7  UNL     1      21.144   5.298  50.852  1.00  0.00     0.159 A 
HETATM    6  O2  UNL     1      19.905   4.960  50.860  1.00  0.00    -0.295 OA
HETATM    7  C8  UNL     1      22.554   5.084  51.109  1.00  0.00     0.082 A 
HETATM    8  C9  UNL     1      22.993   3.785  50.335  1.00  0.00    -0.037 C 
HETATM    9  C10 UNL     1      23.777   2.716  50.859  1.00  0.00     0.046 C 
HETATM   10  C11 UNL     1      23.267   1.946  52.021  1.00  0.00     0.018 C 
HETATM   11  C12 UNL     1      24.542   1.751  52.812  1.00  0.00     0.046 C 
HETATM   12  C13 UNL     1      25.676   2.088  51.929  1.00  0.00     0.018 C 
HETATM   13  C15 UNL     1      25.244   2.649  50.791  1.00  0.00    -0.063 C 
HETATM   14  C16 UNL     1      26.131   3.084  49.707  1.00  0.00     0.045 C 
HETATM   15  C17 UNL     1      24.034   5.491  51.188  1.00  0.00    -0.007 C 
HETATM   16  C18 UNL     1      24.197   6.872  50.822  1.00  0.00    -0.028 C 
HETATM   17  C19 UNL     1      22.782   7.574  50.616  1.00  0.00     0.050 C 
ENDROOT
BRANCH   1  18
HETATM   18  C2  UNL     1      22.516   2.432  48.194  1.00  0.00     0.155 C 
HETATM   19  C1  UNL     1      21.557   1.417  48.608  1.00  0.00     0.097 C 
HETATM   20  O1  UNL     1      23.034   1.814  47.271  1.00  0.00    -0.293 OA
ENDBRANCH   1  18
BRANCH  12  21
HETATM   21  C14 UNL     1      27.053   1.840  52.263  1.00  0.00     0.172 C 
HETATM   22  O3  UNL     1      27.559   0.705  52.456  1.00  0.00    -0.646 OA
BRANCH  21  23
HETATM   23  O4  UNL     1      27.988   2.831  52.412  1.00  0.00    -0.773 OA
HETATM   24  H11 UNL     1      27.875   3.714  52.877  1.00  0.00     0.167 HD
ENDBRANCH  21  23
ENDBRANCH  12  21
TORSDOF 3
ENDMDL
MODEL 5
REMARK VINA RESULT:      -7.3      3.223      5.956
REMARK  3 active torsions:
REMARK  status: ('A' for Active; 'I' for Inactive)
REMARK    1  A    between atoms: C2_2  and  C3_4 
REMARK    2  A    between atoms: C13_15  and  C14_16 
REMARK    3  A    between atoms: C14_16  and  O4_18 
ROOT
HETATM    1  C3  UNL     1      23.749   2.579  51.636  1.00  0.00     0.014 C 
HETATM    2  C4  UNL     1      23.119   1.295  51.217  1.00  0.00     0.012 C 
HETATM    3  C5  UNL     1      21.974   1.336  50.210  1.00  0.00    -0.006 C 
HETATM    4  C6  UNL     1      21.172   2.587  49.643  1.00  0.00     0.065 A 
HETATM    5  C7  UNL     1      21.030   3.403  50.718  1.00  0.00     0.159 A 
HETATM    6  O2  UNL     1      20.258   3.545  51.734  1.00  0.00    -0.295 OA
HETATM    7  C8  UNL     1      22.134   3.779  49.857  1.00  0.00     0.082 A 
HETATM    8  C9  UNL     1      23.440   3.809  50.735  1.00  0.00    -0.037 C 
HETATM    9  C10 UNL     1      24.427   4.838  50.743  1.00  0.00     0.046 C 
HETATM   10  C11 UNL     1      24.035   6.213  51.140  1.00  0.00     0.018 C 
HETATM   11  C12 UNL     1      24.835   7.031  50.150  1.00  0.00     0.046 C 
HETATM   12  C13 UNL     1      25.837   6.140  49.535  1.00  0.00     0.018 C 
HETATM   13  C15 UNL     1      25.610   4.863  49.872  1.00  0.00    -0.063 C 
HETATM   14  C16 UNL     1      26.443   3.740  49.426  1.00  0.00     0.045 C 
HETATM   15  C17 UNL     1      23.022   3.683  48.606  1.00  0.00    -0.007 C 
HETATM   16  C18 UNL     1      22.537   2.658  47.722  1.00  0.00    -0.028 C 
HETATM   17  C19 UNL     1      21.150   2.071  48.241  1.00  0.00     0.050 C 
ENDROOT
BRANCH   1  18
HETATM   18  C2  UNL     1      24.559   2.670  52.757  1.00  0.00     0.155 C 
HETATM   19  C1  UNL     1      25.812   1.935  52.870  1.00  0.00     0.097 C 
HETATM   20  O1  UNL     1      24.594   3.235  53.845  1.00  0.00    -0.293 OA
ENDBRANCH   1  18
BRANCH  12  21
HETATM   21  C14 UNL     1      26.907   6.598  48.689  1.00  0.00     0.172 C 
HETATM   22  O3  UNL     1      26.757   7.171  47.579  1.00  0.00    -0.646 OA
BRANCH  21  23
HETATM   23  O4  UNL     1      28.233   6.459  49.000  1.00  0.00    -0.773 OA
HETATM   24  H11 UNL     1      28.629   6.159  49.874  1.00  0.00     0.167 HD
ENDBRANCH  21  23
ENDBRANCH  12  21
TORSDOF 3
ENDMDL
MODEL 6
REMARK VINA RESULT:      -7.1      7.060      9.566
REMARK  3 active torsions:
REMARK  status: ('A' for Active; 'I' for Inactive)
REMARK    1  A    between atoms: C2_2  and  C3_4 
REMARK    2  A    between atoms: C13_15  and  C14_16 
REMARK    3  A    between atoms: C14_16  and  O4_18 
ROOT
HETATM    1  C3  UNL     1      29.171   8.898  49.029  1.00  0.00     0.014 C 
HETATM    2  C4  UNL     1      27.900   8.840  49.804  1.00  0.00     0.012 C 
HETATM    3  C5  UNL     1      26.776   7.939  49.302  1.00  0.00    -0.006 C 
HETATM    4  C6  UNL     1      26.651   7.155  47.924  1.00  0.00     0.065 A 
HETATM    5  C7  UNL     1      27.160   8.015  47.007  1.00  0.00     0.159 A 
HETATM    6  O2  UNL     1      26.784   9.024  46.306  1.00  0.00    -0.295 OA
HETATM    7  C8  UNL     1      28.112   7.011  47.438  1.00  0.00     0.082 A 
HETATM    8  C9  UNL     1      29.382   7.758  47.992  1.00  0.00    -0.037 C 
HETATM    9  C10 UNL     1      30.740   7.451  47.686  1.00  0.00     0.046 C 
HETATM   10  C11 UNL     1      31.204   7.542  46.279  1.00  0.00     0.018 C 
HETATM   11  C12 UNL     1      32.108   6.331  46.201  1.00  0.00     0.046 C 
HETATM   12  C13 UNL     1      32.363   5.870  47.580  1.00  0.00     0.018 C 
HETATM   13  C15 UNL     1      31.575   6.514  48.451  1.00  0.00    -0.063 C 
HETATM   14  C16 UNL     1      31.600   6.285  49.900  1.00  0.00     0.045 C 
HETATM   15  C17 UNL     1      28.565   5.755  48.201  1.00  0.00    -0.007 C 
HETATM   16  C18 UNL     1      27.461   5.176  48.917  1.00  0.00    -0.028 C 
HETATM   17  C19 UNL     1      26.099   5.919  48.557  1.00  0.00     0.050 C 
ENDROOT
BRANCH   1  18
HETATM   18  C2  UNL     1      30.107   9.903  49.221  1.00  0.00     0.155 C 
HETATM   19  C1  UNL     1      30.169  11.078  48.363  1.00  0.00     0.097 C 
HETATM   20  O1  UNL     1      31.035  10.188  49.971  1.00  0.00    -0.293 OA
ENDBRANCH   1  18
BRANCH  12  21
HETATM   21  C14 UNL     1      33.332   4.863  47.923  1.00  0.00     0.172 C 
HETATM   22  O3  UNL     1      34.576   5.043  47.973  1.00  0.00    -0.646 OA
BRANCH  21  23
HETATM   23  O4  UNL     1      33.004   3.571  48.238  1.00  0.00    -0.773 OA
HETATM   24  H11 UNL     1      32.094   3.146  48.208  1.00  0.00     0.167 HD
ENDBRANCH  21  23
ENDBRANCH  12  21
TORSDOF 3
ENDMDL
MODEL 7
REMARK VINA RESULT:      -7.1      2.250      4.646
REMARK  3 active torsions:
REMARK  status: ('A' for Active; 'I' for Inactive)
REMARK    1  A    between atoms: C2_2  and  C3_4 
REMARK    2  A    between atoms: C13_15  and  C14_16 
REMARK    3  A    between atoms: C14_16  and  O4_18 
ROOT
HETATM    1  C3  UNL     1      22.548   3.397  51.514  1.00  0.00     0.014 C 
HETATM    2  C4  UNL     1      21.136   3.308  51.982  1.00  0.00     0.012 C 
HETATM    3  C5  UNL     1      20.500   1.929  52.134  1.00  0.00    -0.006 C 
HETATM    4  C6  UNL     1      21.051   0.508  51.679  1.00  0.00     0.065 A 
HETATM    5  C7  UNL     1      21.635   0.749  50.478  1.00  0.00     0.159 A 
HETATM    6  O2  UNL     1      21.306   0.862  49.242  1.00  0.00    -0.295 OA
HETATM    7  C8  UNL     1      22.581   0.712  51.576  1.00  0.00     0.082 A 
HETATM    8  C9  UNL     1      23.367   2.076  51.582  1.00  0.00    -0.037 C 
HETATM    9  C10 UNL     1      24.778   2.234  51.710  1.00  0.00     0.046 C 
HETATM   10  C11 UNL     1      25.670   1.635  50.687  1.00  0.00     0.018 C 
HETATM   11  C12 UNL     1      26.798   1.128  51.560  1.00  0.00     0.046 C 
HETATM   12  C13 UNL     1      26.654   1.751  52.890  1.00  0.00     0.018 C 
HETATM   13  C15 UNL     1      25.484   2.397  52.989  1.00  0.00    -0.063 C 
HETATM   14  C16 UNL     1      25.053   3.127  54.187  1.00  0.00     0.045 C 
HETATM   15  C17 UNL     1      23.015   0.499  53.035  1.00  0.00    -0.007 C 
HETATM   16  C18 UNL     1      21.897   0.086  53.839  1.00  0.00    -0.028 C 
HETATM   17  C19 UNL     1      20.614  -0.179  52.932  1.00  0.00     0.050 C 
ENDROOT
BRANCH   1  18
HETATM   18  C2  UNL     1      23.097   4.582  51.049  1.00  0.00     0.155 C 
HETATM   19  C1  UNL     1      23.200   4.884  49.628  1.00  0.00     0.097 C 
HETATM   20  O1  UNL     1      23.600   5.614  51.481  1.00  0.00    -0.293 OA
ENDBRANCH   1  18
BRANCH  12  21
HETATM   21  C14 UNL     1      27.646   1.665  53.928  1.00  0.00     0.172 C 
HETATM   22  O3  UNL     1      27.760   0.714  54.744  1.00  0.00    -0.646 OA
BRANCH  21  23
HETATM   23  O4  UNL     1      28.595   2.627  54.152  1.00  0.00    -0.773 OA
HETATM   24  H11 UNL     1      29.369   2.873  53.559  1.00  0.00     0.167 HD
ENDBRANCH  21  23
ENDBRANCH  12  21
TORSDOF 3
ENDMDL
MODEL 8
REMARK VINA RESULT:      -6.9      3.151      5.515
REMARK  3 active torsions:
REMARK  status: ('A' for Active; 'I' for Inactive)
REMARK    1  A    between atoms: C2_2  and  C3_4 
REMARK    2  A    between atoms: C13_15  and  C14_16 
REMARK    3  A    between atoms: C14_16  and  O4_18 
ROOT
HETATM    1  C3  UNL     1      22.995   5.970  49.147  1.00  0.00     0.014 C 
HETATM    2  C4  UNL     1      23.614   6.474  47.888  1.00  0.00     0.012 C 
HETATM    3  C5  UNL     1      25.092   6.852  47.899  1.00  0.00    -0.006 C 
HETATM    4  C6  UNL     1      26.091   6.984  49.129  1.00  0.00     0.065 A 
HETATM    5  C7  UNL     1      25.339   7.551  50.106  1.00  0.00     0.159 A 
HETATM    6  O2  UNL     1      24.947   8.716  50.478  1.00  0.00    -0.295 OA
HETATM    7  C8  UNL     1      25.447   6.111  50.233  1.00  0.00     0.082 A 
HETATM    8  C9  UNL     1      23.989   5.518  50.254  1.00  0.00    -0.037 C 
HETATM    9  C10 UNL     1      23.491   4.540  51.164  1.00  0.00     0.046 C 
HETATM   10  C11 UNL     1      23.473   4.845  52.616  1.00  0.00     0.018 C 
HETATM   11  C12 UNL     1      23.888   3.507  53.190  1.00  0.00     0.046 C 
HETATM   12  C13 UNL     1      23.771   2.501  52.117  1.00  0.00     0.018 C 
HETATM   13  C15 UNL     1      23.540   3.089  50.935  1.00  0.00    -0.063 C 
HETATM   14  C16 UNL     1      23.365   2.355  49.677  1.00  0.00     0.045 C 
HETATM   15  C17 UNL     1      25.969   4.714  49.859  1.00  0.00    -0.007 C 
HETATM   16  C18 UNL     1      26.904   4.800  48.771  1.00  0.00    -0.028 C 
HETATM   17  C19 UNL     1      27.223   6.320  48.416  1.00  0.00     0.050 C 
ENDROOT
BRANCH   1  18
HETATM   18  C2  UNL     1      21.621   5.906  49.318  1.00  0.00     0.155 C 
HETATM   19  C1  UNL     1      20.874   6.960  49.991  1.00  0.00     0.097 C 
HETATM   20  O1  UNL     1      20.679   5.163  49.064  1.00  0.00    -0.293 OA
ENDBRANCH   1  18
BRANCH  12  21
HETATM   21  C14 UNL     1      23.892   1.084  52.330  1.00  0.00     0.172 C 
HETATM   22  O3  UNL     1      24.974   0.442  52.331  1.00  0.00    -0.646 OA
BRANCH  21  23
HETATM   23  O4  UNL     1      22.824   0.256  52.557  1.00  0.00    -0.773 OA
HETATM   24  H11 UNL     1      22.420  -0.410  51.923  1.00  0.00     0.167 HD
ENDBRANCH  21  23
ENDBRANCH  12  21
TORSDOF 3
ENDMDL
MODEL 9
REMARK VINA RESULT:      -6.7      3.908      6.847
REMARK  3 active torsions:
REMARK  status: ('A' for Active; 'I' for Inactive)
REMARK    1  A    between atoms: C2_2  and  C3_4 
REMARK    2  A    between atoms: C13_15  and  C14_16 
REMARK    3  A    between atoms: C14_16  and  O4_18 
ROOT
HETATM    1  C3  UNL     1      23.166   3.559  49.461  1.00  0.00     0.014 C 
HETATM    2  C4  UNL     1      24.612   3.282  49.692  1.00  0.00     0.012 C 
HETATM    3  C5  UNL     1      25.113   3.154  51.127  1.00  0.00    -0.006 C 
HETATM    4  C6  UNL     1      24.357   3.465  52.491  1.00  0.00     0.065 A 
HETATM    5  C7  UNL     1      23.640   4.586  52.224  1.00  0.00     0.159 A 
HETATM    6  O2  UNL     1      23.805   5.859  52.186  1.00  0.00    -0.295 OA
HETATM    7  C8  UNL     1      22.858   3.370  52.122  1.00  0.00     0.082 A 
HETATM    8  C9  UNL     1      22.229   3.321  50.680  1.00  0.00    -0.037 C 
HETATM    9  C10 UNL     1      20.875   3.011  50.362  1.00  0.00     0.046 C 
HETATM   10  C11 UNL     1      19.791   3.876  50.890  1.00  0.00     0.018 C 
HETATM   11  C12 UNL     1      18.748   2.837  51.241  1.00  0.00     0.046 C 
HETATM   12  C13 UNL     1      19.140   1.568  50.597  1.00  0.00     0.018 C 
HETATM   13  C15 UNL     1      20.375   1.657  50.082  1.00  0.00    -0.063 C 
HETATM   14  C16 UNL     1      21.043   0.564  49.369  1.00  0.00     0.045 C 
HETATM   15  C17 UNL     1      22.610   1.858  52.241  1.00  0.00    -0.007 C 
HETATM   16  C18 UNL     1      23.779   1.194  52.751  1.00  0.00    -0.028 C 
HETATM   17  C19 UNL     1      24.888   2.253  53.184  1.00  0.00     0.050 C 
ENDROOT
BRANCH   1  18
HETATM   18  C2  UNL     1      22.687   3.999  48.237  1.00  0.00     0.155 C 
HETATM   19  C1  UNL     1      22.590   5.414  47.905  1.00  0.00     0.097 C 
HETATM   20  O1  UNL     1      22.251   3.546  47.183  1.00  0.00    -0.293 OA
ENDBRANCH   1  18
BRANCH  12  21
HETATM   21  C14 UNL     1      18.299   0.403  50.540  1.00  0.00     0.172 C 
HETATM   22  O3  UNL     1      18.226  -0.482  51.431  1.00  0.00    -0.646 OA
BRANCH  21  23
HETATM   23  O4  UNL     1      17.466   0.119  49.490  1.00  0.00    -0.773 OA
HETATM   24  H11 UNL     1      17.283  -0.780  49.079  1.00  0.00     0.167 HD
ENDBRANCH  21  23
ENDBRANCH  12  21
TORSDOF 3
ENDMDL
