MODEL 1
REMARK VINA RESULT:      -8.4      0.000      0.000
REMARK  4 active torsions:
REMARK  status: ('A' for Active; 'I' for Inactive)
REMARK    1  A    between atoms: C1_2  and  C2_3 
REMARK       I    between atoms: C1_2  and  N1_6 
REMARK    2  A    between atoms: N1_6  and  C4_7 
REMARK    3  A    between atoms: C7_10  and  N2_11 
REMARK    4  A    between atoms: N2_11  and  C8_12 
ROOT
HETATM    1  C2  UNL     1      28.650   1.134  54.070  1.00  0.00     0.086 C 
HETATM    2  C3  UNL     1      29.429   0.080  53.917  1.00  0.00     0.223 C 
HETATM    3 CL1  UNL     1      30.278  -1.438  53.734  1.00  0.00    -0.230 Cl
ENDROOT
BRANCH   1   4
HETATM    4  C1  UNL     1      27.220   0.962  54.249  1.00  0.00     0.247 C 
HETATM    5  O1  UNL     1      26.579   2.023  54.439  1.00  0.00    -0.268 OA
HETATM    6  N1  UNL     1      26.654  -0.339  54.202  1.00  0.00    -0.308 N 
HETATM    7  H3  UNL     1      27.236  -1.179  54.041  1.00  0.00     0.170 HD
BRANCH   6   8
HETATM    8  C4  UNL     1      25.263  -0.591  54.368  1.00  0.00     0.131 A 
HETATM    9  C5  UNL     1      24.332  -0.162  53.447  1.00  0.00     0.068 A 
HETATM   10  C6  UNL     1      22.975  -0.367  53.537  1.00  0.00     0.044 A 
HETATM   11  C7  UNL     1      22.052   0.063  52.615  1.00  0.00     0.142 A 
HETATM   12  C15 UNL     1      22.604  -1.055  54.654  1.00  0.00     0.089 A 
HETATM   13  N3  UNL     1      20.804  -0.251  52.916  1.00  0.00    -0.224 NA
HETATM   14  C14 UNL     1      20.363  -0.914  53.979  1.00  0.00     0.236 A 
HETATM   15  N4  UNL     1      21.292  -1.320  54.860  1.00  0.00    -0.240 NA
HETATM   16  C16 UNL     1      23.529  -1.485  55.579  1.00  0.00     0.151 A 
HETATM   17  N5  UNL     1      24.839  -1.265  55.452  1.00  0.00    -0.241 NA
BRANCH  11  18
HETATM   18  N2  UNL     1      22.493   0.772  51.473  1.00  0.00    -0.340 N 
HETATM   19  H5  UNL     1      22.555   0.320  50.544  1.00  0.00     0.167 HD
BRANCH  18  20
HETATM   20  C8  UNL     1      22.913   2.121  51.334  1.00  0.00     0.033 A 
HETATM   21  C9  UNL     1      23.745   2.621  50.364  1.00  0.00     0.029 A 
HETATM   22  C10 UNL     1      24.119   3.936  50.276  1.00  0.00     0.002 A 
HETATM   23  C11 UNL     1      23.665   4.859  51.185  1.00  0.00     0.000 A 
HETATM   24  C12 UNL     1      22.825   4.404  52.179  1.00  0.00     0.002 A 
HETATM   25  C13 UNL     1      22.475   3.073  52.230  1.00  0.00     0.029 A 
ENDBRANCH  18  20
ENDBRANCH  11  18
ENDBRANCH   6   8
ENDBRANCH   1   4
TORSDOF 4
ENDMDL
MODEL 2
REMARK VINA RESULT:      -8.1      3.051      6.104
REMARK  4 active torsions:
REMARK  status: ('A' for Active; 'I' for Inactive)
REMARK    1  A    between atoms: C1_2  and  C2_3 
REMARK       I    between atoms: C1_2  and  N1_6 
REMARK    2  A    between atoms: N1_6  and  C4_7 
REMARK    3  A    between atoms: C7_10  and  N2_11 
REMARK    4  A    between atoms: N2_11  and  C8_12 
ROOT
HETATM    1  C2  UNL     1      26.304   6.392  48.931  1.00  0.00     0.086 C 
HETATM    2  C3  UNL     1      27.506   5.994  48.560  1.00  0.00     0.223 C 
HETATM    3 CL1  UNL     1      29.052   5.276  48.169  1.00  0.00    -0.230 Cl
ENDROOT
BRANCH   1   4
HETATM    4  C1  UNL     1      25.440   5.497  49.679  1.00  0.00     0.247 C 
HETATM    5  O1  UNL     1      24.731   6.052  50.551  1.00  0.00    -0.268 OA
HETATM    6  N1  UNL     1      25.447   4.106  49.393  1.00  0.00    -0.308 N 
HETATM    7  H3  UNL     1      26.056   3.705  48.658  1.00  0.00     0.170 HD
BRANCH   6   8
HETATM    8  C4  UNL     1      24.631   3.165  50.081  1.00  0.00     0.131 A 
HETATM    9  C5  UNL     1      25.084   2.483  51.189  1.00  0.00     0.068 A 
HETATM   10  C6  UNL     1      24.356   1.561  51.906  1.00  0.00     0.044 A 
HETATM   11  C7  UNL     1      24.814   0.885  53.010  1.00  0.00     0.142 A 
HETATM   12  C15 UNL     1      23.099   1.365  51.417  1.00  0.00     0.089 A 
HETATM   13  N3  UNL     1      23.934   0.048  53.532  1.00  0.00    -0.224 NA
HETATM   14  C14 UNL     1      22.697  -0.198  53.116  1.00  0.00     0.236 A 
HETATM   15  N4  UNL     1      22.282   0.480  52.035  1.00  0.00    -0.240 NA
HETATM   16  C16 UNL     1      22.640   2.043  50.310  1.00  0.00     0.151 A 
HETATM   17  N5  UNL     1      23.381   2.931  49.643  1.00  0.00    -0.241 NA
BRANCH  11  18
HETATM   18  N2  UNL     1      26.128   1.128  53.475  1.00  0.00    -0.340 N 
HETATM   19  H5  UNL     1      26.384   2.017  53.940  1.00  0.00     0.167 HD
BRANCH  18  20
HETATM   20  C8  UNL     1      27.288   0.310  53.425  1.00  0.00     0.033 A 
HETATM   21  C9  UNL     1      27.340  -1.010  53.058  1.00  0.00     0.029 A 
HETATM   22  C10 UNL     1      28.490  -1.755  53.027  1.00  0.00     0.002 A 
HETATM   23  C11 UNL     1      29.696  -1.199  53.374  1.00  0.00     0.000 A 
HETATM   24  C12 UNL     1      29.695   0.126  53.750  1.00  0.00     0.002 A 
HETATM   25  C13 UNL     1      28.515   0.837  53.767  1.00  0.00     0.029 A 
ENDBRANCH  18  20
ENDBRANCH  11  18
ENDBRANCH   6   8
ENDBRANCH   1   4
TORSDOF 4
ENDMDL
MODEL 3
REMARK VINA RESULT:      -7.7      2.597      3.966
REMARK  4 active torsions:
REMARK  status: ('A' for Active; 'I' for Inactive)
REMARK    1  A    between atoms: C1_2  and  C2_3 
REMARK       I    between atoms: C1_2  and  N1_6 
REMARK    2  A    between atoms: N1_6  and  C4_7 
REMARK    3  A    between atoms: C7_10  and  N2_11 
REMARK    4  A    between atoms: N2_11  and  C8_12 
ROOT
HETATM    1  C2  UNL     1      28.859   1.942  53.751  1.00  0.00     0.086 C 
HETATM    2  C3  UNL     1      29.373   0.728  53.823  1.00  0.00     0.223 C 
HETATM    3 CL1  UNL     1      29.869  -0.949  53.819  1.00  0.00    -0.230 Cl
ENDROOT
BRANCH   1   4
HETATM    4  C1  UNL     1      27.554   2.144  53.151  1.00  0.00     0.247 C 
HETATM    5  O1  UNL     1      27.572   2.479  51.943  1.00  0.00    -0.268 OA
HETATM    6  N1  UNL     1      26.382   1.961  53.932  1.00  0.00    -0.308 N 
HETATM    7  H3  UNL     1      26.430   1.683  54.927  1.00  0.00     0.170 HD
BRANCH   6   8
HETATM    8  C4  UNL     1      25.067   2.141  53.417  1.00  0.00     0.131 A 
HETATM    9  C5  UNL     1      24.650   3.345  52.892  1.00  0.00     0.068 A 
HETATM   10  C6  UNL     1      23.399   3.595  52.377  1.00  0.00     0.044 A 
HETATM   11  C7  UNL     1      22.990   4.798  51.856  1.00  0.00     0.142 A 
HETATM   12  C15 UNL     1      22.567   2.516  52.426  1.00  0.00     0.089 A 
HETATM   13  N3  UNL     1      21.742   4.800  51.420  1.00  0.00    -0.224 NA
HETATM   14  C14 UNL     1      20.873   3.795  51.433  1.00  0.00     0.236 A 
HETATM   15  N4  UNL     1      21.306   2.635  51.950  1.00  0.00    -0.240 NA
HETATM   16  C16 UNL     1      22.977   1.311  52.950  1.00  0.00     0.151 A 
HETATM   17  N5  UNL     1      24.202   1.111  53.440  1.00  0.00    -0.241 NA
BRANCH  11  18
HETATM   18  N2  UNL     1      23.896   5.885  51.829  1.00  0.00    -0.340 N 
HETATM   19  H5  UNL     1      23.963   6.556  52.614  1.00  0.00     0.167 HD
BRANCH  18  20
HETATM   20  C8  UNL     1      24.829   6.280  50.834  1.00  0.00     0.033 A 
HETATM   21  C9  UNL     1      25.365   7.531  50.669  1.00  0.00     0.029 A 
HETATM   22  C10 UNL     1      26.265   7.859  49.689  1.00  0.00     0.002 A 
HETATM   23  C11 UNL     1      26.695   6.918  48.786  1.00  0.00     0.000 A 
HETATM   24  C12 UNL     1      26.184   5.644  48.911  1.00  0.00     0.002 A 
HETATM   25  C13 UNL     1      25.281   5.359  49.912  1.00  0.00     0.029 A 
ENDBRANCH  18  20
ENDBRANCH  11  18
ENDBRANCH   6   8
ENDBRANCH   1   4
TORSDOF 4
ENDMDL
MODEL 4
REMARK VINA RESULT:      -7.5      2.952      5.663
REMARK  4 active torsions:
REMARK  status: ('A' for Active; 'I' for Inactive)
REMARK    1  A    between atoms: C1_2  and  C2_3 
REMARK       I    between atoms: C1_2  and  N1_6 
REMARK    2  A    between atoms: N1_6  and  C4_7 
REMARK    3  A    between atoms: C7_10  and  N2_11 
REMARK    4  A    between atoms: N2_11  and  C8_12 
ROOT
HETATM    1  C2  UNL     1      26.415   5.630  48.744  1.00  0.00     0.086 C 
HETATM    2  C3  UNL     1      27.703   5.555  48.466  1.00  0.00     0.223 C 
HETATM    3 CL1  UNL     1      29.407   5.262  48.205  1.00  0.00    -0.230 Cl
ENDROOT
BRANCH   1   4
HETATM    4  C1  UNL     1      25.769   4.567  49.489  1.00  0.00     0.247 C 
HETATM    5  O1  UNL     1      26.322   3.445  49.398  1.00  0.00    -0.268 OA
HETATM    6  N1  UNL     1      24.599   4.844  50.245  1.00  0.00    -0.308 N 
HETATM    7  H3  UNL     1      24.188   5.792  50.282  1.00  0.00     0.170 HD
BRANCH   6   8
HETATM    8  C4  UNL     1      23.908   3.856  51.002  1.00  0.00     0.131 A 
HETATM    9  C5  UNL     1      24.533   2.710  51.444  1.00  0.00     0.068 A 
HETATM   10  C6  UNL     1      23.935   1.713  52.179  1.00  0.00     0.044 A 
HETATM   11  C7  UNL     1      24.564   0.574  52.617  1.00  0.00     0.142 A 
HETATM   12  C15 UNL     1      22.620   1.953  52.448  1.00  0.00     0.089 A 
HETATM   13  N3  UNL     1      23.784  -0.241  53.306  1.00  0.00    -0.224 NA
HETATM   14  C14 UNL     1      22.501  -0.080  53.608  1.00  0.00     0.236 A 
HETATM   15  N4  UNL     1      21.918   1.044  53.165  1.00  0.00    -0.240 NA
HETATM   16  C16 UNL     1      21.989   3.095  52.009  1.00  0.00     0.151 A 
HETATM   17  N5  UNL     1      22.609   4.039  51.297  1.00  0.00    -0.241 NA
BRANCH  11  18
HETATM   18  N2  UNL     1      25.931   0.376  52.309  1.00  0.00    -0.340 N 
HETATM   19  H5  UNL     1      26.228  -0.139  51.462  1.00  0.00     0.167 HD
BRANCH  18  20
HETATM   20  C8  UNL     1      27.099   0.786  53.006  1.00  0.00     0.033 A 
HETATM   21  C9  UNL     1      27.638   2.047  53.024  1.00  0.00     0.029 A 
HETATM   22  C10 UNL     1      28.771   2.389  53.715  1.00  0.00     0.002 A 
HETATM   23  C11 UNL     1      29.452   1.453  54.454  1.00  0.00     0.000 A 
HETATM   24  C12 UNL     1      28.949   0.171  54.466  1.00  0.00     0.002 A 
HETATM   25  C13 UNL     1      27.807  -0.128  53.757  1.00  0.00     0.029 A 
ENDBRANCH  18  20
ENDBRANCH  11  18
ENDBRANCH   6   8
ENDBRANCH   1   4
TORSDOF 4
ENDMDL
MODEL 5
REMARK VINA RESULT:      -7.2      3.325      5.505
REMARK  4 active torsions:
REMARK  status: ('A' for Active; 'I' for Inactive)
REMARK    1  A    between atoms: C1_2  and  C2_3 
REMARK       I    between atoms: C1_2  and  N1_6 
REMARK    2  A    between atoms: N1_6  and  C4_7 
REMARK    3  A    between atoms: C7_10  and  N2_11 
REMARK    4  A    between atoms: N2_11  and  C8_12 
ROOT
HETATM    1  C2  UNL     1      25.868   5.423  49.268  1.00  0.00     0.086 C 
HETATM    2  C3  UNL     1      25.739   6.711  49.526  1.00  0.00     0.223 C 
HETATM    3 CL1  UNL     1      25.521   8.357  50.075  1.00  0.00    -0.230 Cl
ENDROOT
BRANCH   1   4
HETATM    4  C1  UNL     1      25.664   4.447  50.322  1.00  0.00     0.247 C 
HETATM    5  O1  UNL     1      24.567   4.537  50.922  1.00  0.00    -0.268 OA
HETATM    6  N1  UNL     1      26.674   3.488  50.602  1.00  0.00    -0.308 N 
HETATM    7  H3  UNL     1      27.561   3.463  50.071  1.00  0.00     0.170 HD
BRANCH   6   8
HETATM    8  C4  UNL     1      26.549   2.500  51.618  1.00  0.00     0.131 A 
HETATM    9  C5  UNL     1      25.352   1.867  51.874  1.00  0.00     0.068 A 
HETATM   10  C6  UNL     1      25.154   0.904  52.836  1.00  0.00     0.044 A 
HETATM   11  C7  UNL     1      23.957   0.278  53.086  1.00  0.00     0.142 A 
HETATM   12  C15 UNL     1      26.279   0.609  53.547  1.00  0.00     0.089 A 
HETATM   13  N3  UNL     1      24.010  -0.614  54.061  1.00  0.00    -0.224 NA
HETATM   14  C14 UNL     1      25.061  -0.957  54.797  1.00  0.00     0.236 A 
HETATM   15  N4  UNL     1      26.214  -0.325  54.525  1.00  0.00    -0.240 NA
HETATM   16  C16 UNL     1      27.477   1.237  53.297  1.00  0.00     0.151 A 
HETATM   17  N5  UNL     1      27.627   2.167  52.352  1.00  0.00    -0.241 NA
BRANCH  11  18
HETATM   18  N2  UNL     1      22.821   0.623  52.317  1.00  0.00    -0.340 N 
HETATM   19  H5  UNL     1      22.888   1.263  51.506  1.00  0.00     0.167 HD
BRANCH  18  20
HETATM   20  C8  UNL     1      21.464   0.225  52.450  1.00  0.00     0.033 A 
HETATM   21  C9  UNL     1      20.901  -0.406  53.530  1.00  0.00     0.029 A 
HETATM   22  C10 UNL     1      19.582  -0.769  53.607  1.00  0.00     0.002 A 
HETATM   23  C11 UNL     1      18.721  -0.511  52.569  1.00  0.00     0.000 A 
HETATM   24  C12 UNL     1      19.240   0.123  51.461  1.00  0.00     0.002 A 
HETATM   25  C13 UNL     1      20.573   0.470  51.427  1.00  0.00     0.029 A 
ENDBRANCH  18  20
ENDBRANCH  11  18
ENDBRANCH   6   8
ENDBRANCH   1   4
TORSDOF 4
ENDMDL
MODEL 6
REMARK VINA RESULT:      -7.1      3.330      4.893
REMARK  4 active torsions:
REMARK  status: ('A' for Active; 'I' for Inactive)
REMARK    1  A    between atoms: C1_2  and  C2_3 
REMARK       I    between atoms: C1_2  and  N1_6 
REMARK    2  A    between atoms: N1_6  and  C4_7 
REMARK    3  A    between atoms: C7_10  and  N2_11 
REMARK    4  A    between atoms: N2_11  and  C8_12 
ROOT
HETATM    1  C2  UNL     1      26.336   5.148  49.162  1.00  0.00     0.086 C 
HETATM    2  C3  UNL     1      27.498   5.458  48.618  1.00  0.00     0.223 C 
HETATM    3 CL1  UNL     1      29.113   5.680  47.982  1.00  0.00    -0.230 Cl
ENDROOT
BRANCH   1   4
HETATM    4  C1  UNL     1      26.190   3.914  49.910  1.00  0.00     0.247 C 
HETATM    5  O1  UNL     1      26.749   2.916  49.398  1.00  0.00    -0.268 OA
HETATM    6  N1  UNL     1      25.454   3.907  51.124  1.00  0.00    -0.308 N 
HETATM    7  H3  UNL     1      25.014   4.765  51.498  1.00  0.00     0.170 HD
BRANCH   6   8
HETATM    8  C4  UNL     1      25.265   2.738  51.914  1.00  0.00     0.131 A 
HETATM    9  C5  UNL     1      24.009   2.291  52.263  1.00  0.00     0.068 A 
HETATM   10  C6  UNL     1      23.747   1.173  53.020  1.00  0.00     0.044 A 
HETATM   11  C7  UNL     1      22.492   0.734  53.365  1.00  0.00     0.142 A 
HETATM   12  C15 UNL     1      24.871   0.512  53.418  1.00  0.00     0.089 A 
HETATM   13  N3  UNL     1      22.489  -0.364  54.100  1.00  0.00    -0.224 NA
HETATM   14  C14 UNL     1      23.536  -1.064  54.526  1.00  0.00     0.236 A 
HETATM   15  N4  UNL     1      24.746  -0.606  54.171  1.00  0.00    -0.240 NA
HETATM   16  C16 UNL     1      26.129   0.953  53.073  1.00  0.00     0.151 A 
HETATM   17  N5  UNL     1      26.339   2.045  52.334  1.00  0.00    -0.241 NA
BRANCH  11  18
HETATM   18  N2  UNL     1      21.360   1.459  52.925  1.00  0.00    -0.340 N 
HETATM   19  H5  UNL     1      21.157   2.413  53.271  1.00  0.00     0.167 HD
BRANCH  18  20
HETATM   20  C8  UNL     1      20.338   1.101  52.006  1.00  0.00     0.033 A 
HETATM   21  C9  UNL     1      20.273   1.449  50.681  1.00  0.00     0.029 A 
HETATM   22  C10 UNL     1      19.261   1.075  49.836  1.00  0.00     0.002 A 
HETATM   23  C11 UNL     1      18.220   0.302  50.287  1.00  0.00     0.000 A 
HETATM   24  C12 UNL     1      18.241  -0.074  51.612  1.00  0.00     0.002 A 
HETATM   25  C13 UNL     1      19.278   0.326  52.426  1.00  0.00     0.029 A 
ENDBRANCH  18  20
ENDBRANCH  11  18
ENDBRANCH   6   8
ENDBRANCH   1   4
TORSDOF 4
ENDMDL
MODEL 7
REMARK VINA RESULT:      -6.7      3.677      6.045
REMARK  4 active torsions:
REMARK  status: ('A' for Active; 'I' for Inactive)
REMARK    1  A    between atoms: C1_2  and  C2_3 
REMARK       I    between atoms: C1_2  and  N1_6 
REMARK    2  A    between atoms: N1_6  and  C4_7 
REMARK    3  A    between atoms: C7_10  and  N2_11 
REMARK    4  A    between atoms: N2_11  and  C8_12 
ROOT
HETATM    1  C2  UNL     1      24.726   0.056  53.164  1.00  0.00     0.086 C 
HETATM    2  C3  UNL     1      24.027  -0.571  54.091  1.00  0.00     0.223 C 
HETATM    3 CL1  UNL     1      22.938  -1.262  55.272  1.00  0.00    -0.230 Cl
ENDROOT
BRANCH   1   4
HETATM    4  C1  UNL     1      24.136   1.162  52.433  1.00  0.00     0.247 C 
HETATM    5  O1  UNL     1      24.715   1.456  51.360  1.00  0.00    -0.268 OA
HETATM    6  N1  UNL     1      22.989   1.819  52.951  1.00  0.00    -0.308 N 
HETATM    7  H3  UNL     1      22.554   1.530  53.844  1.00  0.00     0.170 HD
BRANCH   6   8
HETATM    8  C4  UNL     1      22.354   2.911  52.294  1.00  0.00     0.131 A 
HETATM    9  C5  UNL     1      23.063   4.009  51.858  1.00  0.00     0.068 A 
HETATM   10  C6  UNL     1      22.521   5.099  51.216  1.00  0.00     0.044 A 
HETATM   11  C7  UNL     1      23.234   6.191  50.785  1.00  0.00     0.142 A 
HETATM   12  C15 UNL     1      21.173   5.007  51.037  1.00  0.00     0.089 A 
HETATM   13  N3  UNL     1      22.497   7.115  50.195  1.00  0.00    -0.224 NA
HETATM   14  C14 UNL     1      21.185   7.101  49.983  1.00  0.00     0.236 A 
HETATM   15  N4  UNL     1      20.521   6.019  50.417  1.00  0.00    -0.240 NA
HETATM   16  C16 UNL     1      20.459   3.913  51.470  1.00  0.00     0.151 A 
HETATM   17  N5  UNL     1      21.025   2.875  52.089  1.00  0.00    -0.241 NA
BRANCH  11  18
HETATM   18  N2  UNL     1      24.632   6.233  50.997  1.00  0.00    -0.340 N 
HETATM   19  H5  UNL     1      25.035   6.306  51.947  1.00  0.00     0.167 HD
BRANCH  18  20
HETATM   20  C8  UNL     1      25.705   6.191  50.067  1.00  0.00     0.033 A 
HETATM   21  C9  UNL     1      26.264   5.066  49.516  1.00  0.00     0.029 A 
HETATM   22  C10 UNL     1      27.301   5.082  48.621  1.00  0.00     0.002 A 
HETATM   23  C11 UNL     1      27.858   6.269  48.213  1.00  0.00     0.000 A 
HETATM   24  C12 UNL     1      27.330   7.427  48.739  1.00  0.00     0.002 A 
HETATM   25  C13 UNL     1      26.287   7.364  49.637  1.00  0.00     0.029 A 
ENDBRANCH  18  20
ENDBRANCH  11  18
ENDBRANCH   6   8
ENDBRANCH   1   4
TORSDOF 4
ENDMDL
MODEL 8
REMARK VINA RESULT:      -6.7      4.237      6.536
REMARK  4 active torsions:
REMARK  status: ('A' for Active; 'I' for Inactive)
REMARK    1  A    between atoms: C1_2  and  C2_3 
REMARK       I    between atoms: C1_2  and  N1_6 
REMARK    2  A    between atoms: N1_6  and  C4_7 
REMARK    3  A    between atoms: C7_10  and  N2_11 
REMARK    4  A    between atoms: N2_11  and  C8_12 
ROOT
HETATM    1  C2  UNL     1      19.786   2.446  50.050  1.00  0.00     0.086 C 
HETATM    2  C3  UNL     1      19.372   3.477  49.337  1.00  0.00     0.223 C 
HETATM    3 CL1  UNL     1      19.010   4.945  48.457  1.00  0.00    -0.230 Cl
ENDROOT
BRANCH   1   4
HETATM    4  C1  UNL     1      21.046   2.516  50.765  1.00  0.00     0.247 C 
HETATM    5  O1  UNL     1      21.404   3.671  51.096  1.00  0.00    -0.268 OA
HETATM    6  N1  UNL     1      21.771   1.325  51.037  1.00  0.00    -0.308 N 
HETATM    7  H3  UNL     1      21.423   0.398  50.738  1.00  0.00     0.170 HD
BRANCH   6   8
HETATM    8  C4  UNL     1      23.012   1.310  51.732  1.00  0.00     0.131 A 
HETATM    9  C5  UNL     1      24.161   1.834  51.180  1.00  0.00     0.068 A 
HETATM   10  C6  UNL     1      25.394   1.858  51.788  1.00  0.00     0.044 A 
HETATM   11  C7  UNL     1      26.535   2.382  51.231  1.00  0.00     0.142 A 
HETATM   12  C15 UNL     1      25.396   1.299  53.032  1.00  0.00     0.089 A 
HETATM   13  N3  UNL     1      27.603   2.290  52.005  1.00  0.00    -0.224 NA
HETATM   14  C14 UNL     1      27.686   1.762  53.222  1.00  0.00     0.236 A 
HETATM   15  N4  UNL     1      26.552   1.260  53.735  1.00  0.00    -0.240 NA
HETATM   16  C16 UNL     1      24.252   0.773  53.588  1.00  0.00     0.151 A 
HETATM   17  N5  UNL     1      23.074   0.771  52.963  1.00  0.00    -0.241 NA
BRANCH  11  18
HETATM   18  N2  UNL     1      26.476   2.950  49.937  1.00  0.00    -0.340 N 
HETATM   19  H5  UNL     1      26.353   2.366  49.092  1.00  0.00     0.167 HD
BRANCH  18  20
HETATM   20  C8  UNL     1      26.563   4.306  49.524  1.00  0.00     0.033 A 
HETATM   21  C9  UNL     1      25.673   5.308  49.818  1.00  0.00     0.029 A 
HETATM   22  C10 UNL     1      25.805   6.603  49.392  1.00  0.00     0.002 A 
HETATM   23  C11 UNL     1      26.873   6.983  48.618  1.00  0.00     0.000 A 
HETATM   24  C12 UNL     1      27.795   6.011  48.295  1.00  0.00     0.002 A 
HETATM   25  C13 UNL     1      27.623   4.721  48.745  1.00  0.00     0.029 A 
ENDBRANCH  18  20
ENDBRANCH  11  18
ENDBRANCH   6   8
ENDBRANCH   1   4
TORSDOF 4
ENDMDL
MODEL 9
REMARK VINA RESULT:      -6.6      4.584      7.627
REMARK  4 active torsions:
REMARK  status: ('A' for Active; 'I' for Inactive)
REMARK    1  A    between atoms: C1_2  and  C2_3 
REMARK       I    between atoms: C1_2  and  N1_6 
REMARK    2  A    between atoms: N1_6  and  C4_7 
REMARK    3  A    between atoms: C7_10  and  N2_11 
REMARK    4  A    between atoms: N2_11  and  C8_12 
ROOT
HETATM    1  C2  UNL     1      18.551  -0.243  51.963  1.00  0.00     0.086 C 
HETATM    2  C3  UNL     1      17.253  -0.110  52.161  1.00  0.00     0.223 C 
HETATM    3 CL1  UNL     1      15.557   0.274  52.353  1.00  0.00    -0.230 Cl
ENDROOT
BRANCH   1   4
HETATM    4  C1  UNL     1      19.328   0.875  51.463  1.00  0.00     0.247 C 
HETATM    5  O1  UNL     1      19.948   0.653  50.396  1.00  0.00    -0.268 OA
HETATM    6  N1  UNL     1      19.343   2.102  52.178  1.00  0.00    -0.308 N 
HETATM    7  H3  UNL     1      18.809   2.226  53.055  1.00  0.00     0.170 HD
BRANCH   6   8
HETATM    8  C4  UNL     1      20.080   3.243  51.753  1.00  0.00     0.131 A 
HETATM    9  C5  UNL     1      21.384   3.453  52.145  1.00  0.00     0.068 A 
HETATM   10  C6  UNL     1      22.160   4.528  51.776  1.00  0.00     0.044 A 
HETATM   11  C7  UNL     1      23.459   4.731  52.172  1.00  0.00     0.142 A 
HETATM   12  C15 UNL     1      21.514   5.407  50.959  1.00  0.00     0.089 A 
HETATM   13  N3  UNL     1      24.001   5.837  51.690  1.00  0.00    -0.224 NA
HETATM   14  C14 UNL     1      23.441   6.740  50.893  1.00  0.00     0.236 A 
HETATM   15  N4  UNL     1      22.171   6.509  50.527  1.00  0.00    -0.240 NA
HETATM   16  C16 UNL     1      20.211   5.204  50.565  1.00  0.00     0.151 A 
HETATM   17  N5  UNL     1      19.493   4.145  50.946  1.00  0.00    -0.241 NA
BRANCH  11  18
HETATM   18  N2  UNL     1      24.081   3.785  53.020  1.00  0.00    -0.340 N 
HETATM   19  H5  UNL     1      24.070   3.889  54.050  1.00  0.00     0.167 HD
BRANCH  18  20
HETATM   20  C8  UNL     1      24.793   2.597  52.707  1.00  0.00     0.033 A 
HETATM   21  C9  UNL     1      24.486   1.327  53.127  1.00  0.00     0.029 A 
HETATM   22  C10 UNL     1      25.209   0.212  52.794  1.00  0.00     0.002 A 
HETATM   23  C11 UNL     1      26.321   0.309  51.994  1.00  0.00     0.000 A 
HETATM   24  C12 UNL     1      26.669   1.564  51.547  1.00  0.00     0.002 A 
HETATM   25  C13 UNL     1      25.913   2.658  51.906  1.00  0.00     0.029 A 
ENDBRANCH  18  20
ENDBRANCH  11  18
ENDBRANCH   6   8
ENDBRANCH   1   4
TORSDOF 4
ENDMDL
