MODEL 1
REMARK VINA RESULT:      -8.6      0.000      0.000
REMARK  5 active torsions:
REMARK  status: ('A' for Active; 'I' for Inactive)
REMARK    1  A    between atoms: C1_2  and  C2_3 
REMARK       I    between atoms: C1_2  and  N2_13 
REMARK    2  A    between atoms: C3_4  and  C4_5 
REMARK    3  A    between atoms: C4_5  and  C5_6 
REMARK    4  A    between atoms: C5_6  and  N1_7 
REMARK    5  A    between atoms: N2_13  and  C11_14 
ROOT
HETATM    1  C11 UNL     1      25.696   6.536  49.468  1.00  0.00     0.124 A 
HETATM    2  C12 UNL     1      26.146   7.678  50.162  1.00  0.00     0.042 A 
HETATM    3  C13 UNL     1      25.831   8.535  49.230  1.00  0.00     0.082 A 
HETATM    4  C14 UNL     1      26.556   9.768  49.226  1.00  0.00     0.127 A 
HETATM    5  N3  UNL     1      27.105  10.986  49.099  1.00  0.00    -0.264 NA
HETATM    6  C15 UNL     1      26.391  11.773  48.210  1.00  0.00     0.223 A 
HETATM    7  N4  UNL     1      25.551  10.732  48.016  1.00  0.00    -0.265 NA
HETATM    8  C16 UNL     1      25.690   9.618  48.630  1.00  0.00     0.136 A 
HETATM    9  C17 UNL     1      25.305   8.356  48.068  1.00  0.00     0.123 A 
HETATM   10  N5  UNL     1      25.235   7.033  48.273  1.00  0.00    -0.254 NA
HETATM   11  C18 UNL     1      25.261   8.542  46.587  1.00  0.00     0.037 C 
HETATM   12  C19 UNL     1      26.586   8.874  46.630  1.00  0.00     0.072 C 
HETATM   13 CL1  UNL     1      26.479   9.074  44.906  1.00  0.00    -0.081 Cl
HETATM   14  C20 UNL     1      27.963   9.228  46.599  1.00  0.00     0.154 C 
HETATM   15  F1  UNL     1      28.503  10.417  46.235  1.00  0.00    -0.203 F 
HETATM   16  C21 UNL     1      28.217   8.003  47.046  1.00  0.00     0.046 C 
HETATM   17  S1  UNL     1      28.638   8.027  48.624  1.00  0.00    -0.180 SA
HETATM   18  C22 UNL     1      28.013   9.366  49.395  1.00  0.00     0.162 C 
ENDROOT
BRANCH   1  19
HETATM   19  N2  UNL     1      25.775   5.299  50.011  1.00  0.00    -0.301 N 
HETATM   20  C1  UNL     1      26.673   4.314  49.643  1.00  0.00     0.302 C 
HETATM   21  O1  UNL     1      27.562   4.361  48.769  1.00  0.00    -0.258 OA
HETATM   22  H15 UNL     1      25.039   5.249  50.742  1.00  0.00     0.171 HD
BRANCH  20  23
HETATM   23  C2  UNL     1      26.582   3.075  50.349  1.00  0.00    -0.005 C 
HETATM   24  C3  UNL     1      26.517   2.022  50.929  1.00  0.00    -0.095 C 
BRANCH  24  25
HETATM   25  C4  UNL     1      26.432   0.746  51.612  1.00  0.00     0.114 C 
BRANCH  25  26
HETATM   26  C5  UNL     1      26.134   0.880  53.094  1.00  0.00     0.129 C 
BRANCH  26  27
HETATM   27  N1  UNL     1      26.831  -0.144  53.801  1.00  0.00    -0.412 N 
HETATM   28  C6  UNL     1      27.408  -1.175  53.011  1.00  0.00     0.117 C 
HETATM   29  C7  UNL     1      28.868  -1.398  53.258  1.00  0.00     0.019 C 
HETATM   30  C8  UNL     1      29.598  -0.123  53.610  1.00  0.00     0.003 C 
HETATM   31  C9  UNL     1      28.991   0.542  54.799  1.00  0.00     0.019 C 
HETATM   32  C10 UNL     1      27.525   0.243  54.974  1.00  0.00     0.117 C 
ENDBRANCH  26  27
ENDBRANCH  25  26
ENDBRANCH  24  25
ENDBRANCH  20  23
ENDBRANCH   1  19
TORSDOF 5
ENDMDL
MODEL 2
REMARK VINA RESULT:      -8.3      2.493      3.052
REMARK  5 active torsions:
REMARK  status: ('A' for Active; 'I' for Inactive)
REMARK    1  A    between atoms: C1_2  and  C2_3 
REMARK       I    between atoms: C1_2  and  N2_13 
REMARK    2  A    between atoms: C3_4  and  C4_5 
REMARK    3  A    between atoms: C4_5  and  C5_6 
REMARK    4  A    between atoms: C5_6  and  N1_7 
REMARK    5  A    between atoms: N2_13  and  C11_14 
ROOT
HETATM    1  C11 UNL     1      28.407   6.993  48.232  1.00  0.00     0.124 A 
HETATM    2  C12 UNL     1      28.362   8.248  48.872  1.00  0.00     0.042 A 
HETATM    3  C13 UNL     1      28.758   8.940  47.839  1.00  0.00     0.082 A 
HETATM    4  C14 UNL     1      29.375  10.201  48.115  1.00  0.00     0.127 A 
HETATM    5  N3  UNL     1      29.935  11.418  48.187  1.00  0.00    -0.264 NA
HETATM    6  C15 UNL     1      29.995  12.023  46.943  1.00  0.00     0.223 A 
HETATM    7  N4  UNL     1      29.425  10.917  46.416  1.00  0.00    -0.265 NA
HETATM    8  C16 UNL     1      29.086   9.914  47.135  1.00  0.00     0.136 A 
HETATM    9  C17 UNL     1      29.090   8.562  46.653  1.00  0.00     0.123 A 
HETATM   10  N5  UNL     1      28.842   7.282  46.962  1.00  0.00    -0.254 NA
HETATM   11  C18 UNL     1      30.015   8.529  45.481  1.00  0.00     0.037 C 
HETATM   12  C19 UNL     1      31.018   8.942  46.311  1.00  0.00     0.072 C 
HETATM   13 CL1  UNL     1      32.049   8.883  44.912  1.00  0.00    -0.081 Cl
HETATM   14  C20 UNL     1      32.111   9.370  47.114  1.00  0.00     0.154 C 
HETATM   15  F1  UNL     1      32.814  10.524  47.007  1.00  0.00    -0.203 F 
HETATM   16  C21 UNL     1      31.960   8.240  47.798  1.00  0.00     0.046 C 
HETATM   17  S1  UNL     1      31.274   8.519  49.253  1.00  0.00    -0.180 SA
HETATM   18  C22 UNL     1      30.365   9.916  49.234  1.00  0.00     0.162 C 
ENDROOT
BRANCH   1  19
HETATM   19  N2  UNL     1      28.061   5.855  48.877  1.00  0.00    -0.301 N 
HETATM   20  C1  UNL     1      26.785   5.326  48.949  1.00  0.00     0.302 C 
HETATM   21  O1  UNL     1      25.731   5.771  48.451  1.00  0.00    -0.258 OA
HETATM   22  H15 UNL     1      28.932   5.474  49.295  1.00  0.00     0.171 HD
BRANCH  20  23
HETATM   23  C2  UNL     1      26.642   4.110  49.685  1.00  0.00    -0.005 C 
HETATM   24  C3  UNL     1      26.507   3.095  50.319  1.00  0.00    -0.095 C 
BRANCH  24  25
HETATM   25  C4  UNL     1      26.349   1.882  51.097  1.00  0.00     0.114 C 
BRANCH  25  26
HETATM   26  C5  UNL     1      27.103   1.913  52.413  1.00  0.00     0.129 C 
BRANCH  26  27
HETATM   27  N1  UNL     1      26.845   0.704  53.124  1.00  0.00    -0.412 N 
HETATM   28  C6  UNL     1      26.795  -0.486  52.348  1.00  0.00     0.117 C 
HETATM   29  C7  UNL     1      27.707  -1.573  52.825  1.00  0.00     0.019 C 
HETATM   30  C8  UNL     1      28.984  -1.037  53.427  1.00  0.00     0.003 C 
HETATM   31  C9  UNL     1      28.704  -0.098  54.552  1.00  0.00     0.019 C 
HETATM   32  C10 UNL     1      27.375   0.604  54.434  1.00  0.00     0.117 C 
ENDBRANCH  26  27
ENDBRANCH  25  26
ENDBRANCH  24  25
ENDBRANCH  20  23
ENDBRANCH   1  19
TORSDOF 5
ENDMDL
MODEL 3
REMARK VINA RESULT:      -8.3      5.201      8.094
REMARK  5 active torsions:
REMARK  status: ('A' for Active; 'I' for Inactive)
REMARK    1  A    between atoms: C1_2  and  C2_3 
REMARK       I    between atoms: C1_2  and  N2_13 
REMARK    2  A    between atoms: C3_4  and  C4_5 
REMARK    3  A    between atoms: C4_5  and  C5_6 
REMARK    4  A    between atoms: C5_6  and  N1_7 
REMARK    5  A    between atoms: N2_13  and  C11_14 
ROOT
HETATM    1  C11 UNL     1      25.486   3.176  49.693  1.00  0.00     0.124 A 
HETATM    2  C12 UNL     1      25.387   2.520  50.937  1.00  0.00     0.042 A 
HETATM    3  C13 UNL     1      24.141   2.159  50.800  1.00  0.00     0.082 A 
HETATM    4  C14 UNL     1      23.410   1.917  52.006  1.00  0.00     0.127 A 
HETATM    5  N3  UNL     1      22.592   1.612  53.025  1.00  0.00    -0.264 NA
HETATM    6  C15 UNL     1      21.432   1.001  52.578  1.00  0.00     0.223 A 
HETATM    7  N4  UNL     1      21.894   1.126  51.314  1.00  0.00    -0.265 NA
HETATM    8  C16 UNL     1      23.032   1.649  51.050  1.00  0.00     0.136 A 
HETATM    9  C17 UNL     1      23.307   2.369  49.840  1.00  0.00     0.123 A 
HETATM   10  N5  UNL     1      24.236   3.036  49.142  1.00  0.00    -0.254 NA
HETATM   11  C18 UNL     1      21.989   2.819  49.302  1.00  0.00     0.037 C 
HETATM   12  C19 UNL     1      21.798   3.516  50.462  1.00  0.00     0.072 C 
HETATM   13 CL1  UNL     1      20.275   4.011  49.784  1.00  0.00    -0.081 Cl
HETATM   14  C20 UNL     1      21.532   4.265  51.641  1.00  0.00     0.154 C 
HETATM   15  F1  UNL     1      20.537   4.066  52.541  1.00  0.00    -0.203 F 
HETATM   16  C21 UNL     1      22.595   5.000  51.330  1.00  0.00     0.046 C 
HETATM   17  S1  UNL     1      23.860   4.645  52.299  1.00  0.00    -0.180 SA
HETATM   18  C22 UNL     1      23.740   3.097  52.907  1.00  0.00     0.162 C 
ENDROOT
BRANCH   1  19
HETATM   19  N2  UNL     1      26.639   3.759  49.289  1.00  0.00    -0.301 N 
HETATM   20  C1  UNL     1      26.773   5.068  48.863  1.00  0.00     0.302 C 
HETATM   21  O1  UNL     1      25.892   5.947  48.767  1.00  0.00    -0.258 OA
HETATM   22  H15 UNL     1      27.380   3.036  49.365  1.00  0.00     0.171 HD
BRANCH  20  23
HETATM   23  C2  UNL     1      28.085   5.480  48.478  1.00  0.00    -0.005 C 
HETATM   24  C3  UNL     1      29.194   5.810  48.144  1.00  0.00    -0.095 C 
BRANCH  24  25
HETATM   25  C4  UNL     1      30.536   6.191  47.749  1.00  0.00     0.114 C 
BRANCH  25  26
HETATM   26  C5  UNL     1      31.617   5.437  48.499  1.00  0.00     0.129 C 
BRANCH  26  27
HETATM   27  N1  UNL     1      32.608   5.001  47.570  1.00  0.00    -0.412 N 
HETATM   28  C6  UNL     1      33.896   4.725  48.104  1.00  0.00     0.117 C 
HETATM   29  C7  UNL     1      34.422   3.362  47.777  1.00  0.00     0.019 C 
HETATM   30  C8  UNL     1      33.328   2.324  47.690  1.00  0.00     0.003 C 
HETATM   31  C9  UNL     1      32.291   2.707  46.688  1.00  0.00     0.019 C 
HETATM   32  C10 UNL     1      32.165   4.196  46.491  1.00  0.00     0.117 C 
ENDBRANCH  26  27
ENDBRANCH  25  26
ENDBRANCH  24  25
ENDBRANCH  20  23
ENDBRANCH   1  19
TORSDOF 5
ENDMDL
MODEL 4
REMARK VINA RESULT:      -8.1      1.614      2.128
REMARK  5 active torsions:
REMARK  status: ('A' for Active; 'I' for Inactive)
REMARK    1  A    between atoms: C1_2  and  C2_3 
REMARK       I    between atoms: C1_2  and  N2_13 
REMARK    2  A    between atoms: C3_4  and  C4_5 
REMARK    3  A    between atoms: C4_5  and  C5_6 
REMARK    4  A    between atoms: C5_6  and  N1_7 
REMARK    5  A    between atoms: N2_13  and  C11_14 
ROOT
HETATM    1  C11 UNL     1      26.753   5.867  48.930  1.00  0.00     0.124 A 
HETATM    2  C12 UNL     1      25.700   6.773  48.690  1.00  0.00     0.042 A 
HETATM    3  C13 UNL     1      26.327   7.470  47.782  1.00  0.00     0.082 A 
HETATM    4  C14 UNL     1      25.884   8.818  47.594  1.00  0.00     0.127 A 
HETATM    5  N3  UNL     1      25.575  10.080  47.260  1.00  0.00    -0.264 NA
HETATM    6  C15 UNL     1      26.212  10.465  46.092  1.00  0.00     0.223 A 
HETATM    7  N4  UNL     1      26.787   9.243  46.043  1.00  0.00    -0.265 NA
HETATM    8  C16 UNL     1      26.555   8.343  46.922  1.00  0.00     0.136 A 
HETATM    9  C17 UNL     1      27.518   7.351  47.307  1.00  0.00     0.123 A 
HETATM   10  N5  UNL     1      27.754   6.288  48.089  1.00  0.00    -0.254 NA
HETATM   11  C18 UNL     1      28.860   7.892  46.937  1.00  0.00     0.037 C 
HETATM   12  C19 UNL     1      28.621   8.946  47.773  1.00  0.00     0.072 C 
HETATM   13 CL1  UNL     1      30.193   9.528  47.308  1.00  0.00    -0.081 Cl
HETATM   14  C20 UNL     1      28.442  10.071  48.624  1.00  0.00     0.154 C 
HETATM   15  F1  UNL     1      28.366  11.376  48.266  1.00  0.00    -0.203 F 
HETATM   16  C21 UNL     1      28.395   9.210  49.635  1.00  0.00     0.046 C 
HETATM   17  S1  UNL     1      26.868   9.030  50.186  1.00  0.00    -0.180 SA
HETATM   18  C22 UNL     1      25.753   9.386  48.999  1.00  0.00     0.162 C 
ENDROOT
BRANCH   1  19
HETATM   19  N2  UNL     1      26.632   4.861  49.827  1.00  0.00    -0.301 N 
HETATM   20  C1  UNL     1      25.653   3.885  49.815  1.00  0.00     0.302 C 
HETATM   21  O1  UNL     1      24.715   3.737  49.005  1.00  0.00    -0.258 OA
HETATM   22  H15 UNL     1      27.409   4.974  50.506  1.00  0.00     0.171 HD
BRANCH  20  23
HETATM   23  C2  UNL     1      25.711   2.914  50.860  1.00  0.00    -0.005 C 
HETATM   24  C3  UNL     1      25.776   2.086  51.733  1.00  0.00    -0.095 C 
BRANCH  24  25
HETATM   25  C4  UNL     1      25.854   1.077  52.770  1.00  0.00     0.114 C 
BRANCH  25  26
HETATM   26  C5  UNL     1      26.522  -0.205  52.309  1.00  0.00     0.129 C 
BRANCH  26  27
HETATM   27  N1  UNL     1      27.274  -0.752  53.391  1.00  0.00    -0.412 N 
HETATM   28  C6  UNL     1      28.160  -1.815  53.068  1.00  0.00     0.117 C 
HETATM   29  C7  UNL     1      29.574  -1.595  53.508  1.00  0.00     0.019 C 
HETATM   30  C8  UNL     1      29.979  -0.141  53.455  1.00  0.00     0.003 C 
HETATM   31  C9  UNL     1      29.068   0.709  54.275  1.00  0.00     0.019 C 
HETATM   32  C10 UNL     1      27.677   0.145  54.410  1.00  0.00     0.117 C 
ENDBRANCH  26  27
ENDBRANCH  25  26
ENDBRANCH  24  25
ENDBRANCH  20  23
ENDBRANCH   1  19
TORSDOF 5
ENDMDL
MODEL 5
REMARK VINA RESULT:      -8.0      5.288      8.902
REMARK  5 active torsions:
REMARK  status: ('A' for Active; 'I' for Inactive)
REMARK    1  A    between atoms: C1_2  and  C2_3 
REMARK       I    between atoms: C1_2  and  N2_13 
REMARK    2  A    between atoms: C3_4  and  C4_5 
REMARK    3  A    between atoms: C4_5  and  C5_6 
REMARK    4  A    between atoms: C5_6  and  N1_7 
REMARK    5  A    between atoms: N2_13  and  C11_14 
ROOT
HETATM    1  C11 UNL     1      24.078   4.534  50.686  1.00  0.00     0.124 A 
HETATM    2  C12 UNL     1      22.820   5.080  50.362  1.00  0.00     0.042 A 
HETATM    3  C13 UNL     1      22.133   4.330  51.181  1.00  0.00     0.082 A 
HETATM    4  C14 UNL     1      20.754   4.130  50.857  1.00  0.00     0.127 A 
HETATM    5  N3  UNL     1      19.444   3.870  50.730  1.00  0.00    -0.264 NA
HETATM    6  C15 UNL     1      18.928   3.290  51.877  1.00  0.00     0.223 A 
HETATM    7  N4  UNL     1      20.164   3.348  52.421  1.00  0.00    -0.265 NA
HETATM    8  C16 UNL     1      21.164   3.845  51.795  1.00  0.00     0.136 A 
HETATM    9  C17 UNL     1      22.514   3.399  51.985  1.00  0.00     0.123 A 
HETATM   10  N5  UNL     1      23.793   3.573  51.625  1.00  0.00    -0.254 NA
HETATM   11  C18 UNL     1      22.432   2.020  52.554  1.00  0.00     0.037 C 
HETATM   12  C19 UNL     1      21.759   1.639  51.428  1.00  0.00     0.072 C 
HETATM   13 CL1  UNL     1      21.695   0.053  52.137  1.00  0.00    -0.081 Cl
HETATM   14  C20 UNL     1      21.054   1.171  50.285  1.00  0.00     0.154 C 
HETATM   15  F1  UNL     1      19.787   0.690  50.234  1.00  0.00    -0.203 F 
HETATM   16  C21 UNL     1      22.139   1.470  49.579  1.00  0.00     0.046 C 
HETATM   17  S1  UNL     1      21.911   2.823  48.693  1.00  0.00    -0.180 SA
HETATM   18  C22 UNL     1      20.744   3.800  49.373  1.00  0.00     0.162 C 
ENDROOT
BRANCH   1  19
HETATM   19  N2  UNL     1      25.216   4.980  50.105  1.00  0.00    -0.301 N 
HETATM   20  C1  UNL     1      26.160   4.193  49.472  1.00  0.00     0.302 C 
HETATM   21  O1  UNL     1      26.157   2.955  49.313  1.00  0.00    -0.258 OA
HETATM   22  H15 UNL     1      25.228   6.011  50.230  1.00  0.00     0.171 HD
BRANCH  20  23
HETATM   23  C2  UNL     1      27.291   4.872  48.925  1.00  0.00    -0.005 C 
HETATM   24  C3  UNL     1      28.253   5.426  48.458  1.00  0.00    -0.095 C 
BRANCH  24  25
HETATM   25  C4  UNL     1      29.421   6.083  47.906  1.00  0.00     0.114 C 
BRANCH  25  26
HETATM   26  C5  UNL     1      29.208   7.562  47.644  1.00  0.00     0.129 C 
BRANCH  26  27
HETATM   27  N1  UNL     1      29.342   8.274  48.873  1.00  0.00    -0.412 N 
HETATM   28  C6  UNL     1      30.642   8.760  49.182  1.00  0.00     0.117 C 
HETATM   29  C7  UNL     1      30.699  10.225  49.481  1.00  0.00     0.019 C 
HETATM   30  C8  UNL     1      29.692  11.020  48.683  1.00  0.00     0.003 C 
HETATM   31  C9  UNL     1      28.304  10.523  48.908  1.00  0.00     0.019 C 
HETATM   32  C10 UNL     1      28.239   9.064  49.280  1.00  0.00     0.117 C 
ENDBRANCH  26  27
ENDBRANCH  25  26
ENDBRANCH  24  25
ENDBRANCH  20  23
ENDBRANCH   1  19
TORSDOF 5
ENDMDL
MODEL 6
REMARK VINA RESULT:      -7.9      4.789      8.554
REMARK  5 active torsions:
REMARK  status: ('A' for Active; 'I' for Inactive)
REMARK    1  A    between atoms: C1_2  and  C2_3 
REMARK       I    between atoms: C1_2  and  N2_13 
REMARK    2  A    between atoms: C3_4  and  C4_5 
REMARK    3  A    between atoms: C4_5  and  C5_6 
REMARK    4  A    between atoms: C5_6  and  N1_7 
REMARK    5  A    between atoms: N2_13  and  C11_14 
ROOT
HETATM    1  C11 UNL     1      24.946   4.257  49.455  1.00  0.00     0.124 A 
HETATM    2  C12 UNL     1      25.257   3.525  50.618  1.00  0.00     0.042 A 
HETATM    3  C13 UNL     1      24.204   2.753  50.577  1.00  0.00     0.082 A 
HETATM    4  C14 UNL     1      23.782   2.184  51.820  1.00  0.00     0.127 A 
HETATM    5  N3  UNL     1      23.274   1.538  52.880  1.00  0.00    -0.264 NA
HETATM    6  C15 UNL     1      22.343   0.587  52.495  1.00  0.00     0.223 A 
HETATM    7  N4  UNL     1      22.548   0.956  51.211  1.00  0.00    -0.265 NA
HETATM    8  C16 UNL     1      23.387   1.866  50.887  1.00  0.00     0.136 A 
HETATM    9  C17 UNL     1      23.221   2.719  49.745  1.00  0.00     0.123 A 
HETATM   10  N5  UNL     1      23.755   3.720  49.031  1.00  0.00    -0.254 NA
HETATM   11  C18 UNL     1      21.766   2.707  49.410  1.00  0.00     0.037 C 
HETATM   12  C19 UNL     1      21.516   3.208  50.656  1.00  0.00     0.072 C 
HETATM   13 CL1  UNL     1      19.835   3.174  50.211  1.00  0.00    -0.081 Cl
HETATM   14  C20 UNL     1      21.179   3.729  51.936  1.00  0.00     0.154 C 
HETATM   15  F1  UNL     1      20.453   3.127  52.910  1.00  0.00    -0.203 F 
HETATM   16  C21 UNL     1      21.869   4.814  51.598  1.00  0.00     0.046 C 
HETATM   17  S1  UNL     1      23.304   4.866  52.375  1.00  0.00    -0.180 SA
HETATM   18  C22 UNL     1      23.811   3.339  52.809  1.00  0.00     0.162 C 
ENDROOT
BRANCH   1  19
HETATM   19  N2  UNL     1      25.757   5.239  48.997  1.00  0.00    -0.301 N 
HETATM   20  C1  UNL     1      27.109   5.112  48.739  1.00  0.00     0.302 C 
HETATM   21  O1  UNL     1      27.832   4.103  48.869  1.00  0.00    -0.258 OA
HETATM   22  H15 UNL     1      25.164   6.084  48.884  1.00  0.00     0.171 HD
BRANCH  20  23
HETATM   23  C2  UNL     1      27.778   6.279  48.259  1.00  0.00    -0.005 C 
HETATM   24  C3  UNL     1      28.359   7.257  47.865  1.00  0.00    -0.095 C 
BRANCH  24  25
HETATM   25  C4  UNL     1      29.063   8.439  47.407  1.00  0.00     0.114 C 
BRANCH  25  26
HETATM   26  C5  UNL     1      30.177   8.128  46.425  1.00  0.00     0.129 C 
BRANCH  26  27
HETATM   27  N1  UNL     1      31.426   8.164  47.115  1.00  0.00    -0.412 N 
HETATM   28  C6  UNL     1      31.448   8.881  48.341  1.00  0.00     0.117 C 
HETATM   29  C7  UNL     1      31.964   8.096  49.507  1.00  0.00     0.019 C 
HETATM   30  C8  UNL     1      31.615   6.629  49.417  1.00  0.00     0.003 C 
HETATM   31  C9  UNL     1      32.121   6.024  48.151  1.00  0.00     0.019 C 
HETATM   32  C10 UNL     1      32.245   7.012  47.019  1.00  0.00     0.117 C 
ENDBRANCH  26  27
ENDBRANCH  25  26
ENDBRANCH  24  25
ENDBRANCH  20  23
ENDBRANCH   1  19
TORSDOF 5
ENDMDL
MODEL 7
REMARK VINA RESULT:      -7.8      5.092      7.314
REMARK  5 active torsions:
REMARK  status: ('A' for Active; 'I' for Inactive)
REMARK    1  A    between atoms: C1_2  and  C2_3 
REMARK       I    between atoms: C1_2  and  N2_13 
REMARK    2  A    between atoms: C3_4  and  C4_5 
REMARK    3  A    between atoms: C4_5  and  C5_6 
REMARK    4  A    between atoms: C5_6  and  N1_7 
REMARK    5  A    between atoms: N2_13  and  C11_14 
ROOT
HETATM    1  C11 UNL     1      25.809   4.445  49.617  1.00  0.00     0.124 A 
HETATM    2  C12 UNL     1      25.057   5.258  50.489  1.00  0.00     0.042 A 
HETATM    3  C13 UNL     1      24.036   4.449  50.580  1.00  0.00     0.082 A 
HETATM    4  C14 UNL     1      22.782   5.042  50.931  1.00  0.00     0.127 A 
HETATM    5  N3  UNL     1      21.545   5.419  51.288  1.00  0.00    -0.264 NA
HETATM    6  C15 UNL     1      20.744   4.325  51.570  1.00  0.00     0.223 A 
HETATM    7  N4  UNL     1      21.790   3.524  51.270  1.00  0.00    -0.265 NA
HETATM    8  C16 UNL     1      22.929   3.990  50.920  1.00  0.00     0.136 A 
HETATM    9  C17 UNL     1      23.818   3.307  50.025  1.00  0.00     0.123 A 
HETATM   10  N5  UNL     1      25.007   3.349  49.408  1.00  0.00    -0.254 NA
HETATM   11  C18 UNL     1      22.983   2.350  49.240  1.00  0.00     0.037 C 
HETATM   12  C19 UNL     1      22.266   3.418  48.778  1.00  0.00     0.072 C 
HETATM   13 CL1  UNL     1      21.327   2.259  47.884  1.00  0.00    -0.081 Cl
HETATM   14  C20 UNL     1      21.477   4.479  48.257  1.00  0.00     0.154 C 
HETATM   15  F1  UNL     1      20.154   4.701  48.455  1.00  0.00    -0.203 F 
HETATM   16  C21 UNL     1      22.586   4.927  47.680  1.00  0.00     0.046 C 
HETATM   17  S1  UNL     1      23.163   6.245  48.454  1.00  0.00    -0.180 SA
HETATM   18  C22 UNL     1      22.669   6.273  50.046  1.00  0.00     0.162 C 
ENDROOT
BRANCH   1  19
HETATM   19  N2  UNL     1      27.035   4.816  49.182  1.00  0.00    -0.301 N 
HETATM   20  C1  UNL     1      27.318   5.947  48.438  1.00  0.00     0.302 C 
HETATM   21  O1  UNL     1      26.529   6.825  48.031  1.00  0.00    -0.258 OA
HETATM   22  H15 UNL     1      27.700   4.092  49.517  1.00  0.00     0.171 HD
BRANCH  20  23
HETATM   23  C2  UNL     1      28.686   6.149  48.083  1.00  0.00    -0.005 C 
HETATM   24  C3  UNL     1      29.842   6.334  47.798  1.00  0.00    -0.095 C 
BRANCH  24  25
HETATM   25  C4  UNL     1      31.229   6.574  47.453  1.00  0.00     0.114 C 
BRANCH  25  26
HETATM   26  C5  UNL     1      32.202   5.758  48.283  1.00  0.00     0.129 C 
BRANCH  26  27
HETATM   27  N1  UNL     1      33.096   5.072  47.408  1.00  0.00    -0.412 N 
HETATM   28  C6  UNL     1      34.303   4.596  47.987  1.00  0.00     0.117 C 
HETATM   29  C7  UNL     1      34.559   3.137  47.771  1.00  0.00     0.019 C 
HETATM   30  C8  UNL     1      33.286   2.324  47.736  1.00  0.00     0.003 C 
HETATM   31  C9  UNL     1      32.349   2.822  46.688  1.00  0.00     0.019 C 
HETATM   32  C10 UNL     1      32.513   4.288  46.381  1.00  0.00     0.117 C 
ENDBRANCH  26  27
ENDBRANCH  25  26
ENDBRANCH  24  25
ENDBRANCH  20  23
ENDBRANCH   1  19
TORSDOF 5
ENDMDL
MODEL 8
REMARK VINA RESULT:      -7.6      5.562      8.259
REMARK  5 active torsions:
REMARK  status: ('A' for Active; 'I' for Inactive)
REMARK    1  A    between atoms: C1_2  and  C2_3 
REMARK       I    between atoms: C1_2  and  N2_13 
REMARK    2  A    between atoms: C3_4  and  C4_5 
REMARK    3  A    between atoms: C4_5  and  C5_6 
REMARK    4  A    between atoms: C5_6  and  N1_7 
REMARK    5  A    between atoms: N2_13  and  C11_14 
ROOT
HETATM    1  C11 UNL     1      25.011   4.093  50.662  1.00  0.00     0.124 A 
HETATM    2  C12 UNL     1      23.890   4.929  50.478  1.00  0.00     0.042 A 
HETATM    3  C13 UNL     1      23.075   4.224  51.215  1.00  0.00     0.082 A 
HETATM    4  C14 UNL     1      21.679   4.363  50.933  1.00  0.00     0.127 A 
HETATM    5  N3  UNL     1      20.342   4.402  50.833  1.00  0.00    -0.264 NA
HETATM    6  C15 UNL     1      19.736   3.776  51.910  1.00  0.00     0.223 A 
HETATM    7  N4  UNL     1      20.965   3.497  52.397  1.00  0.00    -0.265 NA
HETATM    8  C16 UNL     1      22.036   3.865  51.800  1.00  0.00     0.136 A 
HETATM    9  C17 UNL     1      23.264   3.126  51.861  1.00  0.00     0.123 A 
HETATM   10  N5  UNL     1      24.545   3.083  51.468  1.00  0.00    -0.254 NA
HETATM   11  C18 UNL     1      22.903   1.725  52.233  1.00  0.00     0.037 C 
HETATM   12  C19 UNL     1      22.145   1.662  51.098  1.00  0.00     0.072 C 
HETATM   13 CL1  UNL     1      21.760   0.036  51.578  1.00  0.00    -0.081 Cl
HETATM   14  C20 UNL     1      21.338   1.524  49.935  1.00  0.00     0.154 C 
HETATM   15  F1  UNL     1      19.998   1.328  49.877  1.00  0.00    -0.203 F 
HETATM   16  C21 UNL     1      22.450   1.694  49.228  1.00  0.00     0.046 C 
HETATM   17  S1  UNL     1      22.498   3.181  48.554  1.00  0.00    -0.180 SA
HETATM   18  C22 UNL     1      21.574   4.266  49.419  1.00  0.00     0.162 C 
ENDROOT
BRANCH   1  19
HETATM   19  N2  UNL     1      26.207   4.376  50.096  1.00  0.00    -0.301 N 
HETATM   20  C1  UNL     1      26.412   5.242  49.037  1.00  0.00     0.302 C 
HETATM   21  O1  UNL     1      25.569   5.915  48.411  1.00  0.00    -0.258 OA
HETATM   22  H15 UNL     1      26.917   3.821  50.611  1.00  0.00     0.171 HD
BRANCH  20  23
HETATM   23  C2  UNL     1      27.761   5.394  48.594  1.00  0.00    -0.005 C 
HETATM   24  C3  UNL     1      28.905   5.525  48.239  1.00  0.00    -0.095 C 
BRANCH  24  25
HETATM   25  C4  UNL     1      30.282   5.697  47.822  1.00  0.00     0.114 C 
BRANCH  25  26
HETATM   26  C5  UNL     1      31.222   6.006  48.972  1.00  0.00     0.129 C 
BRANCH  26  27
HETATM   27  N1  UNL     1      32.456   5.322  48.761  1.00  0.00    -0.412 N 
HETATM   28  C6  UNL     1      32.411   4.194  47.898  1.00  0.00     0.117 C 
HETATM   29  C7  UNL     1      33.393   4.241  46.769  1.00  0.00     0.019 C 
HETATM   30  C8  UNL     1      33.642   5.646  46.274  1.00  0.00     0.003 C 
HETATM   31  C9  UNL     1      34.111   6.537  47.375  1.00  0.00     0.019 C 
HETATM   32  C10 UNL     1      33.631   6.113  48.739  1.00  0.00     0.117 C 
ENDBRANCH  26  27
ENDBRANCH  25  26
ENDBRANCH  24  25
ENDBRANCH  20  23
ENDBRANCH   1  19
TORSDOF 5
ENDMDL
MODEL 9
REMARK VINA RESULT:      -7.5      5.659      7.782
REMARK  5 active torsions:
REMARK  status: ('A' for Active; 'I' for Inactive)
REMARK    1  A    between atoms: C1_2  and  C2_3 
REMARK       I    between atoms: C1_2  and  N2_13 
REMARK    2  A    between atoms: C3_4  and  C4_5 
REMARK    3  A    between atoms: C4_5  and  C5_6 
REMARK    4  A    between atoms: C5_6  and  N1_7 
REMARK    5  A    between atoms: N2_13  and  C11_14 
ROOT
HETATM    1  C11 UNL     1      24.435   5.878  49.099  1.00  0.00     0.124 A 
HETATM    2  C12 UNL     1      23.447   5.736  48.104  1.00  0.00     0.042 A 
HETATM    3  C13 UNL     1      22.434   5.686  48.926  1.00  0.00     0.082 A 
HETATM    4  C14 UNL     1      21.257   5.028  48.449  1.00  0.00     0.127 A 
HETATM    5  N3  UNL     1      20.066   4.486  48.152  1.00  0.00    -0.264 NA
HETATM    6  C15 UNL     1      19.109   4.820  49.096  1.00  0.00     0.223 A 
HETATM    7  N4  UNL     1      20.058   5.514  49.763  1.00  0.00    -0.265 NA
HETATM    8  C16 UNL     1      21.263   5.603  49.341  1.00  0.00     0.136 A 
HETATM    9  C17 UNL     1      22.394   5.733  50.213  1.00  0.00     0.123 A 
HETATM   10  N5  UNL     1      23.727   5.861  50.277  1.00  0.00    -0.254 NA
HETATM   11  C18 UNL     1      21.968   5.217  51.548  1.00  0.00     0.037 C 
HETATM   12  C19 UNL     1      21.720   4.010  50.957  1.00  0.00     0.072 C 
HETATM   13 CL1  UNL     1      21.237   3.462  52.535  1.00  0.00    -0.081 Cl
HETATM   14  C20 UNL     1      21.439   2.727  50.411  1.00  0.00     0.154 C 
HETATM   15  F1  UNL     1      20.238   2.104  50.338  1.00  0.00    -0.203 F 
HETATM   16  C21 UNL     1      22.733   2.647  50.117  1.00  0.00     0.046 C 
HETATM   17  S1  UNL     1      22.987   2.852  48.516  1.00  0.00    -0.180 SA
HETATM   18  C22 UNL     1      21.759   3.737  47.819  1.00  0.00     0.162 C 
ENDROOT
BRANCH   1  19
HETATM   19  N2  UNL     1      25.746   5.995  48.785  1.00  0.00    -0.301 N 
HETATM   20  C1  UNL     1      26.700   5.005  48.929  1.00  0.00     0.302 C 
HETATM   21  O1  UNL     1      26.554   3.843  49.360  1.00  0.00    -0.258 OA
HETATM   22  H15 UNL     1      25.879   6.960  48.423  1.00  0.00     0.171 HD
BRANCH  20  23
HETATM   23  C2  UNL     1      28.031   5.343  48.535  1.00  0.00    -0.005 C 
HETATM   24  C3  UNL     1      29.154   5.611  48.191  1.00  0.00    -0.095 C 
BRANCH  24  25
HETATM   25  C4  UNL     1      30.510   5.917  47.782  1.00  0.00     0.114 C 
BRANCH  25  26
HETATM   26  C5  UNL     1      31.354   4.680  47.537  1.00  0.00     0.129 C 
BRANCH  26  27
HETATM   27  N1  UNL     1      32.677   5.084  47.187  1.00  0.00    -0.412 N 
HETATM   28  C6  UNL     1      33.529   5.454  48.263  1.00  0.00     0.117 C 
HETATM   29  C7  UNL     1      34.834   4.722  48.298  1.00  0.00     0.019 C 
HETATM   30  C8  UNL     1      34.717   3.303  47.791  1.00  0.00     0.003 C 
HETATM   31  C9  UNL     1      34.164   3.262  46.406  1.00  0.00     0.019 C 
HETATM   32  C10 UNL     1      33.274   4.433  46.078  1.00  0.00     0.117 C 
ENDBRANCH  26  27
ENDBRANCH  25  26
ENDBRANCH  24  25
ENDBRANCH  20  23
ENDBRANCH   1  19
TORSDOF 5
ENDMDL
