MODEL 1
REMARK VINA RESULT:      -9.4      0.000      0.000
REMARK  2 active torsions:
REMARK  status: ('A' for Active; 'I' for Inactive)
REMARK    1  A    between atoms: C2_2  and  C3_4 
REMARK    2  A    between atoms: C4_6  and  N1_7 
ROOT
HETATM    1  N1  UNL     1      22.655   1.862  51.893  1.00  0.00    -0.309 N 
HETATM    2  C5  UNL     1      23.354   1.046  52.835  1.00  0.00     0.143 A 
HETATM    3  N2  UNL     1      24.654   1.243  53.001  1.00  0.00    -0.224 NA
HETATM    4  C6  UNL     1      25.486   0.555  53.793  1.00  0.00     0.236 A 
HETATM    5  N3  UNL     1      25.052  -0.488  54.558  1.00  0.00    -0.240 NA
HETATM    6  C7  UNL     1      23.706  -0.722  54.412  1.00  0.00     0.081 A 
HETATM    7  C8  UNL     1      22.996  -1.737  55.062  1.00  0.00     0.100 A 
HETATM    8  N4  UNL     1      21.734  -1.913  54.875  1.00  0.00    -0.229 NA
HETATM    9  C9  UNL     1      20.719  -1.538  54.302  1.00  0.00     0.090 A 
HETATM   10  C10 UNL     1      21.796  -0.703  53.893  1.00  0.00     0.170 A 
HETATM   11  C11 UNL     1      22.893   0.023  53.580  1.00  0.00     0.043 A 
HETATM   12  N5  UNL     1      19.594  -1.053  53.617  1.00  0.00    -0.308 N 
HETATM   13  C12 UNL     1      18.485  -0.583  52.955  1.00  0.00     0.301 C 
HETATM   14  O1  UNL     1      17.800  -1.089  53.821  1.00  0.00    -0.258 OA
HETATM   15  C13 UNL     1      18.481   0.162  51.775  1.00  0.00    -0.004 C 
HETATM   16  C14 UNL     1      18.496   0.766  50.835  1.00  0.00    -0.077 C 
HETATM   17  C15 UNL     1      18.540   1.536  49.650  1.00  0.00     0.212 C 
HETATM   18  N6  UNL     1      19.805   2.275  49.551  1.00  0.00    -0.396 N 
HETATM   19  C16 UNL     1      20.514   2.070  48.348  1.00  0.00     0.144 C 
HETATM   20  C17 UNL     1      21.802   1.306  48.488  1.00  0.00     0.190 C 
HETATM   21  O2  UNL     1      22.492   1.621  49.648  1.00  0.00    -0.363 OA
HETATM   22  C18 UNL     1      21.753   1.393  50.815  1.00  0.00     0.246 C 
HETATM   23  C19 UNL     1      20.570   2.292  50.769  1.00  0.00     0.171 C 
HETATM   24  H7  UNL     1      20.126  -0.807  52.766  1.00  0.00     0.170 HD
ENDROOT
BRANCH   1  25
HETATM   25  C4  UNL     1      22.835   3.266  51.941  1.00  0.00     0.139 C 
HETATM   26  C3  UNL     1      23.197   4.464  52.428  1.00  0.00     0.149 C 
HETATM   27  F1  UNL     1      23.776   4.775  53.589  1.00  0.00    -0.203 F 
BRANCH  26  28
HETATM   28  C2  UNL     1      22.923   5.629  51.566  1.00  0.00     0.049 A 
HETATM   29  C1  UNL     1      22.549   6.608  50.797  1.00  0.00     0.156 A 
HETATM   30 CL1  UNL     1      24.209   6.803  51.212  1.00  0.00    -0.178 Cl
ENDBRANCH  26  28
ENDBRANCH   1  25
TORSDOF 2
ENDMDL
MODEL 2
REMARK VINA RESULT:      -9.2      1.718      2.658
REMARK  2 active torsions:
REMARK  status: ('A' for Active; 'I' for Inactive)
REMARK    1  A    between atoms: C2_2  and  C3_4 
REMARK    2  A    between atoms: C4_6  and  N1_7 
ROOT
HETATM    1  N1  UNL     1      23.495   2.513  51.389  1.00  0.00    -0.309 N 
HETATM    2  C5  UNL     1      24.821   2.169  51.797  1.00  0.00     0.143 A 
HETATM    3  N2  UNL     1      25.838   2.841  51.276  1.00  0.00    -0.224 NA
HETATM    4  C6  UNL     1      27.143   2.637  51.492  1.00  0.00     0.236 A 
HETATM    5  N3  UNL     1      27.588   1.652  52.325  1.00  0.00    -0.240 NA
HETATM    6  C7  UNL     1      26.560   0.934  52.885  1.00  0.00     0.081 A 
HETATM    7  C8  UNL     1      26.723  -0.144  53.763  1.00  0.00     0.100 A 
HETATM    8  N4  UNL     1      25.717  -0.786  54.247  1.00  0.00    -0.229 NA
HETATM    9  C9  UNL     1      24.499  -0.899  54.299  1.00  0.00     0.090 A 
HETATM   10  C10 UNL     1      24.811   0.184  53.429  1.00  0.00     0.170 A 
HETATM   11  C11 UNL     1      25.227   1.190  52.627  1.00  0.00     0.043 A 
HETATM   12  N5  UNL     1      23.098  -0.968  54.316  1.00  0.00    -0.308 N 
HETATM   13  C12 UNL     1      21.725  -1.042  54.344  1.00  0.00     0.301 C 
HETATM   14  O1  UNL     1      21.816  -1.605  55.416  1.00  0.00    -0.258 OA
HETATM   15  C13 UNL     1      20.852  -0.557  53.371  1.00  0.00    -0.004 C 
HETATM   16  C14 UNL     1      20.166  -0.153  52.586  1.00  0.00    -0.077 C 
HETATM   17  C15 UNL     1      19.318   0.372  51.584  1.00  0.00     0.212 C 
HETATM   18  N6  UNL     1      19.964   1.484  50.878  1.00  0.00    -0.396 N 
HETATM   19  C16 UNL     1      20.006   1.347  49.474  1.00  0.00     0.144 C 
HETATM   20  C17 UNL     1      21.376   1.127  48.894  1.00  0.00     0.190 C 
HETATM   21  O2  UNL     1      22.360   1.856  49.544  1.00  0.00    -0.363 OA
HETATM   22  C18 UNL     1      22.447   1.579  50.912  1.00  0.00     0.246 C 
HETATM   23  C19 UNL     1      21.152   1.977  51.524  1.00  0.00     0.171 C 
HETATM   24  H7  UNL     1      22.998  -0.696  53.324  1.00  0.00     0.170 HD
ENDROOT
BRANCH   1  25
HETATM   25  C4  UNL     1      23.110   3.875  51.399  1.00  0.00     0.139 C 
HETATM   26  C3  UNL     1      23.102   5.169  51.757  1.00  0.00     0.149 C 
HETATM   27  F1  UNL     1      23.844   5.810  52.662  1.00  0.00    -0.203 F 
BRANCH  26  28
HETATM   28  C2  UNL     1      22.133   6.034  51.059  1.00  0.00     0.049 A 
HETATM   29  C1  UNL     1      21.183   6.694  50.464  1.00  0.00     0.156 A 
HETATM   30 CL1  UNL     1      22.625   7.635  50.468  1.00  0.00    -0.178 Cl
ENDBRANCH  26  28
ENDBRANCH   1  25
TORSDOF 2
ENDMDL
MODEL 3
REMARK VINA RESULT:      -8.7      2.875      5.389
REMARK  2 active torsions:
REMARK  status: ('A' for Active; 'I' for Inactive)
REMARK    1  A    between atoms: C2_2  and  C3_4 
REMARK    2  A    between atoms: C4_6  and  N1_7 
ROOT
HETATM    1  N1  UNL     1      22.269   2.153  51.150  1.00  0.00    -0.309 N 
HETATM    2  C5  UNL     1      21.747   1.288  52.161  1.00  0.00     0.143 A 
HETATM    3  N2  UNL     1      20.439   1.279  52.374  1.00  0.00    -0.224 NA
HETATM    4  C6  UNL     1      19.770   0.582  53.300  1.00  0.00     0.236 A 
HETATM    5  N3  UNL     1      20.410  -0.244  54.178  1.00  0.00    -0.240 NA
HETATM    6  C7  UNL     1      21.770  -0.261  53.988  1.00  0.00     0.081 A 
HETATM    7  C8  UNL     1      22.676  -1.005  54.753  1.00  0.00     0.100 A 
HETATM    8  N4  UNL     1      23.944  -0.970  54.531  1.00  0.00    -0.229 NA
HETATM    9  C9  UNL     1      24.856  -0.515  53.852  1.00  0.00     0.090 A 
HETATM   10  C10 UNL     1      23.630   0.030  53.376  1.00  0.00     0.170 A 
HETATM   11  C11 UNL     1      22.408   0.480  53.012  1.00  0.00     0.043 A 
HETATM   12  N5  UNL     1      25.851   0.039  53.033  1.00  0.00    -0.308 N 
HETATM   13  C12 UNL     1      26.833   0.572  52.232  1.00  0.00     0.301 C 
HETATM   14  O1  UNL     1      27.533  -0.376  52.524  1.00  0.00    -0.258 OA
HETATM   15  C13 UNL     1      26.747   1.753  51.495  1.00  0.00    -0.004 C 
HETATM   16  C14 UNL     1      26.658   2.698  50.903  1.00  0.00    -0.077 C 
HETATM   17  C15 UNL     1      26.519   3.890  50.156  1.00  0.00     0.212 C 
HETATM   18  N6  UNL     1      25.110   4.148  49.836  1.00  0.00    -0.396 N 
HETATM   19  C16 UNL     1      24.643   5.423  50.220  1.00  0.00     0.144 C 
HETATM   20  C17 UNL     1      23.642   5.425  51.342  1.00  0.00     0.190 C 
HETATM   21  O2  UNL     1      22.759   4.359  51.279  1.00  0.00    -0.363 OA
HETATM   22  C18 UNL     1      23.390   3.111  51.298  1.00  0.00     0.246 C 
HETATM   23  C19 UNL     1      24.239   3.029  50.080  1.00  0.00     0.171 C 
HETATM   24  H7  UNL     1      25.372   0.950  52.941  1.00  0.00     0.170 HD
ENDROOT
BRANCH   1  25
HETATM   25  C4  UNL     1      21.665   2.146  49.870  1.00  0.00     0.139 C 
HETATM   26  C3  UNL     1      21.371   1.727  48.628  1.00  0.00     0.149 C 
HETATM   27  F1  UNL     1      21.811   0.659  47.960  1.00  0.00    -0.203 F 
BRANCH  26  28
HETATM   28  C2  UNL     1      20.421   2.558  47.866  1.00  0.00     0.049 A 
HETATM   29  C1  UNL     1      19.482   3.237  47.274  1.00  0.00     0.156 A 
HETATM   30 CL1  UNL     1      21.006   3.633  46.578  1.00  0.00    -0.178 Cl
ENDBRANCH  26  28
ENDBRANCH   1  25
TORSDOF 2
ENDMDL
MODEL 4
REMARK VINA RESULT:      -8.0      3.359      6.307
REMARK  2 active torsions:
REMARK  status: ('A' for Active; 'I' for Inactive)
REMARK    1  A    between atoms: C2_2  and  C3_4 
REMARK    2  A    between atoms: C4_6  and  N1_7 
ROOT
HETATM    1  N1  UNL     1      22.267   3.414  50.642  1.00  0.00    -0.309 N 
HETATM    2  C5  UNL     1      22.877   2.441  51.493  1.00  0.00     0.143 A 
HETATM    3  N2  UNL     1      22.097   1.691  52.258  1.00  0.00    -0.224 NA
HETATM    4  C6  UNL     1      22.478   0.769  53.150  1.00  0.00     0.236 A 
HETATM    5  N3  UNL     1      23.794   0.490  53.378  1.00  0.00    -0.240 NA
HETATM    6  C7  UNL     1      24.634   1.249  52.601  1.00  0.00     0.081 A 
HETATM    7  C8  UNL     1      26.032   1.186  52.637  1.00  0.00     0.100 A 
HETATM    8  N4  UNL     1      26.767   1.934  51.890  1.00  0.00    -0.229 NA
HETATM    9  C9  UNL     1      26.806   2.806  51.031  1.00  0.00     0.090 A 
HETATM   10  C10 UNL     1      25.440   2.533  51.328  1.00  0.00     0.170 A 
HETATM   11  C11 UNL     1      24.185   2.188  51.693  1.00  0.00     0.043 A 
HETATM   12  N5  UNL     1      26.777   3.802  50.043  1.00  0.00    -0.308 N 
HETATM   13  C12 UNL     1      26.760   4.774  49.071  1.00  0.00     0.301 C 
HETATM   14  O1  UNL     1      27.870   4.410  48.741  1.00  0.00    -0.258 OA
HETATM   15  C13 UNL     1      25.719   5.666  48.813  1.00  0.00    -0.004 C 
HETATM   16  C14 UNL     1      24.872   6.368  48.614  1.00  0.00    -0.077 C 
HETATM   17  C15 UNL     1      23.784   7.239  48.375  1.00  0.00     0.212 C 
HETATM   18  N6  UNL     1      22.520   6.631  48.807  1.00  0.00    -0.396 N 
HETATM   19  C16 UNL     1      21.761   7.420  49.698  1.00  0.00     0.144 C 
HETATM   20  C17 UNL     1      21.666   6.886  51.101  1.00  0.00     0.190 C 
HETATM   21  O2  UNL     1      21.563   5.505  51.146  1.00  0.00    -0.363 OA
HETATM   22  C18 UNL     1      22.633   4.845  50.530  1.00  0.00     0.246 C 
HETATM   23  C19 UNL     1      22.614   5.224  49.093  1.00  0.00     0.171 C 
HETATM   24  H7  UNL     1      25.943   4.271  50.434  1.00  0.00     0.170 HD
ENDROOT
BRANCH   1  25
HETATM   25  C4  UNL     1      21.182   3.018  49.823  1.00  0.00     0.139 C 
HETATM   26  C3  UNL     1      20.376   2.203  49.123  1.00  0.00     0.149 C 
HETATM   27  F1  UNL     1      20.448   0.884  48.935  1.00  0.00    -0.203 F 
BRANCH  26  28
HETATM   28  C2  UNL     1      19.231   2.840  48.447  1.00  0.00     0.049 A 
HETATM   29  C1  UNL     1      18.160   3.409  47.978  1.00  0.00     0.156 A 
HETATM   30 CL1  UNL     1      19.275   3.133  46.695  1.00  0.00    -0.178 Cl
ENDBRANCH  26  28
ENDBRANCH   1  25
TORSDOF 2
ENDMDL
MODEL 5
REMARK VINA RESULT:      -7.9     10.095     13.392
REMARK  2 active torsions:
REMARK  status: ('A' for Active; 'I' for Inactive)
REMARK    1  A    between atoms: C2_2  and  C3_4 
REMARK    2  A    between atoms: C4_6  and  N1_7 
ROOT
HETATM    1  N1  UNL     1      30.777   7.195  47.394  1.00  0.00    -0.309 N 
HETATM    2  C5  UNL     1      29.493   7.040  48.002  1.00  0.00     0.143 A 
HETATM    3  N2  UNL     1      28.913   5.849  47.961  1.00  0.00    -0.224 NA
HETATM    4  C6  UNL     1      27.702   5.518  48.425  1.00  0.00     0.236 A 
HETATM    5  N3  UNL     1      26.888   6.434  49.027  1.00  0.00    -0.240 NA
HETATM    6  C7  UNL     1      27.457   7.682  49.088  1.00  0.00     0.081 A 
HETATM    7  C8  UNL     1      26.844   8.815  49.635  1.00  0.00     0.100 A 
HETATM    8  N4  UNL     1      27.427   9.963  49.653  1.00  0.00    -0.229 NA
HETATM    9  C9  UNL     1      28.425  10.613  49.368  1.00  0.00     0.090 A 
HETATM   10  C10 UNL     1      28.632   9.269  48.947  1.00  0.00     0.170 A 
HETATM   11  C11 UNL     1      28.715   7.967  48.593  1.00  0.00     0.043 A 
HETATM   12  N5  UNL     1      29.600  11.296  49.018  1.00  0.00    -0.308 N 
HETATM   13  C12 UNL     1      30.749  11.973  48.684  1.00  0.00     0.301 C 
HETATM   14  O1  UNL     1      30.470  12.789  49.540  1.00  0.00    -0.258 OA
HETATM   15  C13 UNL     1      31.671  11.604  47.705  1.00  0.00    -0.004 C 
HETATM   16  C14 UNL     1      32.405  11.288  46.923  1.00  0.00    -0.077 C 
HETATM   17  C15 UNL     1      33.323  10.864  45.935  1.00  0.00     0.212 C 
HETATM   18  N6  UNL     1      33.268   9.408  45.758  1.00  0.00    -0.396 N 
HETATM   19  C16 UNL     1      33.057   8.984  44.428  1.00  0.00     0.144 C 
HETATM   20  C17 UNL     1      31.721   8.345  44.166  1.00  0.00     0.190 C 
HETATM   21  O2  UNL     1      31.287   7.553  45.218  1.00  0.00    -0.363 OA
HETATM   22  C18 UNL     1      31.178   8.245  46.429  1.00  0.00     0.246 C 
HETATM   23  C19 UNL     1      32.540   8.719  46.789  1.00  0.00     0.171 C 
HETATM   24  H7  UNL     1      29.747  10.752  48.152  1.00  0.00     0.170 HD
ENDROOT
BRANCH   1  25
HETATM   25  C4  UNL     1      31.792   6.255  47.696  1.00  0.00     0.139 C 
HETATM   26  C3  UNL     1      32.376   5.058  47.873  1.00  0.00     0.149 C 
HETATM   27  F1  UNL     1      31.871   3.832  47.732  1.00  0.00    -0.203 F 
BRANCH  26  28
HETATM   28  C2  UNL     1      33.791   5.077  48.288  1.00  0.00     0.049 A 
HETATM   29  C1  UNL     1      35.011   5.217  48.715  1.00  0.00     0.156 A 
HETATM   30 CL1  UNL     1      34.865   3.725  47.868  1.00  0.00    -0.178 Cl
ENDBRANCH  26  28
ENDBRANCH   1  25
TORSDOF 2
ENDMDL
MODEL 6
REMARK VINA RESULT:      -7.9      2.556      5.108
REMARK  2 active torsions:
REMARK  status: ('A' for Active; 'I' for Inactive)
REMARK    1  A    between atoms: C2_2  and  C3_4 
REMARK    2  A    between atoms: C4_6  and  N1_7 
ROOT
HETATM    1  N1  UNL     1      21.133   1.761  51.300  1.00  0.00    -0.309 N 
HETATM    2  C5  UNL     1      20.265   0.815  51.926  1.00  0.00     0.143 A 
HETATM    3  N2  UNL     1      18.974   0.844  51.626  1.00  0.00    -0.224 NA
HETATM    4  C6  UNL     1      18.002   0.081  52.140  1.00  0.00     0.236 A 
HETATM    5  N3  UNL     1      18.258  -0.867  53.087  1.00  0.00    -0.240 NA
HETATM    6  C7  UNL     1      19.588  -0.927  53.425  1.00  0.00     0.081 A 
HETATM    7  C8  UNL     1      20.133  -1.793  54.379  1.00  0.00     0.100 A 
HETATM    8  N4  UNL     1      21.390  -1.794  54.659  1.00  0.00    -0.229 NA
HETATM    9  C9  UNL     1      22.493  -1.310  54.436  1.00  0.00     0.090 A 
HETATM   10  C10 UNL     1      21.541  -0.658  53.601  1.00  0.00     0.170 A 
HETATM   11  C11 UNL     1      20.551  -0.113  52.859  1.00  0.00     0.043 A 
HETATM   12  N5  UNL     1      23.726  -0.716  54.126  1.00  0.00    -0.308 N 
HETATM   13  C12 UNL     1      24.939  -0.144  53.826  1.00  0.00     0.301 C 
HETATM   14  O1  UNL     1      25.474  -1.151  54.245  1.00  0.00    -0.258 OA
HETATM   15  C13 UNL     1      25.142   1.114  53.260  1.00  0.00    -0.004 C 
HETATM   16  C14 UNL     1      25.287   2.122  52.797  1.00  0.00    -0.077 C 
HETATM   17  C15 UNL     1      25.444   3.395  52.204  1.00  0.00     0.212 C 
HETATM   18  N6  UNL     1      24.264   3.753  51.408  1.00  0.00    -0.396 N 
HETATM   19  C16 UNL     1      23.687   4.999  51.738  1.00  0.00     0.144 C 
HETATM   20  C17 UNL     1      22.334   4.923  52.390  1.00  0.00     0.190 C 
HETATM   21  O2  UNL     1      21.540   3.914  51.870  1.00  0.00    -0.363 OA
HETATM   22  C18 UNL     1      22.115   2.642  51.975  1.00  0.00     0.246 C 
HETATM   23  C19 UNL     1      23.364   2.657  51.168  1.00  0.00     0.171 C 
HETATM   24  H7  UNL     1      23.319   0.221  53.971  1.00  0.00     0.170 HD
ENDROOT
BRANCH   1  25
HETATM   25  C4  UNL     1      21.062   1.925  49.895  1.00  0.00     0.139 C 
HETATM   26  C3  UNL     1      21.258   1.658  48.594  1.00  0.00     0.149 C 
HETATM   27  F1  UNL     1      21.904   0.642  48.017  1.00  0.00    -0.203 F 
BRANCH  26  28
HETATM   28  C2  UNL     1      20.682   2.619  47.636  1.00  0.00     0.049 A 
HETATM   29  C1  UNL     1      20.050   3.406  46.816  1.00  0.00     0.156 A 
HETATM   30 CL1  UNL     1      21.717   3.834  46.855  1.00  0.00    -0.178 Cl
ENDBRANCH  26  28
ENDBRANCH   1  25
TORSDOF 2
ENDMDL
MODEL 7
REMARK VINA RESULT:      -7.6      2.387      5.352
REMARK  2 active torsions:
REMARK  status: ('A' for Active; 'I' for Inactive)
REMARK    1  A    between atoms: C2_2  and  C3_4 
REMARK    2  A    between atoms: C4_6  and  N1_7 
ROOT
HETATM    1  N1  UNL     1      20.318   2.322  50.389  1.00  0.00    -0.309 N 
HETATM    2  C5  UNL     1      18.992   1.804  50.507  1.00  0.00     0.143 A 
HETATM    3  N2  UNL     1      18.034   2.338  49.763  1.00  0.00    -0.224 NA
HETATM    4  C6  UNL     1      16.733   2.027  49.767  1.00  0.00     0.236 A 
HETATM    5  N3  UNL     1      16.226   1.065  50.592  1.00  0.00    -0.240 NA
HETATM    6  C7  UNL     1      17.191   0.487  51.380  1.00  0.00     0.081 A 
HETATM    7  C8  UNL     1      16.956  -0.513  52.330  1.00  0.00     0.100 A 
HETATM    8  N4  UNL     1      17.904  -1.008  53.047  1.00  0.00    -0.229 NA
HETATM    9  C9  UNL     1      19.098  -1.002  53.317  1.00  0.00     0.090 A 
HETATM   10  C10 UNL     1      18.866  -0.036  52.297  1.00  0.00     0.170 A 
HETATM   11  C11 UNL     1      18.524   0.848  51.333  1.00  0.00     0.043 A 
HETATM   12  N5  UNL     1      20.477  -0.948  53.571  1.00  0.00    -0.308 N 
HETATM   13  C12 UNL     1      21.828  -0.906  53.824  1.00  0.00     0.301 C 
HETATM   14  O1  UNL     1      21.743  -2.037  54.257  1.00  0.00    -0.258 OA
HETATM   15  C13 UNL     1      22.684   0.164  53.563  1.00  0.00    -0.004 C 
HETATM   16  C14 UNL     1      23.359   1.027  53.339  1.00  0.00    -0.077 C 
HETATM   17  C15 UNL     1      24.193   2.127  53.038  1.00  0.00     0.212 C 
HETATM   18  N6  UNL     1      23.645   2.915  51.927  1.00  0.00    -0.396 N 
HETATM   19  C16 UNL     1      23.486   4.290  52.202  1.00  0.00     0.144 C 
HETATM   20  C17 UNL     1      22.062   4.763  52.296  1.00  0.00     0.190 C 
HETATM   21  O2  UNL     1      21.227   4.144  51.378  1.00  0.00    -0.363 OA
HETATM   22  C18 UNL     1      21.203   2.750  51.498  1.00  0.00     0.246 C 
HETATM   23  C19 UNL     1      22.578   2.261  51.217  1.00  0.00     0.171 C 
HETATM   24  H7  UNL     1      20.540   0.072  53.418  1.00  0.00     0.170 HD
ENDROOT
BRANCH   1  25
HETATM   25  C4  UNL     1      20.873   2.486  49.096  1.00  0.00     0.139 C 
HETATM   26  C3  UNL     1      21.582   2.193  47.994  1.00  0.00     0.149 C 
HETATM   27  F1  UNL     1      22.314   1.114  47.709  1.00  0.00    -0.203 F 
BRANCH  26  28
HETATM   28  C2  UNL     1      21.566   3.204  46.920  1.00  0.00     0.049 A 
HETATM   29  C1  UNL     1      21.465   4.009  45.904  1.00  0.00     0.156 A 
HETATM   30 CL1  UNL     1      22.490   4.711  47.096  1.00  0.00    -0.178 Cl
ENDBRANCH  26  28
ENDBRANCH   1  25
TORSDOF 2
ENDMDL
MODEL 8
REMARK VINA RESULT:      -7.4     10.116     13.282
REMARK  2 active torsions:
REMARK  status: ('A' for Active; 'I' for Inactive)
REMARK    1  A    between atoms: C2_2  and  C3_4 
REMARK    2  A    between atoms: C4_6  and  N1_7 
ROOT
HETATM    1  N1  UNL     1      30.464   6.829  47.690  1.00  0.00    -0.309 N 
HETATM    2  C5  UNL     1      31.456   5.869  47.320  1.00  0.00     0.143 A 
HETATM    3  N2  UNL     1      31.630   4.807  48.094  1.00  0.00    -0.224 NA
HETATM    4  C6  UNL     1      32.533   3.831  47.944  1.00  0.00     0.236 A 
HETATM    5  N3  UNL     1      33.426   3.830  46.912  1.00  0.00    -0.240 NA
HETATM    6  C7  UNL     1      33.276   4.918  46.087  1.00  0.00     0.081 A 
HETATM    7  C8  UNL     1      34.064   5.182  44.962  1.00  0.00     0.100 A 
HETATM    8  N4  UNL     1      33.881   6.227  44.232  1.00  0.00    -0.229 NA
HETATM    9  C9  UNL     1      33.231   7.248  44.045  1.00  0.00     0.090 A 
HETATM   10  C10 UNL     1      32.721   6.601  45.206  1.00  0.00     0.170 A 
HETATM   11  C11 UNL     1      32.322   5.897  46.289  1.00  0.00     0.043 A 
HETATM   12  N5  UNL     1      32.443   8.399  43.887  1.00  0.00    -0.308 N 
HETATM   13  C12 UNL     1      31.674   9.526  43.720  1.00  0.00     0.301 C 
HETATM   14  O1  UNL     1      31.984   9.517  42.546  1.00  0.00    -0.258 OA
HETATM   15  C13 UNL     1      30.940  10.180  44.710  1.00  0.00    -0.004 C 
HETATM   16  C14 UNL     1      30.350  10.686  45.513  1.00  0.00    -0.077 C 
HETATM   17  C15 UNL     1      29.605  11.303  46.544  1.00  0.00     0.212 C 
HETATM   18  N6  UNL     1      29.243  10.333  47.585  1.00  0.00    -0.396 N 
HETATM   19  C16 UNL     1      29.618  10.706  48.893  1.00  0.00     0.144 C 
HETATM   20  C17 UNL     1      30.711   9.874  49.506  1.00  0.00     0.190 C 
HETATM   21  O2  UNL     1      30.617   8.532  49.174  1.00  0.00    -0.363 OA
HETATM   22  C18 UNL     1      30.649   8.296  47.795  1.00  0.00     0.246 C 
HETATM   23  C19 UNL     1      29.457   8.962  47.207  1.00  0.00     0.171 C 
HETATM   24  H7  UNL     1      32.342   8.559  44.903  1.00  0.00     0.170 HD
ENDROOT
BRANCH   1  25
HETATM   25  C4  UNL     1      29.166   6.374  48.026  1.00  0.00     0.139 C 
HETATM   26  C3  UNL     1      28.178   5.508  48.303  1.00  0.00     0.149 C 
HETATM   27  F1  UNL     1      28.198   4.175  48.352  1.00  0.00    -0.203 F 
BRANCH  26  28
HETATM   28  C2  UNL     1      26.859   6.096  48.599  1.00  0.00     0.049 A 
HETATM   29  C1  UNL     1      25.753   6.740  48.831  1.00  0.00     0.156 A 
HETATM   30 CL1  UNL     1      25.498   5.053  49.065  1.00  0.00    -0.178 Cl
ENDBRANCH  26  28
ENDBRANCH   1  25
TORSDOF 2
ENDMDL
MODEL 9
REMARK VINA RESULT:      -7.3      4.394      7.524
REMARK  2 active torsions:
REMARK  status: ('A' for Active; 'I' for Inactive)
REMARK    1  A    between atoms: C2_2  and  C3_4 
REMARK    2  A    between atoms: C4_6  and  N1_7 
ROOT
HETATM    1  N1  UNL     1      22.652   4.959  48.832  1.00  0.00    -0.309 N 
HETATM    2  C5  UNL     1      22.814   3.823  49.684  1.00  0.00     0.143 A 
HETATM    3  N2  UNL     1      21.729   3.204  50.128  1.00  0.00    -0.224 NA
HETATM    4  C6  UNL     1      21.672   2.163  50.967  1.00  0.00     0.236 A 
HETATM    5  N3  UNL     1      22.800   1.596  51.486  1.00  0.00    -0.240 NA
HETATM    6  C7  UNL     1      23.947   2.212  51.048  1.00  0.00     0.081 A 
HETATM    7  C8  UNL     1      25.244   1.853  51.430  1.00  0.00     0.100 A 
HETATM    8  N4  UNL     1      26.281   2.478  50.992  1.00  0.00    -0.229 NA
HETATM    9  C9  UNL     1      26.715   3.379  50.285  1.00  0.00     0.090 A 
HETATM   10  C10 UNL     1      25.294   3.381  50.190  1.00  0.00     0.170 A 
HETATM   11  C11 UNL     1      23.946   3.285  50.178  1.00  0.00     0.043 A 
HETATM   12  N5  UNL     1      27.143   4.424  49.453  1.00  0.00    -0.308 N 
HETATM   13  C12 UNL     1      27.574   5.442  48.636  1.00  0.00     0.301 C 
HETATM   14  O1  UNL     1      28.645   4.874  48.557  1.00  0.00    -0.258 OA
HETATM   15  C13 UNL     1      26.828   6.550  48.234  1.00  0.00    -0.004 C 
HETATM   16  C14 UNL     1      26.213   7.427  47.913  1.00  0.00    -0.077 C 
HETATM   17  C15 UNL     1      25.414   8.523  47.514  1.00  0.00     0.212 C 
HETATM   18  N6  UNL     1      23.990   8.168  47.532  1.00  0.00    -0.396 N 
HETATM   19  C16 UNL     1      23.176   9.036  48.291  1.00  0.00     0.144 C 
HETATM   20  C17 UNL     1      22.603   8.440  49.547  1.00  0.00     0.190 C 
HETATM   21  O2  UNL     1      22.237   7.111  49.395  1.00  0.00    -0.363 OA
HETATM   22  C18 UNL     1      23.293   6.285  48.995  1.00  0.00     0.246 C 
HETATM   23  C19 UNL     1      23.739   6.757  47.658  1.00  0.00     0.171 C 
HETATM   24  H7  UNL     1      26.336   5.030  49.674  1.00  0.00     0.170 HD
ENDROOT
BRANCH   1  25
HETATM   25  C4  UNL     1      21.778   4.859  47.722  1.00  0.00     0.139 C 
HETATM   26  C3  UNL     1      20.703   4.491  47.007  1.00  0.00     0.149 C 
HETATM   27  F1  UNL     1      19.658   3.740  47.358  1.00  0.00    -0.203 F 
BRANCH  26  28
HETATM   28  C2  UNL     1      20.646   4.980  45.617  1.00  0.00     0.049 A 
HETATM   29  C1  UNL     1      20.577   5.539  44.444  1.00  0.00     0.156 A 
HETATM   30 CL1  UNL     1      20.841   3.847  44.261  1.00  0.00    -0.178 Cl
ENDBRANCH  26  28
ENDBRANCH   1  25
TORSDOF 2
ENDMDL
