MODEL 1
REMARK VINA RESULT:      -7.3      0.000      0.000
REMARK  7 active torsions:
REMARK  status: ('A' for Active; 'I' for Inactive)
REMARK    1  A    between atoms: C3_3  and  C4_4 
REMARK    2  A    between atoms: C4_4  and  N1_5 
REMARK    3  A    between atoms: N1_5  and  C5_6 
REMARK    4  A    between atoms: C5_6  and  C6_7 
REMARK    5  A    between atoms: C6_7  and  N2_8 
REMARK    6  A    between atoms: N2_8  and  C7_9 
REMARK    7  A    between atoms: C13_18  and  O2_19 
ROOT
HETATM    1  C7  UNL     1      24.786  -0.297  54.125  1.00  0.00     0.137 A 
HETATM    2  N3  UNL     1      25.221  -0.959  55.273  1.00  0.00    -0.224 NA
HETATM    3  C8  UNL     1      24.189  -1.577  55.935  1.00  0.00     0.235 A 
HETATM    4  N4  UNL     1      22.926  -1.573  55.574  1.00  0.00    -0.241 NA
HETATM    5  C9  UNL     1      22.481  -0.922  54.442  1.00  0.00     0.075 A 
HETATM    6  C10 UNL     1      21.099  -1.067  54.299  1.00  0.00     0.072 A 
HETATM    7  C11 UNL     1      20.719  -0.344  53.131  1.00  0.00     0.103 A 
HETATM    8  O1  UNL     1      19.511  -0.254  52.695  1.00  0.00    -0.353 OA
HETATM    9  C12 UNL     1      18.291  -0.180  52.283  1.00  0.00     0.210 C 
HETATM   10  C13 UNL     1      21.604   0.298  52.394  1.00  0.00     0.102 A 
HETATM   11  C15 UNL     1      22.998   0.396  52.607  1.00  0.00     0.057 A 
HETATM   12  C16 UNL     1      23.480  -0.304  53.775  1.00  0.00     0.041 A 
ENDROOT
BRANCH  10  13
HETATM   13  O2  UNL     1      21.460   1.090  51.158  1.00  0.00    -0.353 OA
HETATM   14  C14 UNL     1      22.465   1.517  50.401  1.00  0.00     0.210 C 
ENDBRANCH  10  13
BRANCH   1  15
HETATM   15  N2  UNL     1      25.598   0.465  53.199  1.00  0.00    -0.372 N 
HETATM   16  H13 UNL     1      26.085   1.012  53.937  1.00  0.00     0.161 HD
BRANCH  15  17
HETATM   17  C6  UNL     1      26.372   1.193  52.321  1.00  0.00     0.140 C 
BRANCH  17  18
HETATM   18  C5  UNL     1      27.650   1.730  52.869  1.00  0.00     0.133 C 
BRANCH  18  19
HETATM   19  N1  UNL     1      27.968   1.659  54.214  1.00  0.00    -0.417 N 
HETATM   20  H8  UNL     1      27.210   2.000  54.872  1.00  0.00     0.153 HD
BRANCH  19  21
HETATM   21  C4  UNL     1      28.599   0.509  54.700  1.00  0.00     0.141 C 
BRANCH  21  22
HETATM   22  C3  UNL     1      29.775   0.130  53.803  1.00  0.00    -0.012 C 
HETATM   23  C2  UNL     1      29.864  -1.052  53.255  1.00  0.00    -0.033 C 
HETATM   24  C1  UNL     1      29.017  -2.262  53.286  1.00  0.00     0.036 C 
ENDBRANCH  21  22
ENDBRANCH  19  21
ENDBRANCH  18  19
ENDBRANCH  17  18
ENDBRANCH  15  17
ENDBRANCH   1  15
TORSDOF 7
ENDMDL
MODEL 2
REMARK VINA RESULT:      -7.1      3.932      6.147
REMARK  7 active torsions:
REMARK  status: ('A' for Active; 'I' for Inactive)
REMARK    1  A    between atoms: C3_3  and  C4_4 
REMARK    2  A    between atoms: C4_4  and  N1_5 
REMARK    3  A    between atoms: N1_5  and  C5_6 
REMARK    4  A    between atoms: C5_6  and  C6_7 
REMARK    5  A    between atoms: C6_7  and  N2_8 
REMARK    6  A    between atoms: N2_8  and  C7_9 
REMARK    7  A    between atoms: C13_18  and  O2_19 
ROOT
HETATM    1  C7  UNL     1      23.419   1.776  52.725  1.00  0.00     0.137 A 
HETATM    2  N3  UNL     1      22.208   1.106  52.896  1.00  0.00    -0.224 NA
HETATM    3  C8  UNL     1      22.390  -0.212  53.235  1.00  0.00     0.235 A 
HETATM    4  N4  UNL     1      23.545  -0.818  53.391  1.00  0.00    -0.241 NA
HETATM    5  C9  UNL     1      24.751  -0.170  53.225  1.00  0.00     0.075 A 
HETATM    6  C10 UNL     1      25.818  -1.045  53.438  1.00  0.00     0.072 A 
HETATM    7  C11 UNL     1      27.018  -0.308  53.218  1.00  0.00     0.103 A 
HETATM    8  O1  UNL     1      28.201  -0.802  53.321  1.00  0.00    -0.353 OA
HETATM    9  C12 UNL     1      29.376  -1.325  53.430  1.00  0.00     0.210 C 
HETATM   10  C13 UNL     1      26.997   0.968  52.887  1.00  0.00     0.102 A 
HETATM   11  C15 UNL     1      25.865   1.792  52.691  1.00  0.00     0.057 A 
HETATM   12  C16 UNL     1      24.597   1.130  52.888  1.00  0.00     0.041 A 
ENDROOT
BRANCH  10  13
HETATM   13  O2  UNL     1      28.083   1.931  52.624  1.00  0.00    -0.353 OA
HETATM   14  C14 UNL     1      28.794   2.556  53.556  1.00  0.00     0.210 C 
ENDBRANCH  10  13
BRANCH   1  15
HETATM   15  N2  UNL     1      23.602   3.164  52.356  1.00  0.00    -0.372 N 
HETATM   16  H13 UNL     1      24.273   2.965  51.588  1.00  0.00     0.161 HD
BRANCH  15  17
HETATM   17  C6  UNL     1      23.779   4.484  52.003  1.00  0.00     0.140 C 
BRANCH  17  18
HETATM   18  C5  UNL     1      24.355   4.725  50.649  1.00  0.00     0.133 C 
BRANCH  18  19
HETATM   19  N1  UNL     1      25.639   5.207  50.463  1.00  0.00    -0.417 N 
HETATM   20  H8  UNL     1      26.387   4.720  51.035  1.00  0.00     0.153 HD
BRANCH  19  21
HETATM   21  C4  UNL     1      26.076   5.483  49.164  1.00  0.00     0.141 C 
BRANCH  21  22
HETATM   22  C3  UNL     1      27.339   4.684  48.849  1.00  0.00    -0.012 C 
HETATM   23  C2  UNL     1      28.406   5.258  48.365  1.00  0.00    -0.033 C 
HETATM   24  C1  UNL     1      28.747   6.648  47.999  1.00  0.00     0.036 C 
ENDBRANCH  21  22
ENDBRANCH  19  21
ENDBRANCH  18  19
ENDBRANCH  17  18
ENDBRANCH  15  17
ENDBRANCH   1  15
TORSDOF 7
ENDMDL
MODEL 3
REMARK VINA RESULT:      -7.0      3.435      5.098
REMARK  7 active torsions:
REMARK  status: ('A' for Active; 'I' for Inactive)
REMARK    1  A    between atoms: C3_3  and  C4_4 
REMARK    2  A    between atoms: C4_4  and  N1_5 
REMARK    3  A    between atoms: N1_5  and  C5_6 
REMARK    4  A    between atoms: C5_6  and  C6_7 
REMARK    5  A    between atoms: C6_7  and  N2_8 
REMARK    6  A    between atoms: N2_8  and  C7_9 
REMARK    7  A    between atoms: C13_18  and  O2_19 
ROOT
HETATM    1  C7  UNL     1      27.134   1.552  52.383  1.00  0.00     0.137 A 
HETATM    2  N3  UNL     1      28.373   1.394  53.003  1.00  0.00    -0.224 NA
HETATM    3  C8  UNL     1      28.313   0.523  54.063  1.00  0.00     0.235 A 
HETATM    4  N4  UNL     1      27.241  -0.110  54.484  1.00  0.00    -0.241 NA
HETATM    5  C9  UNL     1      26.009   0.036  53.881  1.00  0.00     0.075 A 
HETATM    6  C10 UNL     1      25.044  -0.736  54.531  1.00  0.00     0.072 A 
HETATM    7  C11 UNL     1      23.803  -0.505  53.868  1.00  0.00     0.103 A 
HETATM    8  O1  UNL     1      22.688  -1.052  54.206  1.00  0.00    -0.353 OA
HETATM    9  C12 UNL     1      21.585  -1.614  54.568  1.00  0.00     0.210 C 
HETATM   10  C13 UNL     1      23.710   0.307  52.834  1.00  0.00     0.102 A 
HETATM   11  C15 UNL     1      24.743   1.058  52.229  1.00  0.00     0.057 A 
HETATM   12  C16 UNL     1      26.043   0.892  52.835  1.00  0.00     0.041 A 
ENDROOT
BRANCH  10  13
HETATM   13  O2  UNL     1      22.564   0.692  51.990  1.00  0.00    -0.353 OA
HETATM   14  C14 UNL     1      22.632   1.458  50.907  1.00  0.00     0.210 C 
ENDBRANCH  10  13
BRANCH   1  15
HETATM   15  N2  UNL     1      26.831   2.398  51.248  1.00  0.00    -0.372 N 
HETATM   16  H13 UNL     1      25.804   2.397  51.407  1.00  0.00     0.161 HD
BRANCH  15  17
HETATM   17  C6  UNL     1      26.538   3.203  50.168  1.00  0.00     0.140 C 
BRANCH  17  18
HETATM   18  C5  UNL     1      25.529   4.274  50.407  1.00  0.00     0.133 C 
BRANCH  18  19
HETATM   19  N1  UNL     1      25.790   5.609  50.154  1.00  0.00    -0.417 N 
HETATM   20  H8  UNL     1      26.619   6.011  50.680  1.00  0.00     0.153 HD
BRANCH  19  21
HETATM   21  C4  UNL     1      25.740   6.069  48.834  1.00  0.00     0.141 C 
BRANCH  21  22
HETATM   22  C3  UNL     1      26.843   7.097  48.589  1.00  0.00    -0.012 C 
HETATM   23  C2  UNL     1      28.071   6.733  48.340  1.00  0.00    -0.033 C 
HETATM   24  C1  UNL     1      28.750   5.425  48.221  1.00  0.00     0.036 C 
ENDBRANCH  21  22
ENDBRANCH  19  21
ENDBRANCH  18  19
ENDBRANCH  17  18
ENDBRANCH  15  17
ENDBRANCH   1  15
TORSDOF 7
ENDMDL
MODEL 4
REMARK VINA RESULT:      -6.9      2.089      3.108
REMARK  7 active torsions:
REMARK  status: ('A' for Active; 'I' for Inactive)
REMARK    1  A    between atoms: C3_3  and  C4_4 
REMARK    2  A    between atoms: C4_4  and  N1_5 
REMARK    3  A    between atoms: N1_5  and  C5_6 
REMARK    4  A    between atoms: C5_6  and  C6_7 
REMARK    5  A    between atoms: C6_7  and  N2_8 
REMARK    6  A    between atoms: N2_8  and  C7_9 
REMARK    7  A    between atoms: C13_18  and  O2_19 
ROOT
HETATM    1  C7  UNL     1      22.874  -0.443  53.746  1.00  0.00     0.137 A 
HETATM    2  N3  UNL     1      21.921  -1.352  54.204  1.00  0.00    -0.224 NA
HETATM    3  C8  UNL     1      20.639  -0.907  53.993  1.00  0.00     0.235 A 
HETATM    4  N4  UNL     1      20.299   0.232  53.433  1.00  0.00    -0.241 NA
HETATM    5  C9  UNL     1      21.230   1.141  52.976  1.00  0.00     0.075 A 
HETATM    6  C10 UNL     1      20.602   2.266  52.438  1.00  0.00     0.072 A 
HETATM    7  C11 UNL     1      21.629   3.163  52.020  1.00  0.00     0.103 A 
HETATM    8  O1  UNL     1      21.413   4.311  51.481  1.00  0.00    -0.353 OA
HETATM    9  C12 UNL     1      21.167   5.457  50.943  1.00  0.00     0.210 C 
HETATM   10  C13 UNL     1      22.906   2.867  52.160  1.00  0.00     0.102 A 
HETATM   11  C15 UNL     1      23.466   1.696  52.718  1.00  0.00     0.057 A 
HETATM   12  C16 UNL     1      22.500   0.725  53.176  1.00  0.00     0.041 A 
ENDROOT
BRANCH  10  13
HETATM   13  O2  UNL     1      24.128   3.610  51.801  1.00  0.00    -0.353 OA
HETATM   14  C14 UNL     1      25.288   3.058  51.461  1.00  0.00     0.210 C 
ENDBRANCH  10  13
BRANCH   1  15
HETATM   15  N2  UNL     1      24.314  -0.582  53.818  1.00  0.00    -0.372 N 
HETATM   16  H13 UNL     1      24.415  -0.018  54.685  1.00  0.00     0.161 HD
BRANCH  15  17
HETATM   17  C6  UNL     1      25.684  -0.711  53.889  1.00  0.00     0.140 C 
BRANCH  17  18
HETATM   18  C5  UNL     1      26.351   0.021  55.004  1.00  0.00     0.133 C 
BRANCH  18  19
HETATM   19  N1  UNL     1      27.456   0.830  54.804  1.00  0.00    -0.417 N 
HETATM   20  H8  UNL     1      28.143   0.856  55.611  1.00  0.00     0.153 HD
BRANCH  19  21
HETATM   21  C4  UNL     1      28.108   0.790  53.567  1.00  0.00     0.141 C 
BRANCH  21  22
HETATM   22  C3  UNL     1      29.541   0.291  53.740  1.00  0.00    -0.012 C 
HETATM   23  C2  UNL     1      29.850  -0.967  53.576  1.00  0.00    -0.033 C 
HETATM   24  C1  UNL     1      29.076  -2.176  53.225  1.00  0.00     0.036 C 
ENDBRANCH  21  22
ENDBRANCH  19  21
ENDBRANCH  18  19
ENDBRANCH  17  18
ENDBRANCH  15  17
ENDBRANCH   1  15
TORSDOF 7
ENDMDL
MODEL 5
REMARK VINA RESULT:      -6.9      2.761      5.311
REMARK  7 active torsions:
REMARK  status: ('A' for Active; 'I' for Inactive)
REMARK    1  A    between atoms: C3_3  and  C4_4 
REMARK    2  A    between atoms: C4_4  and  N1_5 
REMARK    3  A    between atoms: N1_5  and  C5_6 
REMARK    4  A    between atoms: C5_6  and  C6_7 
REMARK    5  A    between atoms: C6_7  and  N2_8 
REMARK    6  A    between atoms: N2_8  and  C7_9 
REMARK    7  A    between atoms: C13_18  and  O2_19 
ROOT
HETATM    1  C7  UNL     1      27.131   2.239  52.217  1.00  0.00     0.137 A 
HETATM    2  N3  UNL     1      28.366   2.199  52.862  1.00  0.00    -0.224 NA
HETATM    3  C8  UNL     1      28.375   1.310  53.908  1.00  0.00     0.235 A 
HETATM    4  N4  UNL     1      27.365   0.563  54.297  1.00  0.00    -0.241 NA
HETATM    5  C9  UNL     1      26.137   0.593  53.670  1.00  0.00     0.075 A 
HETATM    6  C10 UNL     1      25.244  -0.285  54.288  1.00  0.00     0.072 A 
HETATM    7  C11 UNL     1      23.999  -0.171  53.603  1.00  0.00     0.103 A 
HETATM    8  O1  UNL     1      22.940  -0.834  53.908  1.00  0.00    -0.353 OA
HETATM    9  C12 UNL     1      21.893  -1.512  54.239  1.00  0.00     0.210 C 
HETATM   10  C13 UNL     1      23.844   0.644  52.577  1.00  0.00     0.102 A 
HETATM   11  C15 UNL     1      24.807   1.506  52.006  1.00  0.00     0.057 A 
HETATM   12  C16 UNL     1      26.104   1.464  52.637  1.00  0.00     0.041 A 
ENDROOT
BRANCH  10  13
HETATM   13  O2  UNL     1      22.681   0.922  51.715  1.00  0.00    -0.353 OA
HETATM   14  C14 UNL     1      22.735   1.497  50.518  1.00  0.00     0.210 C 
ENDBRANCH  10  13
BRANCH   1  15
HETATM   15  N2  UNL     1      26.765   3.068  51.088  1.00  0.00    -0.372 N 
HETATM   16  H13 UNL     1      27.034   2.366  50.370  1.00  0.00     0.161 HD
BRANCH  15  17
HETATM   17  C6  UNL     1      26.419   3.855  50.010  1.00  0.00     0.140 C 
BRANCH  17  18
HETATM   18  C5  UNL     1      25.120   4.579  50.120  1.00  0.00     0.133 C 
BRANCH  18  19
HETATM   19  N1  UNL     1      24.964   5.706  50.907  1.00  0.00    -0.417 N 
HETATM   20  H8  UNL     1      25.463   6.572  50.552  1.00  0.00     0.153 HD
BRANCH  19  21
HETATM   21  C4  UNL     1      23.695   6.008  51.411  1.00  0.00     0.141 C 
BRANCH  21  22
HETATM   22  C3  UNL     1      23.260   4.948  52.421  1.00  0.00    -0.012 C 
HETATM   23  C2  UNL     1      22.076   4.402  52.369  1.00  0.00    -0.033 C 
HETATM   24  C1  UNL     1      20.908   4.567  51.478  1.00  0.00     0.036 C 
ENDBRANCH  21  22
ENDBRANCH  19  21
ENDBRANCH  18  19
ENDBRANCH  17  18
ENDBRANCH  15  17
ENDBRANCH   1  15
TORSDOF 7
ENDMDL
MODEL 6
REMARK VINA RESULT:      -6.8      2.172      3.925
REMARK  7 active torsions:
REMARK  status: ('A' for Active; 'I' for Inactive)
REMARK    1  A    between atoms: C3_3  and  C4_4 
REMARK    2  A    between atoms: C4_4  and  N1_5 
REMARK    3  A    between atoms: N1_5  and  C5_6 
REMARK    4  A    between atoms: C5_6  and  C6_7 
REMARK    5  A    between atoms: C6_7  and  N2_8 
REMARK    6  A    between atoms: N2_8  and  C7_9 
REMARK    7  A    between atoms: C13_18  and  O2_19 
ROOT
HETATM    1  C7  UNL     1      25.789   2.814  51.417  1.00  0.00     0.137 A 
HETATM    2  N3  UNL     1      26.248   3.535  50.315  1.00  0.00    -0.224 NA
HETATM    3  C8  UNL     1      25.288   3.655  49.340  1.00  0.00     0.235 A 
HETATM    4  N4  UNL     1      24.069   3.165  49.390  1.00  0.00    -0.241 NA
HETATM    5  C9  UNL     1      23.603   2.449  50.473  1.00  0.00     0.075 A 
HETATM    6  C10 UNL     1      22.285   2.036  50.263  1.00  0.00     0.072 A 
HETATM    7  C11 UNL     1      21.892   1.282  51.407  1.00  0.00     0.103 A 
HETATM    8  O1  UNL     1      20.735   0.739  51.556  1.00  0.00    -0.353 OA
HETATM    9  C12 UNL     1      19.567   0.205  51.676  1.00  0.00     0.210 C 
HETATM   10  C13 UNL     1      22.711   1.086  52.423  1.00  0.00     0.102 A 
HETATM   11  C15 UNL     1      24.041   1.543  52.561  1.00  0.00     0.057 A 
HETATM   12  C16 UNL     1      24.532   2.316  51.445  1.00  0.00     0.041 A 
ENDROOT
BRANCH  10  13
HETATM   13  O2  UNL     1      22.535   0.367  53.698  1.00  0.00    -0.353 OA
HETATM   14  C14 UNL     1      22.837  -0.910  53.906  1.00  0.00     0.210 C 
ENDBRANCH  10  13
BRANCH   1  15
HETATM   15  N2  UNL     1      26.535   2.489  52.615  1.00  0.00    -0.372 N 
HETATM   16  H13 UNL     1      25.750   2.690  53.266  1.00  0.00     0.161 HD
BRANCH  15  17
HETATM   17  C6  UNL     1      27.241   2.181  53.758  1.00  0.00     0.140 C 
BRANCH  17  18
HETATM   18  C5  UNL     1      28.726   2.240  53.643  1.00  0.00     0.133 C 
BRANCH  18  19
HETATM   19  N1  UNL     1      29.517   1.106  53.672  1.00  0.00    -0.417 N 
HETATM   20  H8  UNL     1      30.547   1.282  53.855  1.00  0.00     0.153 HD
BRANCH  19  21
HETATM   21  C4  UNL     1      29.055  -0.025  54.354  1.00  0.00     0.141 C 
BRANCH  21  22
HETATM   22  C3  UNL     1      29.090  -1.247  53.439  1.00  0.00    -0.012 C 
HETATM   23  C2  UNL     1      28.016  -1.677  52.833  1.00  0.00    -0.033 C 
HETATM   24  C1  UNL     1      26.608  -1.231  52.803  1.00  0.00     0.036 C 
ENDBRANCH  21  22
ENDBRANCH  19  21
ENDBRANCH  18  19
ENDBRANCH  17  18
ENDBRANCH  15  17
ENDBRANCH   1  15
TORSDOF 7
ENDMDL
MODEL 7
REMARK VINA RESULT:      -6.7      2.396      5.433
REMARK  7 active torsions:
REMARK  status: ('A' for Active; 'I' for Inactive)
REMARK    1  A    between atoms: C3_3  and  C4_4 
REMARK    2  A    between atoms: C4_4  and  N1_5 
REMARK    3  A    between atoms: N1_5  and  C5_6 
REMARK    4  A    between atoms: C5_6  and  C6_7 
REMARK    5  A    between atoms: C6_7  and  N2_8 
REMARK    6  A    between atoms: N2_8  and  C7_9 
REMARK    7  A    between atoms: C13_18  and  O2_19 
ROOT
HETATM    1  C7  UNL     1      27.164   2.219  52.278  1.00  0.00     0.137 A 
HETATM    2  N3  UNL     1      28.431   2.174  52.859  1.00  0.00    -0.224 NA
HETATM    3  C8  UNL     1      28.493   1.272  53.892  1.00  0.00     0.235 A 
HETATM    4  N4  UNL     1      27.506   0.519  54.323  1.00  0.00    -0.241 NA
HETATM    5  C9  UNL     1      26.247   0.554  53.759  1.00  0.00     0.075 A 
HETATM    6  C10 UNL     1      25.388  -0.332  54.412  1.00  0.00     0.072 A 
HETATM    7  C11 UNL     1      24.109  -0.212  53.791  1.00  0.00     0.103 A 
HETATM    8  O1  UNL     1      23.068  -0.881  54.143  1.00  0.00    -0.353 OA
HETATM    9  C12 UNL     1      22.040  -1.565  54.517  1.00  0.00     0.210 C 
HETATM   10  C13 UNL     1      23.902   0.614  52.785  1.00  0.00     0.102 A 
HETATM   11  C15 UNL     1      24.833   1.485  52.176  1.00  0.00     0.057 A 
HETATM   12  C16 UNL     1      26.162   1.437  52.740  1.00  0.00     0.041 A 
ENDROOT
BRANCH  10  13
HETATM   13  O2  UNL     1      22.696   0.901  51.985  1.00  0.00    -0.353 OA
HETATM   14  C14 UNL     1      21.822   1.868  52.238  1.00  0.00     0.210 C 
ENDBRANCH  10  13
BRANCH   1  15
HETATM   15  N2  UNL     1      26.741   3.061  51.178  1.00  0.00    -0.372 N 
HETATM   16  H13 UNL     1      27.410   3.827  51.389  1.00  0.00     0.161 HD
BRANCH  15  17
HETATM   17  C6  UNL     1      26.340   3.866  50.134  1.00  0.00     0.140 C 
BRANCH  17  18
HETATM   18  C5  UNL     1      25.102   4.664  50.363  1.00  0.00     0.133 C 
BRANCH  18  19
HETATM   19  N1  UNL     1      23.843   4.191  50.038  1.00  0.00    -0.417 N 
HETATM   20  H8  UNL     1      23.112   4.941  49.870  1.00  0.00     0.153 HD
BRANCH  19  21
HETATM   21  C4  UNL     1      23.732   3.143  49.119  1.00  0.00     0.141 C 
BRANCH  21  22
HETATM   22  C3  UNL     1      22.501   3.340  48.236  1.00  0.00    -0.012 C 
HETATM   23  C2  UNL     1      21.596   2.408  48.109  1.00  0.00    -0.033 C 
HETATM   24  C1  UNL     1      21.438   1.049  48.665  1.00  0.00     0.036 C 
ENDBRANCH  21  22
ENDBRANCH  19  21
ENDBRANCH  18  19
ENDBRANCH  17  18
ENDBRANCH  15  17
ENDBRANCH   1  15
TORSDOF 7
ENDMDL
MODEL 8
REMARK VINA RESULT:      -6.5      2.208      6.700
REMARK  7 active torsions:
REMARK  status: ('A' for Active; 'I' for Inactive)
REMARK    1  A    between atoms: C3_3  and  C4_4 
REMARK    2  A    between atoms: C4_4  and  N1_5 
REMARK    3  A    between atoms: N1_5  and  C5_6 
REMARK    4  A    between atoms: C5_6  and  C6_7 
REMARK    5  A    between atoms: C6_7  and  N2_8 
REMARK    6  A    between atoms: N2_8  and  C7_9 
REMARK    7  A    between atoms: C13_18  and  O2_19 
ROOT
HETATM    1  C7  UNL     1      25.155  -0.181  53.665  1.00  0.00     0.137 A 
HETATM    2  N3  UNL     1      26.146  -0.683  54.507  1.00  0.00    -0.224 NA
HETATM    3  C8  UNL     1      27.350  -0.048  54.323  1.00  0.00     0.235 A 
HETATM    4  N4  UNL     1      27.592   0.920  53.468  1.00  0.00    -0.241 NA
HETATM    5  C9  UNL     1      26.621   1.426  52.628  1.00  0.00     0.075 A 
HETATM    6  C10 UNL     1      27.145   2.435  51.817  1.00  0.00     0.072 A 
HETATM    7  C11 UNL     1      26.093   2.879  50.965  1.00  0.00     0.103 A 
HETATM    8  O1  UNL     1      26.219   3.803  50.078  1.00  0.00    -0.353 OA
HETATM    9  C12 UNL     1      26.376   4.732  49.196  1.00  0.00     0.210 C 
HETATM   10  C13 UNL     1      24.882   2.361  51.030  1.00  0.00     0.102 A 
HETATM   11  C15 UNL     1      24.427   1.334  51.887  1.00  0.00     0.057 A 
HETATM   12  C16 UNL     1      25.427   0.814  52.790  1.00  0.00     0.041 A 
ENDROOT
BRANCH  10  13
HETATM   13  O2  UNL     1      23.648   2.656  50.279  1.00  0.00    -0.353 OA
HETATM   14  C14 UNL     1      22.570   1.880  50.239  1.00  0.00     0.210 C 
ENDBRANCH  10  13
BRANCH   1  15
HETATM   15  N2  UNL     1      23.778  -0.622  53.582  1.00  0.00    -0.372 N 
HETATM   16  H13 UNL     1      23.969  -1.579  53.938  1.00  0.00     0.161 HD
BRANCH  15  17
HETATM   17  C6  UNL     1      22.469  -1.046  53.504  1.00  0.00     0.140 C 
BRANCH  17  18
HETATM   18  C5  UNL     1      21.553  -0.533  54.563  1.00  0.00     0.133 C 
BRANCH  18  19
HETATM   19  N1  UNL     1      20.204  -0.322  54.338  1.00  0.00    -0.417 N 
HETATM   20  H8  UNL     1      19.671   0.083  55.161  1.00  0.00     0.153 HD
BRANCH  19  21
HETATM   21  C4  UNL     1      19.802   0.251  53.127  1.00  0.00     0.141 C 
BRANCH  21  22
HETATM   22  C3  UNL     1      18.599  -0.499  52.559  1.00  0.00    -0.012 C 
HETATM   23  C2  UNL     1      18.140  -0.247  51.364  1.00  0.00    -0.033 C 
HETATM   24  C1  UNL     1      18.532   0.690  50.290  1.00  0.00     0.036 C 
ENDBRANCH  21  22
ENDBRANCH  19  21
ENDBRANCH  18  19
ENDBRANCH  17  18
ENDBRANCH  15  17
ENDBRANCH   1  15
TORSDOF 7
ENDMDL
MODEL 9
REMARK VINA RESULT:      -6.3      2.913      5.827
REMARK  7 active torsions:
REMARK  status: ('A' for Active; 'I' for Inactive)
REMARK    1  A    between atoms: C3_3  and  C4_4 
REMARK    2  A    between atoms: C4_4  and  N1_5 
REMARK    3  A    between atoms: N1_5  and  C5_6 
REMARK    4  A    between atoms: C5_6  and  C6_7 
REMARK    5  A    between atoms: C6_7  and  N2_8 
REMARK    6  A    between atoms: N2_8  and  C7_9 
REMARK    7  A    between atoms: C13_18  and  O2_19 
ROOT
HETATM    1  C7  UNL     1      21.617   0.524  53.189  1.00  0.00     0.137 A 
HETATM    2  N3  UNL     1      20.701  -0.410  53.670  1.00  0.00    -0.224 NA
HETATM    3  C8  UNL     1      21.304  -1.383  54.428  1.00  0.00     0.235 A 
HETATM    4  N4  UNL     1      22.587  -1.471  54.696  1.00  0.00    -0.241 NA
HETATM    5  C9  UNL     1      23.506  -0.555  54.226  1.00  0.00     0.075 A 
HETATM    6  C10 UNL     1      24.796  -0.888  54.646  1.00  0.00     0.072 A 
HETATM    7  C11 UNL     1      25.682   0.084  54.096  1.00  0.00     0.103 A 
HETATM    8  O1  UNL     1      26.956   0.086  54.273  1.00  0.00    -0.353 OA
HETATM    9  C12 UNL     1      28.231   0.062  54.468  1.00  0.00     0.210 C 
HETATM   10  C13 UNL     1      25.243   1.078  53.349  1.00  0.00     0.102 A 
HETATM   11  C15 UNL     1      23.909   1.348  52.967  1.00  0.00     0.057 A 
HETATM   12  C16 UNL     1      22.935   0.412  53.475  1.00  0.00     0.041 A 
ENDROOT
BRANCH  10  13
HETATM   13  O2  UNL     1      25.947   2.193  52.690  1.00  0.00    -0.353 OA
HETATM   14  C14 UNL     1      26.614   2.108  51.543  1.00  0.00     0.210 C 
ENDBRANCH  10  13
BRANCH   1  15
HETATM   15  N2  UNL     1      21.334   1.670  52.352  1.00  0.00    -0.372 N 
HETATM   16  H13 UNL     1      20.874   2.219  53.105  1.00  0.00     0.161 HD
BRANCH  15  17
HETATM   17  C6  UNL     1      21.060   2.764  51.558  1.00  0.00     0.140 C 
BRANCH  17  18
HETATM   18  C5  UNL     1      21.360   4.096  52.157  1.00  0.00     0.133 C 
BRANCH  18  19
HETATM   19  N1  UNL     1      22.450   4.854  51.771  1.00  0.00    -0.417 N 
HETATM   20  H8  UNL     1      23.339   4.673  52.322  1.00  0.00     0.153 HD
BRANCH  19  21
HETATM   21  C4  UNL     1      22.710   5.020  50.407  1.00  0.00     0.141 C 
BRANCH  21  22
HETATM   22  C3  UNL     1      23.976   4.263  50.012  1.00  0.00    -0.012 C 
HETATM   23  C2  UNL     1      23.940   3.265  49.172  1.00  0.00    -0.033 C 
HETATM   24  C1  UNL     1      22.860   2.600  48.415  1.00  0.00     0.036 C 
ENDBRANCH  21  22
ENDBRANCH  19  21
ENDBRANCH  18  19
ENDBRANCH  17  18
ENDBRANCH  15  17
ENDBRANCH   1  15
TORSDOF 7
ENDMDL
