MODEL 1
REMARK VINA RESULT:     -10.4      0.000      0.000
REMARK  2 active torsions:
REMARK  status: ('A' for Active; 'I' for Inactive)
REMARK    1  A    between atoms: C6_6  and  N1_7 
REMARK    2  A    between atoms: N1_7  and  C7_8 
ROOT
HETATM    1  C7  UNL     1      21.054   0.327  53.517  1.00  0.00     0.141 A 
HETATM    2  N2  UNL     1      20.656  -0.740  54.204  1.00  0.00    -0.224 NA
HETATM    3  C8  UNL     1      21.563  -1.615  54.630  1.00  0.00     0.235 A 
HETATM    4  N3  UNL     1      22.869  -1.387  54.346  1.00  0.00    -0.245 NA
HETATM    5  C9  UNL     1      23.285  -0.312  53.652  1.00  0.00     0.061 A 
HETATM    6  C10 UNL     1      22.346   0.620  53.196  1.00  0.00     0.034 A 
HETATM    7  C11 UNL     1      22.802   1.688  52.567  1.00  0.00     0.028 C 
HETATM    8  C12 UNL     1      23.601   2.693  51.927  1.00  0.00     0.270 C 
HETATM    9  C13 UNL     1      22.856   3.290  50.728  1.00  0.00     0.207 C 
HETATM   10  O1  UNL     1      23.388   2.715  49.569  1.00  0.00    -0.387 OA
HETATM   11  C14 UNL     1      24.588   3.426  49.337  1.00  0.00     0.198 C 
HETATM   12  C15 UNL     1      25.495   3.111  50.468  1.00  0.00     0.299 C 
HETATM   13  N4  UNL     1      24.951   2.390  51.558  1.00  0.00     0.100 N 
HETATM   14  C16 UNL     1      25.847   2.600  52.695  1.00  0.00     0.273 C 
HETATM   15  C17 UNL     1      27.209   2.144  52.287  1.00  0.00     0.033 C 
HETATM   16  C18 UNL     1      28.225   1.963  53.355  1.00  0.00     0.044 C 
HETATM   17  C19 UNL     1      27.960   0.827  54.289  1.00  0.00     0.220 C 
HETATM   18  O2  UNL     1      26.635   0.485  54.339  1.00  0.00    -0.339 OA
HETATM   19  C20 UNL     1      25.981  -0.521  53.581  1.00  0.00     0.074 C 
HETATM   20  C21 UNL     1      26.656  -1.310  52.760  1.00  0.00     0.124 C 
HETATM   21  N5  UNL     1      28.101  -1.291  52.864  1.00  0.00    -0.333 N 
HETATM   22  C22 UNL     1      28.704  -0.418  53.849  1.00  0.00     0.251 C 
HETATM   23  O3  UNL     1      29.830  -0.836  54.228  1.00  0.00    -0.270 OA
HETATM   24  C23 UNL     1      24.561  -0.631  53.757  1.00  0.00     0.113 C 
HETATM   25  H25 UNL     1      28.537  -1.938  52.187  1.00  0.00     0.168 HD
ENDROOT
BRANCH   1  26
HETATM   26  N1  UNL     1      20.048   1.240  53.114  1.00  0.00    -0.340 N 
HETATM   27  H7  UNL     1      19.911   2.091  53.690  1.00  0.00     0.167 HD
BRANCH  26  28
HETATM   28  C6  UNL     1      19.227   1.050  51.971  1.00  0.00     0.034 A 
HETATM   29  C5  UNL     1      18.286   0.037  51.883  1.00  0.00     0.029 A 
HETATM   30  C4  UNL     1      17.456  -0.171  50.799  1.00  0.00     0.003 A 
HETATM   31  C3  UNL     1      17.603   0.712  49.751  1.00  0.00     0.007 A 
HETATM   32  C2  UNL     1      18.510   1.749  49.747  1.00  0.00    -0.060 A 
HETATM   33  C1  UNL     1      18.722   2.741  48.664  1.00  0.00     0.048 C 
HETATM   34  C24 UNL     1      19.319   1.899  50.881  1.00  0.00     0.036 A 
ENDBRANCH  26  28
ENDBRANCH   1  26
TORSDOF 2
ENDMDL
MODEL 2
REMARK VINA RESULT:     -10.1      2.262      8.306
REMARK  2 active torsions:
REMARK  status: ('A' for Active; 'I' for Inactive)
REMARK    1  A    between atoms: C6_6  and  N1_7 
REMARK    2  A    between atoms: N1_7  and  C7_8 
ROOT
HETATM    1  C7  UNL     1      25.774   2.254  52.002  1.00  0.00     0.141 A 
HETATM    2  N2  UNL     1      26.577   2.843  51.121  1.00  0.00    -0.224 NA
HETATM    3  C8  UNL     1      26.067   3.297  49.979  1.00  0.00     0.235 A 
HETATM    4  N3  UNL     1      24.740   3.142  49.753  1.00  0.00    -0.245 NA
HETATM    5  C9  UNL     1      23.916   2.548  50.636  1.00  0.00     0.061 A 
HETATM    6  C10 UNL     1      24.434   2.064  51.843  1.00  0.00     0.034 A 
HETATM    7  C11 UNL     1      23.582   1.539  52.704  1.00  0.00     0.028 C 
HETATM    8  C12 UNL     1      22.430   1.028  53.391  1.00  0.00     0.270 C 
HETATM    9  C13 UNL     1      22.804  -0.196  54.234  1.00  0.00     0.207 C 
HETATM   10  O1  UNL     1      22.383  -1.334  53.539  1.00  0.00    -0.387 OA
HETATM   11  C14 UNL     1      20.996  -1.420  53.801  1.00  0.00     0.198 C 
HETATM   12  C15 UNL     1      20.369  -0.234  53.169  1.00  0.00     0.299 C 
HETATM   13  N4  UNL     1      21.232   0.762  52.652  1.00  0.00     0.100 N 
HETATM   14  C16 UNL     1      20.437   1.983  52.517  1.00  0.00     0.273 C 
HETATM   15  C17 UNL     1      19.276   1.671  51.632  1.00  0.00     0.033 C 
HETATM   16  C18 UNL     1      18.495   2.812  51.090  1.00  0.00     0.044 C 
HETATM   17  C19 UNL     1      19.222   3.654  50.093  1.00  0.00     0.220 C 
HETATM   18  O2  UNL     1      20.582   3.568  50.223  1.00  0.00    -0.339 OA
HETATM   19  C20 UNL     1      21.457   2.701  49.519  1.00  0.00     0.074 C 
HETATM   20  C21 UNL     1      21.010   1.898  48.566  1.00  0.00     0.124 C 
HETATM   21  N5  UNL     1      19.662   2.129  48.087  1.00  0.00    -0.333 N 
HETATM   22  C22 UNL     1      18.902   3.210  48.678  1.00  0.00     0.251 C 
HETATM   23  O3  UNL     1      18.029   3.662  47.891  1.00  0.00    -0.270 OA
HETATM   24  C23 UNL     1      22.841   2.746  49.897  1.00  0.00     0.113 C 
HETATM   25  H25 UNL     1      19.404   1.458  47.346  1.00  0.00     0.168 HD
ENDROOT
BRANCH   1  26
HETATM   26  N1  UNL     1      26.365   1.817  53.213  1.00  0.00    -0.340 N 
HETATM   27  H7  UNL     1      25.982   2.193  54.100  1.00  0.00     0.167 HD
BRANCH  26  28
HETATM   28  C6  UNL     1      27.446   0.897  53.273  1.00  0.00     0.034 A 
HETATM   29  C5  UNL     1      28.735   1.276  53.606  1.00  0.00     0.029 A 
HETATM   30  C4  UNL     1      29.809   0.412  53.693  1.00  0.00     0.003 A 
HETATM   31  C3  UNL     1      29.540  -0.913  53.423  1.00  0.00     0.007 A 
HETATM   32  C2  UNL     1      28.290  -1.383  53.084  1.00  0.00    -0.060 A 
HETATM   33  C1  UNL     1      27.920  -2.789  52.787  1.00  0.00     0.048 C 
HETATM   34  C24 UNL     1      27.248  -0.448  53.015  1.00  0.00     0.036 A 
ENDBRANCH  26  28
ENDBRANCH   1  26
TORSDOF 2
ENDMDL
MODEL 3
REMARK VINA RESULT:      -9.4      3.246      7.317
REMARK  2 active torsions:
REMARK  status: ('A' for Active; 'I' for Inactive)
REMARK    1  A    between atoms: C6_6  and  N1_7 
REMARK    2  A    between atoms: N1_7  and  C7_8 
ROOT
HETATM    1  C7  UNL     1      23.372   5.738  51.361  1.00  0.00     0.141 A 
HETATM    2  N2  UNL     1      22.407   6.536  50.915  1.00  0.00    -0.224 NA
HETATM    3  C8  UNL     1      21.168   6.063  50.811  1.00  0.00     0.235 A 
HETATM    4  N3  UNL     1      20.932   4.776  51.164  1.00  0.00    -0.245 NA
HETATM    5  C9  UNL     1      21.900   3.957  51.617  1.00  0.00     0.061 A 
HETATM    6  C10 UNL     1      23.210   4.437  51.734  1.00  0.00     0.034 A 
HETATM    7  C11 UNL     1      24.116   3.618  52.235  1.00  0.00     0.028 C 
HETATM    8  C12 UNL     1      24.841   2.506  52.780  1.00  0.00     0.270 C 
HETATM    9  C13 UNL     1      26.275   2.482  52.241  1.00  0.00     0.207 C 
HETATM   10  O1  UNL     1      26.336   1.503  51.243  1.00  0.00    -0.387 OA
HETATM   11  C14 UNL     1      26.446   0.282  51.948  1.00  0.00     0.198 C 
HETATM   12  C15 UNL     1      25.176   0.104  52.692  1.00  0.00     0.299 C 
HETATM   13  N4  UNL     1      24.272   1.193  52.708  1.00  0.00     0.100 N 
HETATM   14  C16 UNL     1      23.362   0.973  53.833  1.00  0.00     0.273 C 
HETATM   15  C17 UNL     1      22.707  -0.354  53.631  1.00  0.00     0.033 C 
HETATM   16  C18 UNL     1      21.519  -0.671  54.463  1.00  0.00     0.044 C 
HETATM   17  C19 UNL     1      20.304   0.145  54.161  1.00  0.00     0.220 C 
HETATM   18  O2  UNL     1      20.607   1.343  53.572  1.00  0.00    -0.339 OA
HETATM   19  C20 UNL     1      20.645   1.629  52.183  1.00  0.00     0.074 C 
HETATM   20  C21 UNL     1      20.299   0.720  51.284  1.00  0.00     0.124 C 
HETATM   21  N5  UNL     1      19.632  -0.470  51.771  1.00  0.00    -0.333 N 
HETATM   22  C22 UNL     1      19.392  -0.585  53.194  1.00  0.00     0.251 C 
HETATM   23  O3  UNL     1      18.400  -1.317  53.451  1.00  0.00    -0.270 OA
HETATM   24  C23 UNL     1      21.073   2.948  51.813  1.00  0.00     0.113 C 
HETATM   25  H25 UNL     1      19.402  -1.117  51.000  1.00  0.00     0.168 HD
ENDROOT
BRANCH   1  26
HETATM   26  N1  UNL     1      24.666   6.304  51.480  1.00  0.00    -0.340 N 
HETATM   27  H7  UNL     1      24.967   6.626  52.419  1.00  0.00     0.167 HD
BRANCH  26  28
HETATM   28  C6  UNL     1      25.563   6.450  50.390  1.00  0.00     0.034 A 
HETATM   29  C5  UNL     1      26.039   5.373  49.660  1.00  0.00     0.029 A 
HETATM   30  C4  UNL     1      26.897   5.473  48.583  1.00  0.00     0.003 A 
HETATM   31  C3  UNL     1      27.286   6.750  48.239  1.00  0.00     0.007 A 
HETATM   32  C2  UNL     1      26.866   7.881  48.905  1.00  0.00    -0.060 A 
HETATM   33  C1  UNL     1      27.232   9.284  48.592  1.00  0.00     0.048 C 
HETATM   34  C24 UNL     1      25.995   7.703  49.989  1.00  0.00     0.036 A 
ENDBRANCH  26  28
ENDBRANCH   1  26
TORSDOF 2
ENDMDL
MODEL 4
REMARK VINA RESULT:      -9.1      2.347      5.194
REMARK  2 active torsions:
REMARK  status: ('A' for Active; 'I' for Inactive)
REMARK    1  A    between atoms: C6_6  and  N1_7 
REMARK    2  A    between atoms: N1_7  and  C7_8 
ROOT
HETATM    1  C7  UNL     1      20.728   2.081  52.171  1.00  0.00     0.141 A 
HETATM    2  N2  UNL     1      19.626   2.824  52.122  1.00  0.00    -0.224 NA
HETATM    3  C8  UNL     1      19.716   4.095  51.742  1.00  0.00     0.235 A 
HETATM    4  N3  UNL     1      20.934   4.592  51.417  1.00  0.00    -0.245 NA
HETATM    5  C9  UNL     1      22.057   3.851  51.462  1.00  0.00     0.061 A 
HETATM    6  C10 UNL     1      21.982   2.511  51.859  1.00  0.00     0.034 A 
HETATM    7  C11 UNL     1      23.099   1.806  51.836  1.00  0.00     0.028 C 
HETATM    8  C12 UNL     1      24.450   1.339  51.719  1.00  0.00     0.270 C 
HETATM    9  C13 UNL     1      24.756   0.297  52.800  1.00  0.00     0.207 C 
HETATM   10  O1  UNL     1      25.498   0.931  53.802  1.00  0.00    -0.387 OA
HETATM   11  C14 UNL     1      26.817   0.976  53.295  1.00  0.00     0.198 C 
HETATM   12  C15 UNL     1      26.787   1.865  52.109  1.00  0.00     0.299 C 
HETATM   13  N4  UNL     1      25.519   2.289  51.644  1.00  0.00     0.100 N 
HETATM   14  C16 UNL     1      25.702   2.740  50.264  1.00  0.00     0.273 C 
HETATM   15  C17 UNL     1      26.734   3.818  50.274  1.00  0.00     0.033 C 
HETATM   16  C18 UNL     1      26.876   4.650  49.052  1.00  0.00     0.044 C 
HETATM   17  C19 UNL     1      25.719   5.552  48.768  1.00  0.00     0.220 C 
HETATM   18  O2  UNL     1      24.556   5.113  49.342  1.00  0.00    -0.339 OA
HETATM   19  C20 UNL     1      24.022   5.498  50.599  1.00  0.00     0.074 C 
HETATM   20  C21 UNL     1      24.608   6.427  51.339  1.00  0.00     0.124 C 
HETATM   21  N5  UNL     1      25.645   7.217  50.708  1.00  0.00    -0.333 N 
HETATM   22  C22 UNL     1      25.968   6.941  49.324  1.00  0.00     0.251 C 
HETATM   23  O3  UNL     1      26.440   7.949  48.736  1.00  0.00    -0.270 OA
HETATM   24  C23 UNL     1      22.822   4.829  51.016  1.00  0.00     0.113 C 
HETATM   25  H25 UNL     1      26.040   7.913  51.360  1.00  0.00     0.168 HD
ENDROOT
BRANCH   1  26
HETATM   26  N1  UNL     1      20.568   0.726  52.554  1.00  0.00    -0.340 N 
HETATM   27  H7  UNL     1      21.391   0.239  52.956  1.00  0.00     0.167 HD
BRANCH  26  28
HETATM   28  C6  UNL     1      19.350   0.009  52.419  1.00  0.00     0.034 A 
HETATM   29  C5  UNL     1      18.861  -0.832  53.405  1.00  0.00     0.029 A 
HETATM   30  C4  UNL     1      17.674  -1.533  53.321  1.00  0.00     0.003 A 
HETATM   31  C3  UNL     1      16.954  -1.358  52.159  1.00  0.00     0.007 A 
HETATM   32  C2  UNL     1      17.359  -0.544  51.124  1.00  0.00    -0.060 A 
HETATM   33  C1  UNL     1      16.638  -0.300  49.851  1.00  0.00     0.048 C 
HETATM   34  C24 UNL     1      18.574   0.136  51.280  1.00  0.00     0.036 A 
ENDBRANCH  26  28
ENDBRANCH   1  26
TORSDOF 2
ENDMDL
MODEL 5
REMARK VINA RESULT:      -9.1      2.708      7.923
REMARK  2 active torsions:
REMARK  status: ('A' for Active; 'I' for Inactive)
REMARK    1  A    between atoms: C6_6  and  N1_7 
REMARK    2  A    between atoms: N1_7  and  C7_8 
ROOT
HETATM    1  C7  UNL     1      24.792   0.974  52.334  1.00  0.00     0.141 A 
HETATM    2  N2  UNL     1      24.582   0.110  53.323  1.00  0.00    -0.224 NA
HETATM    3  C8  UNL     1      23.336  -0.135  53.718  1.00  0.00     0.235 A 
HETATM    4  N3  UNL     1      22.318   0.508  53.096  1.00  0.00    -0.245 NA
HETATM    5  C9  UNL     1      22.516   1.384  52.093  1.00  0.00     0.061 A 
HETATM    6  C10 UNL     1      23.821   1.655  51.663  1.00  0.00     0.034 A 
HETATM    7  C11 UNL     1      23.966   2.478  50.641  1.00  0.00     0.028 C 
HETATM    8  C12 UNL     1      23.784   3.398  49.556  1.00  0.00     0.270 C 
HETATM    9  C13 UNL     1      24.940   4.403  49.502  1.00  0.00     0.207 C 
HETATM   10  O1  UNL     1      24.483   5.605  50.054  1.00  0.00    -0.387 OA
HETATM   11  C14 UNL     1      23.739   6.214  49.018  1.00  0.00     0.198 C 
HETATM   12  C15 UNL     1      22.564   5.344  48.769  1.00  0.00     0.299 C 
HETATM   13  N4  UNL     1      22.535   4.087  49.419  1.00  0.00     0.100 N 
HETATM   14  C16 UNL     1      21.575   3.256  48.692  1.00  0.00     0.273 C 
HETATM   15  C17 UNL     1      20.264   3.970  48.698  1.00  0.00     0.033 C 
HETATM   16  C18 UNL     1      19.057   3.202  48.299  1.00  0.00     0.044 C 
HETATM   17  C19 UNL     1      18.649   2.131  49.258  1.00  0.00     0.220 C 
HETATM   18  O2  UNL     1      19.688   1.697  50.036  1.00  0.00    -0.339 OA
HETATM   19  C20 UNL     1      20.038   2.156  51.332  1.00  0.00     0.074 C 
HETATM   20  C21 UNL     1      19.298   3.052  51.967  1.00  0.00     0.124 C 
HETATM   21  N5  UNL     1      17.991   3.341  51.413  1.00  0.00    -0.333 N 
HETATM   22  C22 UNL     1      17.586   2.639  50.214  1.00  0.00     0.251 C 
HETATM   23  O3  UNL     1      16.335   2.538  50.122  1.00  0.00    -0.270 OA
HETATM   24  C23 UNL     1      21.227   1.596  51.909  1.00  0.00     0.113 C 
HETATM   25  H25 UNL     1      17.491   4.048  51.975  1.00  0.00     0.168 HD
ENDROOT
BRANCH   1  26
HETATM   26  N1  UNL     1      26.136   1.174  51.935  1.00  0.00    -0.340 N 
HETATM   27  H7  UNL     1      26.305   1.684  51.047  1.00  0.00     0.167 HD
BRANCH  26  28
HETATM   28  C6  UNL     1      27.255   0.718  52.681  1.00  0.00     0.034 A 
HETATM   29  C5  UNL     1      27.999   1.550  53.502  1.00  0.00     0.029 A 
HETATM   30  C4  UNL     1      29.080   1.143  54.258  1.00  0.00     0.003 A 
HETATM   31  C3  UNL     1      29.413  -0.191  54.163  1.00  0.00     0.007 A 
HETATM   32  C2  UNL     1      28.733  -1.094  53.374  1.00  0.00    -0.060 A 
HETATM   33  C1  UNL     1      29.024  -2.541  53.226  1.00  0.00     0.048 C 
HETATM   34  C24 UNL     1      27.646  -0.609  52.635  1.00  0.00     0.036 A 
ENDBRANCH  26  28
ENDBRANCH   1  26
TORSDOF 2
ENDMDL
MODEL 6
REMARK VINA RESULT:      -8.8      2.160      4.268
REMARK  2 active torsions:
REMARK  status: ('A' for Active; 'I' for Inactive)
REMARK    1  A    between atoms: C6_6  and  N1_7 
REMARK    2  A    between atoms: N1_7  and  C7_8 
ROOT
HETATM    1  C7  UNL     1      21.782   2.635  49.511  1.00  0.00     0.141 A 
HETATM    2  N2  UNL     1      22.206   3.609  48.711  1.00  0.00    -0.224 NA
HETATM    3  C8  UNL     1      23.441   4.080  48.858  1.00  0.00     0.235 A 
HETATM    4  N3  UNL     1      24.229   3.548  49.824  1.00  0.00    -0.245 NA
HETATM    5  C9  UNL     1      23.813   2.562  50.641  1.00  0.00     0.061 A 
HETATM    6  C10 UNL     1      22.516   2.053  50.501  1.00  0.00     0.034 A 
HETATM    7  C11 UNL     1      22.168   1.050  51.285  1.00  0.00     0.028 C 
HETATM    8  C12 UNL     1      22.102   0.008  52.270  1.00  0.00     0.270 C 
HETATM    9  C13 UNL     1      20.688  -0.093  52.853  1.00  0.00     0.207 C 
HETATM   10  O1  UNL     1      20.701   0.526  54.107  1.00  0.00    -0.387 OA
HETATM   11  C14 UNL     1      21.264  -0.438  54.975  1.00  0.00     0.198 C 
HETATM   12  C15 UNL     1      22.669  -0.634  54.541  1.00  0.00     0.299 C 
HETATM   13  N4  UNL     1      23.067  -0.022  53.328  1.00  0.00     0.100 N 
HETATM   14  C16 UNL     1      24.282  -0.708  52.886  1.00  0.00     0.273 C 
HETATM   15  C17 UNL     1      25.290  -0.591  53.982  1.00  0.00     0.033 C 
HETATM   16  C18 UNL     1      26.699  -0.931  53.662  1.00  0.00     0.044 C 
HETATM   17  C19 UNL     1      27.379   0.019  52.731  1.00  0.00     0.220 C 
HETATM   18  O2  UNL     1      26.495   0.712  51.947  1.00  0.00    -0.339 OA
HETATM   19  C20 UNL     1      25.947   1.995  52.203  1.00  0.00     0.074 C 
HETATM   20  C21 UNL     1      26.322   2.706  53.256  1.00  0.00     0.124 C 
HETATM   21  N5  UNL     1      27.493   2.250  53.977  1.00  0.00    -0.333 N 
HETATM   22  C22 UNL     1      28.168   1.060  53.503  1.00  0.00     0.251 C 
HETATM   23  O3  UNL     1      29.388   1.050  53.814  1.00  0.00    -0.270 OA
HETATM   24  C23 UNL     1      24.972   2.472  51.263  1.00  0.00     0.113 C 
HETATM   25  H25 UNL     1      27.708   2.866  54.777  1.00  0.00     0.168 HD
ENDROOT
BRANCH   1  26
HETATM   26  N1  UNL     1      20.469   2.152  49.291  1.00  0.00    -0.340 N 
HETATM   27  H7  UNL     1      20.363   1.266  48.762  1.00  0.00     0.167 HD
BRANCH  26  28
HETATM   28  C6  UNL     1      19.300   2.813  49.754  1.00  0.00     0.034 A 
HETATM   29  C5  UNL     1      18.933   2.841  51.089  1.00  0.00     0.029 A 
HETATM   30  C4  UNL     1      17.817   3.486  51.583  1.00  0.00     0.003 A 
HETATM   31  C3  UNL     1      17.036   4.136  50.652  1.00  0.00     0.007 A 
HETATM   32  C2  UNL     1      17.320   4.164  49.303  1.00  0.00    -0.060 A 
HETATM   33  C1  UNL     1      16.536   4.845  48.244  1.00  0.00     0.048 C 
HETATM   34  C24 UNL     1      18.470   3.487  48.875  1.00  0.00     0.036 A 
ENDBRANCH  26  28
ENDBRANCH   1  26
TORSDOF 2
ENDMDL
MODEL 7
REMARK VINA RESULT:      -8.8      2.988      5.390
REMARK  2 active torsions:
REMARK  status: ('A' for Active; 'I' for Inactive)
REMARK    1  A    between atoms: C6_6  and  N1_7 
REMARK    2  A    between atoms: N1_7  and  C7_8 
ROOT
HETATM    1  C7  UNL     1      23.541   4.352  49.231  1.00  0.00     0.141 A 
HETATM    2  N2  UNL     1      24.462   5.187  48.759  1.00  0.00    -0.224 NA
HETATM    3  C8  UNL     1      25.700   5.130  49.243  1.00  0.00     0.235 A 
HETATM    4  N3  UNL     1      25.980   4.218  50.206  1.00  0.00    -0.245 NA
HETATM    5  C9  UNL     1      25.057   3.368  50.693  1.00  0.00     0.061 A 
HETATM    6  C10 UNL     1      23.749   3.413  50.196  1.00  0.00     0.034 A 
HETATM    7  C11 UNL     1      22.890   2.524  50.661  1.00  0.00     0.028 C 
HETATM    8  C12 UNL     1      22.221   1.468  51.365  1.00  0.00     0.270 C 
HETATM    9  C13 UNL     1      20.756   1.837  51.624  1.00  0.00     0.207 C 
HETATM   10  O1  UNL     1      20.650   2.237  52.960  1.00  0.00    -0.387 OA
HETATM   11  C14 UNL     1      20.606   1.028  53.692  1.00  0.00     0.198 C 
HETATM   12  C15 UNL     1      21.923   0.372  53.510  1.00  0.00     0.299 C 
HETATM   13  N4  UNL     1      22.806   0.937  52.559  1.00  0.00     0.100 N 
HETATM   14  C16 UNL     1      23.789  -0.095  52.226  1.00  0.00     0.273 C 
HETATM   15  C17 UNL     1      24.453  -0.513  53.497  1.00  0.00     0.033 C 
HETATM   16  C18 UNL     1      25.696  -1.318  53.394  1.00  0.00     0.044 C 
HETATM   17  C19 UNL     1      26.875  -0.586  52.841  1.00  0.00     0.220 C 
HETATM   18  O2  UNL     1      26.515   0.485  52.068  1.00  0.00    -0.339 OA
HETATM   19  C20 UNL     1      26.386   1.836  52.483  1.00  0.00     0.074 C 
HETATM   20  C21 UNL     1      26.690   2.208  53.717  1.00  0.00     0.124 C 
HETATM   21  N5  UNL     1      27.407   1.253  54.537  1.00  0.00    -0.333 N 
HETATM   22  C22 UNL     1      27.738  -0.032  53.959  1.00  0.00     0.251 C 
HETATM   23  O3  UNL     1      28.757  -0.545  54.492  1.00  0.00    -0.270 OA
HETATM   24  C23 UNL     1      25.912   2.765  51.496  1.00  0.00     0.113 C 
HETATM   25  H25 UNL     1      27.600   1.633  55.477  1.00  0.00     0.168 HD
ENDROOT
BRANCH   1  26
HETATM   26  N1  UNL     1      22.248   4.437  48.659  1.00  0.00    -0.340 N 
HETATM   27  H7  UNL     1      21.432   4.318  49.289  1.00  0.00     0.167 HD
BRANCH  26  28
HETATM   28  C6  UNL     1      22.013   4.676  47.279  1.00  0.00     0.034 A 
HETATM   29  C5  UNL     1      21.850   3.655  46.358  1.00  0.00     0.029 A 
HETATM   30  C4  UNL     1      21.602   3.843  45.012  1.00  0.00     0.003 A 
HETATM   31  C3  UNL     1      21.519   5.154  44.594  1.00  0.00     0.007 A 
HETATM   32  C2  UNL     1      21.668   6.235  45.435  1.00  0.00    -0.060 A 
HETATM   33  C1  UNL     1      21.585   7.669  45.063  1.00  0.00     0.048 C 
HETATM   34  C24 UNL     1      21.917   5.967  46.788  1.00  0.00     0.036 A 
ENDBRANCH  26  28
ENDBRANCH   1  26
TORSDOF 2
ENDMDL
MODEL 8
REMARK VINA RESULT:      -8.6      3.585      8.275
REMARK  2 active torsions:
REMARK  status: ('A' for Active; 'I' for Inactive)
REMARK    1  A    between atoms: C6_6  and  N1_7 
REMARK    2  A    between atoms: N1_7  and  C7_8 
ROOT
HETATM    1  C7  UNL     1      24.834   2.593  51.935  1.00  0.00     0.141 A 
HETATM    2  N2  UNL     1      24.273   1.803  52.846  1.00  0.00    -0.224 NA
HETATM    3  C8  UNL     1      22.948   1.766  52.947  1.00  0.00     0.235 A 
HETATM    4  N3  UNL     1      22.210   2.541  52.114  1.00  0.00    -0.245 NA
HETATM    5  C9  UNL     1      22.764   3.345  51.188  1.00  0.00     0.061 A 
HETATM    6  C10 UNL     1      24.158   3.397  51.066  1.00  0.00     0.034 A 
HETATM    7  C11 UNL     1      24.658   4.156  50.108  1.00  0.00     0.028 C 
HETATM    8  C12 UNL     1      24.872   5.060  49.015  1.00  0.00     0.270 C 
HETATM    9  C13 UNL     1      26.155   5.871  49.230  1.00  0.00     0.207 C 
HETATM   10  O1  UNL     1      25.782   7.145  49.672  1.00  0.00    -0.387 OA
HETATM   11  C14 UNL     1      25.396   7.831  48.498  1.00  0.00     0.198 C 
HETATM   12  C15 UNL     1      24.184   7.147  47.984  1.00  0.00     0.299 C 
HETATM   13  N4  UNL     1      23.811   5.930  48.604  1.00  0.00     0.100 N 
HETATM   14  C16 UNL     1      22.919   5.237  47.673  1.00  0.00     0.273 C 
HETATM   15  C17 UNL     1      21.770   6.147  47.387  1.00  0.00     0.033 C 
HETATM   16  C18 UNL     1      20.578   5.564  46.721  1.00  0.00     0.044 C 
HETATM   17  C19 UNL     1      19.800   4.599  47.555  1.00  0.00     0.220 C 
HETATM   18  O2  UNL     1      20.556   4.032  48.546  1.00  0.00    -0.339 OA
HETATM   19  C20 UNL     1      20.675   4.470  49.891  1.00  0.00     0.074 C 
HETATM   20  C21 UNL     1      19.963   5.489  50.347  1.00  0.00     0.124 C 
HETATM   21  N5  UNL     1      18.876   5.962  49.513  1.00  0.00    -0.333 N 
HETATM   22  C22 UNL     1      18.645   5.295  48.249  1.00  0.00     0.251 C 
HETATM   23  O3  UNL     1      17.446   5.388  47.875  1.00  0.00    -0.270 OA
HETATM   24  C23 UNL     1      21.600   3.749  50.718  1.00  0.00     0.113 C 
HETATM   25  H25 UNL     1      18.381   6.754  49.951  1.00  0.00     0.168 HD
ENDROOT
BRANCH   1  26
HETATM   26  N1  UNL     1      26.248   2.570  51.852  1.00  0.00    -0.340 N 
HETATM   27  H7  UNL     1      26.714   3.349  51.351  1.00  0.00     0.167 HD
BRANCH  26  28
HETATM   28  C6  UNL     1      27.052   1.543  52.414  1.00  0.00     0.034 A 
HETATM   29  C5  UNL     1      28.151   1.806  53.216  1.00  0.00     0.029 A 
HETATM   30  C4  UNL     1      28.947   0.838  53.796  1.00  0.00     0.003 A 
HETATM   31  C3  UNL     1      28.592  -0.468  53.538  1.00  0.00     0.007 A 
HETATM   32  C2  UNL     1      27.517  -0.827  52.754  1.00  0.00    -0.060 A 
HETATM   33  C1  UNL     1      27.069  -2.205  52.437  1.00  0.00     0.048 C 
HETATM   34  C24 UNL     1      26.754   0.209  52.198  1.00  0.00     0.036 A 
ENDBRANCH  26  28
ENDBRANCH   1  26
TORSDOF 2
ENDMDL
MODEL 9
REMARK VINA RESULT:      -8.6      2.722      5.259
REMARK  2 active torsions:
REMARK  status: ('A' for Active; 'I' for Inactive)
REMARK    1  A    between atoms: C6_6  and  N1_7 
REMARK    2  A    between atoms: N1_7  and  C7_8 
ROOT
HETATM    1  C7  UNL     1      18.590   1.406  51.838  1.00  0.00     0.141 A 
HETATM    2  N2  UNL     1      17.585   2.264  51.688  1.00  0.00    -0.224 NA
HETATM    3  C8  UNL     1      17.851   3.558  51.534  1.00  0.00     0.235 A 
HETATM    4  N3  UNL     1      19.146   3.959  51.537  1.00  0.00    -0.245 NA
HETATM    5  C9  UNL     1      20.173   3.102  51.689  1.00  0.00     0.061 A 
HETATM    6  C10 UNL     1      19.912   1.736  51.851  1.00  0.00     0.034 A 
HETATM    7  C11 UNL     1      20.949   0.924  51.941  1.00  0.00     0.028 C 
HETATM    8  C12 UNL     1      22.254   0.334  52.022  1.00  0.00     0.270 C 
HETATM    9  C13 UNL     1      22.242  -0.872  52.968  1.00  0.00     0.207 C 
HETATM   10  O1  UNL     1      22.802  -0.463  54.183  1.00  0.00    -0.387 OA
HETATM   11  C14 UNL     1      24.198  -0.493  53.960  1.00  0.00     0.198 C 
HETATM   12  C15 UNL     1      24.489   0.547  52.944  1.00  0.00     0.299 C 
HETATM   13  N4  UNL     1      23.385   1.164  52.309  1.00  0.00     0.100 N 
HETATM   14  C16 UNL     1      23.891   1.775  51.078  1.00  0.00     0.273 C 
HETATM   15  C17 UNL     1      24.979   2.724  51.460  1.00  0.00     0.033 C 
HETATM   16  C18 UNL     1      25.439   3.693  50.433  1.00  0.00     0.044 C 
HETATM   17  C19 UNL     1      24.443   4.745  50.069  1.00  0.00     0.220 C 
HETATM   18  O2  UNL     1      23.154   4.361  50.326  1.00  0.00    -0.339 OA
HETATM   19  C20 UNL     1      22.398   4.627  51.497  1.00  0.00     0.074 C 
HETATM   20  C21 UNL     1      22.885   5.379  52.473  1.00  0.00     0.124 C 
HETATM   21  N5  UNL     1      24.090   6.131  52.189  1.00  0.00    -0.333 N 
HETATM   22  C22 UNL     1      24.677   6.010  50.871  1.00  0.00     0.251 C 
HETATM   23  O3  UNL     1      25.339   7.032  50.551  1.00  0.00    -0.270 OA
HETATM   24  C23 UNL     1      21.089   4.042  51.560  1.00  0.00     0.113 C 
HETATM   25  H25 UNL     1      24.391   6.685  53.006  1.00  0.00     0.168 HD
ENDROOT
BRANCH   1  26
HETATM   26  N1  UNL     1      18.248   0.037  51.968  1.00  0.00    -0.340 N 
HETATM   27  H7  UNL     1      18.913  -0.580  52.469  1.00  0.00     0.167 HD
BRANCH  26  28
HETATM   28  C6  UNL     1      17.051  -0.526  51.452  1.00  0.00     0.034 A 
HETATM   29  C5  UNL     1      16.060  -1.054  52.263  1.00  0.00     0.029 A 
HETATM   30  C4  UNL     1      14.875  -1.594  51.804  1.00  0.00     0.003 A 
HETATM   31  C3  UNL     1      14.702  -1.591  50.436  1.00  0.00     0.007 A 
HETATM   32  C2  UNL     1      15.631  -1.090  49.551  1.00  0.00    -0.060 A 
HETATM   33  C1  UNL     1      15.516  -1.044  48.072  1.00  0.00     0.048 C 
HETATM   34  C24 UNL     1      16.810  -0.557  50.089  1.00  0.00     0.036 A 
ENDBRANCH  26  28
ENDBRANCH   1  26
TORSDOF 2
ENDMDL
