MODEL 1
REMARK VINA RESULT:      -7.2      0.000      0.000
REMARK  6 active torsions:
REMARK  status: ('A' for Active; 'I' for Inactive)
REMARK    1  A    between atoms: C2_2  and  C3_3 
REMARK    2  A    between atoms: C2_2  and  C6_7 
REMARK    3  A    between atoms: C3_3  and  N1_4 
REMARK    4  A    between atoms: C6_7  and  C7_9 
REMARK    5  A    between atoms: C10_12  and  O2_13 
REMARK    6  A    between atoms: O2_13  and  C11_14 
ROOT
HETATM    1  C7  UNL     1      23.954  -0.263  53.617  1.00  0.00     0.015 A 
HETATM    2  C8  UNL     1      22.892  -0.959  54.173  1.00  0.00     0.018 A 
HETATM    3  C9  UNL     1      21.639  -0.451  53.993  1.00  0.00     0.038 A 
HETATM    4  C10 UNL     1      21.436   0.712  53.287  1.00  0.00     0.076 A 
HETATM    5  C17 UNL     1      22.484   1.416  52.728  1.00  0.00     0.038 A 
HETATM    6  C18 UNL     1      23.748   0.903  52.910  1.00  0.00     0.018 A 
ENDROOT
BRANCH   1   7
HETATM    7  C6  UNL     1      25.339  -0.619  53.687  1.00  0.00     0.189 C 
HETATM    8  O1  UNL     1      25.969  -1.127  54.651  1.00  0.00    -0.287 OA
BRANCH   7   9
HETATM    9  C2  UNL     1      26.553  -0.617  52.899  1.00  0.00     0.011 C 
HETATM   10  C1  UNL     1      26.802  -1.864  52.449  1.00  0.00     0.025 C 
BRANCH   9  11
HETATM   11  C3  UNL     1      27.472   0.503  52.550  1.00  0.00     0.313 C 
BRANCH  11  12
HETATM   12  N1  UNL     1      28.241   0.975  53.657  1.00  0.00     0.084 N 
HETATM   13  C4  UNL     1      29.462   0.235  53.867  1.00  0.00     0.309 C 
HETATM   14  C5  UNL     1      28.524   2.371  53.554  1.00  0.00     0.309 C 
ENDBRANCH  11  12
ENDBRANCH   9  11
ENDBRANCH   7   9
ENDBRANCH   1   7
BRANCH   4  15
HETATM   15  O2  UNL     1      20.084   1.052  53.223  1.00  0.00    -0.311 OA
BRANCH  15  16
HETATM   16  C11 UNL     1      19.248   0.730  52.196  1.00  0.00     0.076 A 
HETATM   17  C12 UNL     1      18.273  -0.250  52.422  1.00  0.00     0.037 A 
HETATM   18  C13 UNL     1      17.430  -0.561  51.350  1.00  0.00     0.003 A 
HETATM   19  C14 UNL     1      17.590   0.101  50.130  1.00  0.00     0.000 A 
HETATM   20  C15 UNL     1      18.557   1.051  49.957  1.00  0.00     0.003 A 
HETATM   21  C16 UNL     1      19.406   1.384  50.987  1.00  0.00     0.037 A 
ENDBRANCH  15  16
ENDBRANCH   4  15
TORSDOF 6
ENDMDL
MODEL 2
REMARK VINA RESULT:      -7.1      0.231      1.505
REMARK  6 active torsions:
REMARK  status: ('A' for Active; 'I' for Inactive)
REMARK    1  A    between atoms: C2_2  and  C3_3 
REMARK    2  A    between atoms: C2_2  and  C6_7 
REMARK    3  A    between atoms: C3_3  and  N1_4 
REMARK    4  A    between atoms: C6_7  and  C7_9 
REMARK    5  A    between atoms: C10_12  and  O2_13 
REMARK    6  A    between atoms: O2_13  and  C11_14 
ROOT
HETATM    1  C7  UNL     1      24.012   0.047  53.355  1.00  0.00     0.015 A 
HETATM    2  C8  UNL     1      23.678   1.246  52.745  1.00  0.00     0.018 A 
HETATM    3  C9  UNL     1      22.356   1.575  52.677  1.00  0.00     0.038 A 
HETATM    4  C10 UNL     1      21.389   0.745  53.194  1.00  0.00     0.076 A 
HETATM    5  C17 UNL     1      21.706  -0.452  53.804  1.00  0.00     0.038 A 
HETATM    6  C18 UNL     1      23.040  -0.783  53.872  1.00  0.00     0.018 A 
ENDROOT
BRANCH   1   7
HETATM    7  C6  UNL     1      25.331  -0.484  53.531  1.00  0.00     0.189 C 
HETATM    8  O1  UNL     1      25.790  -1.130  54.508  1.00  0.00    -0.287 OA
BRANCH   7   9
HETATM    9  C2  UNL     1      26.613  -0.580  52.868  1.00  0.00     0.011 C 
HETATM   10  C1  UNL     1      26.864  -1.867  52.553  1.00  0.00     0.025 C 
BRANCH   9  11
HETATM   11  C3  UNL     1      27.598   0.483  52.517  1.00  0.00     0.313 C 
BRANCH  11  12
HETATM   12  N1  UNL     1      28.372   0.932  53.629  1.00  0.00     0.084 N 
HETATM   13  C4  UNL     1      29.640   0.254  53.759  1.00  0.00     0.309 C 
HETATM   14  C5  UNL     1      28.572   2.346  53.605  1.00  0.00     0.309 C 
ENDBRANCH  11  12
ENDBRANCH   9  11
ENDBRANCH   7   9
ENDBRANCH   1   7
BRANCH   4  15
HETATM   15  O2  UNL     1      20.106   1.269  53.020  1.00  0.00    -0.311 OA
BRANCH  15  16
HETATM   16  C11 UNL     1      19.211   0.841  52.085  1.00  0.00     0.076 A 
HETATM   17  C12 UNL     1      19.202   1.482  50.840  1.00  0.00     0.037 A 
HETATM   18  C13 UNL     1      18.272   1.022  49.901  1.00  0.00     0.003 A 
HETATM   19  C14 UNL     1      17.415  -0.029  50.234  1.00  0.00     0.000 A 
HETATM   20  C15 UNL     1      17.462  -0.624  51.463  1.00  0.00     0.003 A 
HETATM   21  C16 UNL     1      18.362  -0.200  52.415  1.00  0.00     0.037 A 
ENDBRANCH  15  16
ENDBRANCH   4  15
TORSDOF 6
ENDMDL
MODEL 3
REMARK VINA RESULT:      -7.1      3.813      6.235
REMARK  6 active torsions:
REMARK  status: ('A' for Active; 'I' for Inactive)
REMARK    1  A    between atoms: C2_2  and  C3_3 
REMARK    2  A    between atoms: C2_2  and  C6_7 
REMARK    3  A    between atoms: C3_3  and  N1_4 
REMARK    4  A    between atoms: C6_7  and  C7_9 
REMARK    5  A    between atoms: C10_12  and  O2_13 
REMARK    6  A    between atoms: O2_13  and  C11_14 
ROOT
HETATM    1  C7  UNL     1      23.379   1.410  52.410  1.00  0.00     0.015 A 
HETATM    2  C8  UNL     1      23.996   2.525  52.954  1.00  0.00     0.018 A 
HETATM    3  C9  UNL     1      24.182   3.606  52.142  1.00  0.00     0.038 A 
HETATM    4  C10 UNL     1      23.773   3.588  50.829  1.00  0.00     0.076 A 
HETATM    5  C17 UNL     1      23.157   2.485  50.273  1.00  0.00     0.038 A 
HETATM    6  C18 UNL     1      22.970   1.395  51.093  1.00  0.00     0.018 A 
ENDROOT
BRANCH   1   7
HETATM    7  C6  UNL     1      23.090   0.179  53.083  1.00  0.00     0.189 C 
HETATM    8  O1  UNL     1      22.193  -0.664  52.821  1.00  0.00    -0.287 OA
BRANCH   7   9
HETATM    9  C2  UNL     1      23.533  -0.640  54.190  1.00  0.00     0.011 C 
HETATM   10  C1  UNL     1      22.468  -1.225  54.774  1.00  0.00     0.025 C 
BRANCH   9  11
HETATM   11  C3  UNL     1      24.907  -0.896  54.709  1.00  0.00     0.313 C 
BRANCH  11  12
HETATM   12  N1  UNL     1      25.935  -0.299  53.919  1.00  0.00     0.084 N 
HETATM   13  C4  UNL     1      26.993   0.293  54.703  1.00  0.00     0.309 C 
HETATM   14  C5  UNL     1      26.481  -1.215  52.969  1.00  0.00     0.309 C 
ENDBRANCH  11  12
ENDBRANCH   9  11
ENDBRANCH   7   9
ENDBRANCH   1   7
BRANCH   4  15
HETATM   15  O2  UNL     1      24.058   4.791  50.180  1.00  0.00    -0.311 OA
BRANCH  15  16
HETATM   16  C11 UNL     1      25.253   5.099  49.601  1.00  0.00     0.076 A 
HETATM   17  C12 UNL     1      25.460   6.419  49.180  1.00  0.00     0.037 A 
HETATM   18  C13 UNL     1      26.695   6.705  48.590  1.00  0.00     0.003 A 
HETATM   19  C14 UNL     1      27.646   5.692  48.447  1.00  0.00     0.000 A 
HETATM   20  C15 UNL     1      27.397   4.418  48.874  1.00  0.00     0.003 A 
HETATM   21  C16 UNL     1      26.195   4.095  49.460  1.00  0.00     0.037 A 
ENDBRANCH  15  16
ENDBRANCH   4  15
TORSDOF 6
ENDMDL
MODEL 4
REMARK VINA RESULT:      -6.9      2.872      7.548
REMARK  6 active torsions:
REMARK  status: ('A' for Active; 'I' for Inactive)
REMARK    1  A    between atoms: C2_2  and  C3_3 
REMARK    2  A    between atoms: C2_2  and  C6_7 
REMARK    3  A    between atoms: C3_3  and  N1_4 
REMARK    4  A    between atoms: C6_7  and  C7_9 
REMARK    5  A    between atoms: C10_12  and  O2_13 
REMARK    6  A    between atoms: O2_13  and  C11_14 
ROOT
HETATM    1  C7  UNL     1      22.283   1.752  52.531  1.00  0.00     0.015 A 
HETATM    2  C8  UNL     1      22.020   0.680  53.371  1.00  0.00     0.018 A 
HETATM    3  C9  UNL     1      23.053  -0.159  53.670  1.00  0.00     0.038 A 
HETATM    4  C10 UNL     1      24.311   0.050  53.155  1.00  0.00     0.076 A 
HETATM    5  C17 UNL     1      24.588   1.112  52.318  1.00  0.00     0.038 A 
HETATM    6  C18 UNL     1      23.546   1.958  52.017  1.00  0.00     0.018 A 
ENDROOT
BRANCH   1   7
HETATM    7  C6  UNL     1      21.348   2.745  52.095  1.00  0.00     0.189 C 
HETATM    8  O1  UNL     1      20.314   3.157  52.681  1.00  0.00    -0.287 OA
BRANCH   7   9
HETATM    9  C2  UNL     1      21.085   3.651  50.998  1.00  0.00     0.011 C 
HETATM   10  C1  UNL     1      21.230   4.924  51.419  1.00  0.00     0.025 C 
BRANCH   9  11
HETATM   11  C3  UNL     1      20.713   3.367  49.583  1.00  0.00     0.313 C 
BRANCH  11  12
HETATM   12  N1  UNL     1      21.660   2.547  48.898  1.00  0.00     0.084 N 
HETATM   13  C4  UNL     1      21.242   1.171  48.768  1.00  0.00     0.309 C 
HETATM   14  C5  UNL     1      22.003   3.080  47.618  1.00  0.00     0.309 C 
ENDBRANCH  11  12
ENDBRANCH   9  11
ENDBRANCH   7   9
ENDBRANCH   1   7
BRANCH   4  15
HETATM   15  O2  UNL     1      25.217  -0.922  53.585  1.00  0.00    -0.311 OA
BRANCH  15  16
HETATM   16  C11 UNL     1      26.552  -0.717  53.762  1.00  0.00     0.076 A 
HETATM   17  C12 UNL     1      26.955   0.188  54.752  1.00  0.00     0.037 A 
HETATM   18  C13 UNL     1      28.332   0.379  54.910  1.00  0.00     0.003 A 
HETATM   19  C14 UNL     1      29.225  -0.322  54.096  1.00  0.00     0.000 A 
HETATM   20  C15 UNL     1      28.784  -1.196  53.143  1.00  0.00     0.003 A 
HETATM   21  C16 UNL     1      27.438  -1.411  52.956  1.00  0.00     0.037 A 
ENDBRANCH  15  16
ENDBRANCH   4  15
TORSDOF 6
ENDMDL
MODEL 5
REMARK VINA RESULT:      -6.9      4.637      7.814
REMARK  6 active torsions:
REMARK  status: ('A' for Active; 'I' for Inactive)
REMARK    1  A    between atoms: C2_2  and  C3_3 
REMARK    2  A    between atoms: C2_2  and  C6_7 
REMARK    3  A    between atoms: C3_3  and  N1_4 
REMARK    4  A    between atoms: C6_7  and  C7_9 
REMARK    5  A    between atoms: C10_12  and  O2_13 
REMARK    6  A    between atoms: O2_13  and  C11_14 
ROOT
HETATM    1  C7  UNL     1      24.916   3.450  51.080  1.00  0.00     0.015 A 
HETATM    2  C8  UNL     1      24.308   3.166  52.294  1.00  0.00     0.018 A 
HETATM    3  C9  UNL     1      24.927   2.273  53.118  1.00  0.00     0.038 A 
HETATM    4  C10 UNL     1      26.111   1.673  52.758  1.00  0.00     0.076 A 
HETATM    5  C17 UNL     1      26.728   1.945  51.553  1.00  0.00     0.038 A 
HETATM    6  C18 UNL     1      26.103   2.847  50.722  1.00  0.00     0.018 A 
ENDROOT
BRANCH   1   7
HETATM    7  C6  UNL     1      24.438   4.351  50.075  1.00  0.00     0.189 C 
HETATM    8  O1  UNL     1      23.323   4.354  49.492  1.00  0.00    -0.287 OA
BRANCH   7   9
HETATM    9  C2  UNL     1      24.838   5.512  49.309  1.00  0.00     0.011 C 
HETATM   10  C1  UNL     1      23.929   5.750  48.342  1.00  0.00     0.025 C 
BRANCH   9  11
HETATM   11  C3  UNL     1      26.026   6.400  49.457  1.00  0.00     0.313 C 
BRANCH  11  12
HETATM   12  N1  UNL     1      26.938   6.320  48.361  1.00  0.00     0.084 N 
HETATM   13  C4  UNL     1      27.659   7.547  48.121  1.00  0.00     0.309 C 
HETATM   14  C5  UNL     1      27.852   5.232  48.506  1.00  0.00     0.309 C 
ENDBRANCH  11  12
ENDBRANCH   9  11
ENDBRANCH   7   9
ENDBRANCH   1   7
BRANCH   4  15
HETATM   15  O2  UNL     1      26.570   0.796  53.743  1.00  0.00    -0.311 OA
BRANCH  15  16
HETATM   16  C11 UNL     1      27.408  -0.255  53.519  1.00  0.00     0.076 A 
HETATM   17  C12 UNL     1      28.755  -0.112  53.875  1.00  0.00     0.037 A 
HETATM   18  C13 UNL     1      29.590  -1.208  53.633  1.00  0.00     0.003 A 
HETATM   19  C14 UNL     1      29.062  -2.368  53.062  1.00  0.00     0.000 A 
HETATM   20  C15 UNL     1      27.740  -2.460  52.731  1.00  0.00     0.003 A 
HETATM   21  C16 UNL     1      26.885  -1.404  52.952  1.00  0.00     0.037 A 
ENDBRANCH  15  16
ENDBRANCH   4  15
TORSDOF 6
ENDMDL
MODEL 6
REMARK VINA RESULT:      -6.8      2.528      7.552
REMARK  6 active torsions:
REMARK  status: ('A' for Active; 'I' for Inactive)
REMARK    1  A    between atoms: C2_2  and  C3_3 
REMARK    2  A    between atoms: C2_2  and  C6_7 
REMARK    3  A    between atoms: C3_3  and  N1_4 
REMARK    4  A    between atoms: C6_7  and  C7_9 
REMARK    5  A    between atoms: C10_12  and  O2_13 
REMARK    6  A    between atoms: O2_13  and  C11_14 
ROOT
HETATM    1  C7  UNL     1      20.797  -0.330  53.212  1.00  0.00     0.015 A 
HETATM    2  C8  UNL     1      21.895   0.456  52.900  1.00  0.00     0.018 A 
HETATM    3  C9  UNL     1      23.074   0.174  53.525  1.00  0.00     0.038 A 
HETATM    4  C10 UNL     1      23.170  -0.853  54.435  1.00  0.00     0.076 A 
HETATM    5  C17 UNL     1      22.085  -1.645  54.755  1.00  0.00     0.038 A 
HETATM    6  C18 UNL     1      20.896  -1.360  54.124  1.00  0.00     0.018 A 
ENDROOT
BRANCH   1   7
HETATM    7  C6  UNL     1      19.476  -0.206  52.674  1.00  0.00     0.189 C 
HETATM    8  O1  UNL     1      18.413  -0.747  53.075  1.00  0.00    -0.287 OA
BRANCH   7   9
HETATM    9  C2  UNL     1      18.739   0.449  51.614  1.00  0.00     0.011 C 
HETATM   10  C1  UNL     1      17.665  -0.296  51.284  1.00  0.00     0.025 C 
BRANCH   9  11
HETATM   11  C3  UNL     1      19.002   1.738  50.913  1.00  0.00     0.313 C 
BRANCH  11  12
HETATM   12  N1  UNL     1      18.909   2.879  51.766  1.00  0.00     0.084 N 
HETATM   13  C4  UNL     1      20.142   3.623  51.867  1.00  0.00     0.309 C 
HETATM   14  C5  UNL     1      17.842   3.747  51.384  1.00  0.00     0.309 C 
ENDBRANCH  11  12
ENDBRANCH   9  11
ENDBRANCH   7   9
ENDBRANCH   1   7
BRANCH   4  15
HETATM   15  O2  UNL     1      24.461  -0.969  54.955  1.00  0.00    -0.311 OA
BRANCH  15  16
HETATM   16  C11 UNL     1      25.596  -0.576  54.312  1.00  0.00     0.076 A 
HETATM   17  C12 UNL     1      25.838  -1.087  53.030  1.00  0.00     0.037 A 
HETATM   18  C13 UNL     1      27.011  -0.666  52.395  1.00  0.00     0.003 A 
HETATM   19  C14 UNL     1      27.871   0.222  53.047  1.00  0.00     0.000 A 
HETATM   20  C15 UNL     1      27.592   0.693  54.298  1.00  0.00     0.003 A 
HETATM   21  C16 UNL     1      26.448   0.303  54.957  1.00  0.00     0.037 A 
ENDBRANCH  15  16
ENDBRANCH   4  15
TORSDOF 6
ENDMDL
MODEL 7
REMARK VINA RESULT:      -6.8      4.292      6.601
REMARK  6 active torsions:
REMARK  status: ('A' for Active; 'I' for Inactive)
REMARK    1  A    between atoms: C2_2  and  C3_3 
REMARK    2  A    between atoms: C2_2  and  C6_7 
REMARK    3  A    between atoms: C3_3  and  N1_4 
REMARK    4  A    between atoms: C6_7  and  C7_9 
REMARK    5  A    between atoms: C10_12  and  O2_13 
REMARK    6  A    between atoms: O2_13  and  C11_14 
ROOT
HETATM    1  C7  UNL     1      25.377   1.592  51.948  1.00  0.00     0.015 A 
HETATM    2  C8  UNL     1      24.211   2.342  51.922  1.00  0.00     0.018 A 
HETATM    3  C9  UNL     1      24.169   3.419  51.086  1.00  0.00     0.038 A 
HETATM    4  C10 UNL     1      25.247   3.750  50.298  1.00  0.00     0.076 A 
HETATM    5  C17 UNL     1      26.414   3.013  50.313  1.00  0.00     0.038 A 
HETATM    6  C18 UNL     1      26.455   1.927  51.156  1.00  0.00     0.018 A 
ENDROOT
BRANCH   1   7
HETATM    7  C6  UNL     1      25.628   0.431  52.748  1.00  0.00     0.189 C 
HETATM    8  O1  UNL     1      24.803  -0.276  53.383  1.00  0.00    -0.287 OA
BRANCH   7   9
HETATM    9  C2  UNL     1      26.704  -0.424  53.201  1.00  0.00     0.011 C 
HETATM   10  C1  UNL     1      26.649  -1.603  52.551  1.00  0.00     0.025 C 
BRANCH   9  11
HETATM   11  C3  UNL     1      27.775  -0.171  54.207  1.00  0.00     0.313 C 
BRANCH  11  12
HETATM   12  N1  UNL     1      28.915   0.500  53.670  1.00  0.00     0.084 N 
HETATM   13  C4  UNL     1      29.251   1.715  54.373  1.00  0.00     0.309 C 
HETATM   14  C5  UNL     1      30.055  -0.357  53.597  1.00  0.00     0.309 C 
ENDBRANCH  11  12
ENDBRANCH   9  11
ENDBRANCH   7   9
ENDBRANCH   1   7
BRANCH   4  15
HETATM   15  O2  UNL     1      24.994   4.882  49.521  1.00  0.00    -0.311 OA
BRANCH  15  16
HETATM   16  C11 UNL     1      25.836   5.946  49.399  1.00  0.00     0.076 A 
HETATM   17  C12 UNL     1      25.590   7.076  50.189  1.00  0.00     0.037 A 
HETATM   18  C13 UNL     1      26.471   8.153  50.042  1.00  0.00     0.003 A 
HETATM   19  C14 UNL     1      27.532   8.060  49.138  1.00  0.00     0.000 A 
HETATM   20  C15 UNL     1      27.731   6.936  48.388  1.00  0.00     0.003 A 
HETATM   21  C16 UNL     1      26.887   5.856  48.502  1.00  0.00     0.037 A 
ENDBRANCH  15  16
ENDBRANCH   4  15
TORSDOF 6
ENDMDL
MODEL 8
REMARK VINA RESULT:      -6.8      2.661      7.925
REMARK  6 active torsions:
REMARK  status: ('A' for Active; 'I' for Inactive)
REMARK    1  A    between atoms: C2_2  and  C3_3 
REMARK    2  A    between atoms: C2_2  and  C6_7 
REMARK    3  A    between atoms: C3_3  and  N1_4 
REMARK    4  A    between atoms: C6_7  and  C7_9 
REMARK    5  A    between atoms: C10_12  and  O2_13 
REMARK    6  A    between atoms: O2_13  and  C11_14 
ROOT
HETATM    1  C7  UNL     1      23.348   1.564  51.512  1.00  0.00     0.015 A 
HETATM    2  C8  UNL     1      24.638   2.065  51.602  1.00  0.00     0.018 A 
HETATM    3  C9  UNL     1      25.448   1.558  52.576  1.00  0.00     0.038 A 
HETATM    4  C10 UNL     1      25.000   0.586  53.439  1.00  0.00     0.076 A 
HETATM    5  C17 UNL     1      23.719   0.077  53.362  1.00  0.00     0.038 A 
HETATM    6  C18 UNL     1      22.903   0.588  52.380  1.00  0.00     0.018 A 
ENDROOT
BRANCH   1   7
HETATM    7  C6  UNL     1      22.343   1.954  50.570  1.00  0.00     0.189 C 
HETATM    8  O1  UNL     1      22.090   3.104  50.127  1.00  0.00    -0.287 OA
BRANCH   7   9
HETATM    9  C2  UNL     1      21.278   1.410  49.756  1.00  0.00     0.011 C 
HETATM   10  C1  UNL     1      21.705   1.273  48.484  1.00  0.00     0.025 C 
BRANCH   9  11
HETATM   11  C3  UNL     1      19.891   1.011  50.128  1.00  0.00     0.313 C 
BRANCH  11  12
HETATM   12  N1  UNL     1      19.532   1.371  51.462  1.00  0.00     0.084 N 
HETATM   13  C4  UNL     1      18.551   2.427  51.530  1.00  0.00     0.309 C 
HETATM   14  C5  UNL     1      19.094   0.243  52.221  1.00  0.00     0.309 C 
ENDBRANCH  11  12
ENDBRANCH   9  11
ENDBRANCH   7   9
ENDBRANCH   1   7
BRANCH   4  15
HETATM   15  O2  UNL     1      25.985   0.210  54.355  1.00  0.00    -0.311 OA
BRANCH  15  16
HETATM   16  C11 UNL     1      27.249  -0.178  54.022  1.00  0.00     0.076 A 
HETATM   17  C12 UNL     1      27.403  -1.362  53.290  1.00  0.00     0.037 A 
HETATM   18  C13 UNL     1      28.711  -1.736  52.964  1.00  0.00     0.003 A 
HETATM   19  C14 UNL     1      29.781  -0.935  53.370  1.00  0.00     0.000 A 
HETATM   20  C15 UNL     1      29.580   0.212  54.084  1.00  0.00     0.003 A 
HETATM   21  C16 UNL     1      28.309   0.614  54.425  1.00  0.00     0.037 A 
ENDBRANCH  15  16
ENDBRANCH   4  15
TORSDOF 6
ENDMDL
MODEL 9
REMARK VINA RESULT:      -6.8      2.991      7.338
REMARK  6 active torsions:
REMARK  status: ('A' for Active; 'I' for Inactive)
REMARK    1  A    between atoms: C2_2  and  C3_3 
REMARK    2  A    between atoms: C2_2  and  C6_7 
REMARK    3  A    between atoms: C3_3  and  N1_4 
REMARK    4  A    between atoms: C6_7  and  C7_9 
REMARK    5  A    between atoms: C10_12  and  O2_13 
REMARK    6  A    between atoms: O2_13  and  C11_14 
ROOT
HETATM    1  C7  UNL     1      21.809   1.933  52.473  1.00  0.00     0.015 A 
HETATM    2  C8  UNL     1      21.487   0.852  53.279  1.00  0.00     0.018 A 
HETATM    3  C9  UNL     1      22.491  -0.008  53.617  1.00  0.00     0.038 A 
HETATM    4  C10 UNL     1      23.778   0.191  53.172  1.00  0.00     0.076 A 
HETATM    5  C17 UNL     1      24.114   1.263  52.370  1.00  0.00     0.038 A 
HETATM    6  C18 UNL     1      23.100   2.129  52.030  1.00  0.00     0.018 A 
ENDROOT
BRANCH   1   7
HETATM    7  C6  UNL     1      20.913   2.947  52.006  1.00  0.00     0.189 C 
HETATM    8  O1  UNL     1      19.877   3.394  52.564  1.00  0.00    -0.287 OA
BRANCH   7   9
HETATM    9  C2  UNL     1      20.699   3.849  50.895  1.00  0.00     0.011 C 
HETATM   10  C1  UNL     1      19.450   3.686  50.414  1.00  0.00     0.025 C 
BRANCH   9  11
HETATM   11  C3  UNL     1      21.614   4.853  50.280  1.00  0.00     0.313 C 
BRANCH  11  12
HETATM   12  N1  UNL     1      22.069   5.847  51.198  1.00  0.00     0.084 N 
HETATM   13  C4  UNL     1      23.499   5.841  51.393  1.00  0.00     0.309 C 
HETATM   14  C5  UNL     1      21.629   7.155  50.831  1.00  0.00     0.309 C 
ENDBRANCH  11  12
ENDBRANCH   9  11
ENDBRANCH   7   9
ENDBRANCH   1   7
BRANCH   4  15
HETATM   15  O2  UNL     1      24.646  -0.801  53.633  1.00  0.00    -0.311 OA
BRANCH  15  16
HETATM   16  C11 UNL     1      25.997  -0.660  53.750  1.00  0.00     0.076 A 
HETATM   17  C12 UNL     1      26.487   0.155  54.778  1.00  0.00     0.037 A 
HETATM   18  C13 UNL     1      27.877   0.282  54.873  1.00  0.00     0.003 A 
HETATM   19  C14 UNL     1      28.697  -0.392  53.965  1.00  0.00     0.000 A 
HETATM   20  C15 UNL     1      28.171  -1.177  52.978  1.00  0.00     0.003 A 
HETATM   21  C16 UNL     1      26.809  -1.327  52.850  1.00  0.00     0.037 A 
ENDBRANCH  15  16
ENDBRANCH   4  15
TORSDOF 6
ENDMDL
