MODEL 1
REMARK VINA RESULT:      -7.1      0.000      0.000
REMARK  5 active torsions:
REMARK  status: ('A' for Active; 'I' for Inactive)
REMARK    1  A    between atoms: O1_2  and  C2_3 
REMARK    2  A    between atoms: C6_7  and  N1_8 
REMARK    3  A    between atoms: C8_11  and  N3_12 
REMARK    4  A    between atoms: N3_12  and  C9_13 
REMARK    5  A    between atoms: C9_13  and  C10_14 
ROOT
HETATM    1  C2  UNL     1      26.372   1.791  53.799  1.00  0.00     0.117 C 
HETATM    2  C3  UNL     1      26.332   0.536  54.242  1.00  0.00     0.051 C 
HETATM    3  C4  UNL     1      25.996  -0.570  53.170  1.00  0.00     0.102 C 
HETATM    4  C5  UNL     1      24.672  -0.140  53.915  1.00  0.00    -0.007 C 
HETATM    5  C6  UNL     1      24.806  -0.857  55.087  1.00  0.00     0.105 C 
HETATM    6  N2  UNL     1      26.235  -0.339  55.444  1.00  0.00    -0.343 N 
HETATM    7  C7  UNL     1      23.952   0.963  53.259  1.00  0.00     0.043 C 
HETATM    8  C8  UNL     1      24.939   1.965  53.226  1.00  0.00     0.064 C 
HETATM    9  H8  UNL     1      26.971  -0.370  56.137  1.00  0.00     0.167 HD
ENDROOT
BRANCH   8  10
HETATM   10  N3  UNL     1      24.655   3.219  52.654  1.00  0.00    -0.386 N 
HETATM   11  H10 UNL     1      24.694   4.215  52.965  1.00  0.00     0.159 HD
BRANCH  10  12
HETATM   12  C9  UNL     1      24.198   2.995  51.299  1.00  0.00     0.147 C 
BRANCH  12  13
HETATM   13  C10 UNL     1      24.264   4.217  50.428  1.00  0.00     0.133 C 
HETATM   14  N4  UNL     1      24.833   5.361  51.143  1.00  0.00    -0.328 N 
HETATM   15  C11 UNL     1      25.407   6.169  50.120  1.00  0.00     0.361 C 
HETATM   16  H14 UNL     1      24.843   5.584  52.161  1.00  0.00     0.165 HD
HETATM   17  O2  UNL     1      25.924   7.333  50.205  1.00  0.00    -0.238 OA
HETATM   18  O3  UNL     1      25.335   5.486  48.910  1.00  0.00    -0.297 OA
HETATM   19  C12 UNL     1      25.197   4.098  49.261  1.00  0.00     0.154 C 
HETATM   20  C13 UNL     1      26.577   3.646  49.666  1.00  0.00     0.042 C 
ENDBRANCH  12  13
ENDBRANCH  10  12
ENDBRANCH   8  10
BRANCH   1  21
HETATM   21  O1  UNL     1      27.572   2.288  54.057  1.00  0.00    -0.352 OA
HETATM   22  C1  UNL     1      28.783   1.679  53.679  1.00  0.00     0.210 C 
ENDBRANCH   1  21
BRANCH   5  23
HETATM   23  N1  UNL     1      23.724  -1.613  55.514  1.00  0.00    -0.385 N 
HETATM   24  H6  UNL     1      23.859  -2.604  55.225  1.00  0.00     0.157 HD
HETATM   25  H7  UNL     1      22.892  -1.335  56.022  1.00  0.00     0.157 HD
ENDBRANCH   5  23
TORSDOF 5
ENDMDL
MODEL 2
REMARK VINA RESULT:      -7.0      2.383      6.468
REMARK  5 active torsions:
REMARK  status: ('A' for Active; 'I' for Inactive)
REMARK    1  A    between atoms: O1_2  and  C2_3 
REMARK    2  A    between atoms: C6_7  and  N1_8 
REMARK    3  A    between atoms: C8_11  and  N3_12 
REMARK    4  A    between atoms: N3_12  and  C9_13 
REMARK    5  A    between atoms: C9_13  and  C10_14 
ROOT
HETATM    1  C2  UNL     1      24.220   4.281  51.311  1.00  0.00     0.117 C 
HETATM    2  C3  UNL     1      24.553   5.328  50.558  1.00  0.00     0.051 C 
HETATM    3  C4  UNL     1      24.375   5.151  49.002  1.00  0.00     0.102 C 
HETATM    4  C5  UNL     1      25.864   4.814  49.403  1.00  0.00    -0.007 C 
HETATM    5  C6  UNL     1      26.378   6.089  49.526  1.00  0.00     0.105 C 
HETATM    6  N2  UNL     1      25.292   6.620  50.513  1.00  0.00    -0.343 N 
HETATM    7  C7  UNL     1      26.090   3.394  49.714  1.00  0.00     0.043 C 
HETATM    8  C8  UNL     1      25.159   3.180  50.748  1.00  0.00     0.064 C 
HETATM    9  H8  UNL     1      25.005   7.414  51.070  1.00  0.00     0.167 HD
ENDROOT
BRANCH   8  10
HETATM   10  N3  UNL     1      25.042   1.909  51.341  1.00  0.00    -0.386 N 
HETATM   11  H10 UNL     1      24.685   0.973  51.050  1.00  0.00     0.159 HD
BRANCH  10  12
HETATM   12  C9  UNL     1      25.564   2.000  52.688  1.00  0.00     0.147 C 
BRANCH  12  13
HETATM   13  C10 UNL     1      27.056   1.846  52.770  1.00  0.00     0.133 C 
HETATM   14  N4  UNL     1      27.629   2.677  53.832  1.00  0.00    -0.328 N 
HETATM   15  C11 UNL     1      28.822   1.997  54.208  1.00  0.00     0.361 C 
HETATM   16  H14 UNL     1      27.286   3.567  54.251  1.00  0.00     0.165 HD
HETATM   17  O2  UNL     1      29.744   2.368  55.011  1.00  0.00    -0.238 OA
HETATM   18  O3  UNL     1      28.877   0.775  53.545  1.00  0.00    -0.297 OA
HETATM   19  C12 UNL     1      27.519   0.479  53.176  1.00  0.00     0.154 C 
HETATM   20  C13 UNL     1      26.855  -0.007  54.438  1.00  0.00     0.042 C 
ENDBRANCH  12  13
ENDBRANCH  10  12
ENDBRANCH   8  10
BRANCH   1  21
HETATM   21  O1  UNL     1      23.281   4.660  52.165  1.00  0.00    -0.352 OA
HETATM   22  C1  UNL     1      21.951   4.950  51.809  1.00  0.00     0.210 C 
ENDBRANCH   1  21
BRANCH   5  23
HETATM   23  N1  UNL     1      27.574   6.374  48.880  1.00  0.00    -0.385 N 
HETATM   24  H6  UNL     1      27.841   7.363  49.067  1.00  0.00     0.157 HD
HETATM   25  H7  UNL     1      28.158   5.785  48.296  1.00  0.00     0.157 HD
ENDBRANCH   5  23
TORSDOF 5
ENDMDL
MODEL 3
REMARK VINA RESULT:      -6.9      1.757      2.895
REMARK  5 active torsions:
REMARK  status: ('A' for Active; 'I' for Inactive)
REMARK    1  A    between atoms: O1_2  and  C2_3 
REMARK    2  A    between atoms: C6_7  and  N1_8 
REMARK    3  A    between atoms: C8_11  and  N3_12 
REMARK    4  A    between atoms: N3_12  and  C9_13 
REMARK    5  A    between atoms: C9_13  and  C10_14 
ROOT
HETATM    1  C2  UNL     1      25.544   0.370  53.316  1.00  0.00     0.117 C 
HETATM    2  C3  UNL     1      26.616  -0.294  53.746  1.00  0.00     0.051 C 
HETATM    3  C4  UNL     1      27.224   0.183  55.120  1.00  0.00     0.102 C 
HETATM    4  C5  UNL     1      27.990   0.887  53.933  1.00  0.00    -0.007 C 
HETATM    5  C6  UNL     1      28.832  -0.135  53.544  1.00  0.00     0.105 C 
HETATM    6  N2  UNL     1      27.722  -1.217  53.366  1.00  0.00    -0.343 N 
HETATM    7  C7  UNL     1      27.414   2.183  53.539  1.00  0.00     0.043 C 
HETATM    8  C8  UNL     1      26.090   1.821  53.228  1.00  0.00     0.064 C 
HETATM    9  H8  UNL     1      27.541  -2.171  53.081  1.00  0.00     0.167 HD
ENDROOT
BRANCH   8  10
HETATM   10  N3  UNL     1      25.171   2.798  52.802  1.00  0.00    -0.386 N 
HETATM   11  H10 UNL     1      24.706   3.630  53.228  1.00  0.00     0.159 HD
BRANCH  10  12
HETATM   12  C9  UNL     1      24.832   2.515  51.424  1.00  0.00     0.147 C 
BRANCH  12  13
HETATM   13  C10 UNL     1      24.468   3.736  50.628  1.00  0.00     0.133 C 
HETATM   14  N4  UNL     1      24.852   4.969  51.321  1.00  0.00    -0.328 N 
HETATM   15  C11 UNL     1      25.050   5.915  50.275  1.00  0.00     0.361 C 
HETATM   16  H14 UNL     1      24.968   5.163  52.338  1.00  0.00     0.165 HD
HETATM   17  O2  UNL     1      25.282   7.169  50.355  1.00  0.00    -0.238 OA
HETATM   18  O3  UNL     1      24.955   5.264  49.050  1.00  0.00    -0.297 OA
HETATM   19  C12 UNL     1      25.209   3.877  49.333  1.00  0.00     0.154 C 
HETATM   20  C13 UNL     1      26.702   3.768  49.504  1.00  0.00     0.042 C 
ENDBRANCH  12  13
ENDBRANCH  10  12
ENDBRANCH   8  10
BRANCH   1  21
HETATM   21  O1  UNL     1      24.551  -0.493  53.160  1.00  0.00    -0.352 OA
HETATM   22  C1  UNL     1      23.203  -0.214  53.450  1.00  0.00     0.210 C 
ENDBRANCH   1  21
BRANCH   5  23
HETATM   23  N1  UNL     1      30.180   0.157  53.385  1.00  0.00    -0.385 N 
HETATM   24  H6  UNL     1      30.280   1.090  52.933  1.00  0.00     0.157 HD
HETATM   25  H7  UNL     1      31.000  -0.386  53.630  1.00  0.00     0.157 HD
ENDBRANCH   5  23
TORSDOF 5
ENDMDL
MODEL 4
REMARK VINA RESULT:      -6.9      3.218      5.277
REMARK  5 active torsions:
REMARK  status: ('A' for Active; 'I' for Inactive)
REMARK    1  A    between atoms: O1_2  and  C2_3 
REMARK    2  A    between atoms: C6_7  and  N1_8 
REMARK    3  A    between atoms: C8_11  and  N3_12 
REMARK    4  A    between atoms: N3_12  and  C9_13 
REMARK    5  A    between atoms: C9_13  and  C10_14 
ROOT
HETATM    1  C2  UNL     1      22.348   0.730  52.788  1.00  0.00     0.117 C 
HETATM    2  C3  UNL     1      21.074   0.690  53.174  1.00  0.00     0.051 C 
HETATM    3  C4  UNL     1      20.820   0.588  54.727  1.00  0.00     0.102 C 
HETATM    4  C5  UNL     1      20.797  -0.858  54.094  1.00  0.00    -0.007 C 
HETATM    5  C6  UNL     1      19.525  -0.870  53.557  1.00  0.00     0.105 C 
HETATM    6  N2  UNL     1      19.668   0.453  52.742  1.00  0.00    -0.343 N 
HETATM    7  C7  UNL     1      22.108  -1.526  54.088  1.00  0.00     0.043 C 
HETATM    8  C8  UNL     1      22.893  -0.602  53.372  1.00  0.00     0.064 C 
HETATM    9  H8  UNL     1      19.203   1.072  52.091  1.00  0.00     0.167 HD
ENDROOT
BRANCH   8  10
HETATM   10  N3  UNL     1      24.257  -0.862  53.141  1.00  0.00    -0.386 N 
HETATM   11  H10 UNL     1      24.809  -1.451  52.480  1.00  0.00     0.159 HD
BRANCH  10  12
HETATM   12  C9  UNL     1      25.022  -0.088  54.095  1.00  0.00     0.147 C 
BRANCH  12  13
HETATM   13  C10 UNL     1      25.883   0.970  53.463  1.00  0.00     0.133 C 
HETATM   14  N4  UNL     1      26.790   1.582  54.438  1.00  0.00    -0.328 N 
HETATM   15  C11 UNL     1      27.895   2.030  53.658  1.00  0.00     0.361 C 
HETATM   16  H14 UNL     1      26.699   1.691  55.469  1.00  0.00     0.165 HD
HETATM   17  O2  UNL     1      28.902   2.731  54.013  1.00  0.00    -0.238 OA
HETATM   18  O3  UNL     1      27.741   1.579  52.351  1.00  0.00    -0.297 OA
HETATM   19  C12 UNL     1      26.846   0.457  52.437  1.00  0.00     0.154 C 
HETATM   20  C13 UNL     1      27.683  -0.688  52.947  1.00  0.00     0.042 C 
ENDBRANCH  12  13
ENDBRANCH  10  12
ENDBRANCH   8  10
BRANCH   1  21
HETATM   21  O1  UNL     1      22.543   1.845  52.101  1.00  0.00    -0.352 OA
HETATM   22  C1  UNL     1      22.573   1.918  50.696  1.00  0.00     0.210 C 
ENDBRANCH   1  21
BRANCH   5  23
HETATM   23  N1  UNL     1      18.715  -1.963  53.831  1.00  0.00    -0.385 N 
HETATM   24  H6  UNL     1      18.697  -2.131  54.858  1.00  0.00     0.157 HD
HETATM   25  H7  UNL     1      18.193  -2.564  53.202  1.00  0.00     0.157 HD
ENDBRANCH   5  23
TORSDOF 5
ENDMDL
MODEL 5
REMARK VINA RESULT:      -6.8      3.443      4.792
REMARK  5 active torsions:
REMARK  status: ('A' for Active; 'I' for Inactive)
REMARK    1  A    between atoms: O1_2  and  C2_3 
REMARK    2  A    between atoms: C6_7  and  N1_8 
REMARK    3  A    between atoms: C8_11  and  N3_12 
REMARK    4  A    between atoms: N3_12  and  C9_13 
REMARK    5  A    between atoms: C9_13  and  C10_14 
ROOT
HETATM    1  C2  UNL     1      24.808   1.838  53.219  1.00  0.00     0.117 C 
HETATM    2  C3  UNL     1      26.130   1.985  53.159  1.00  0.00     0.051 C 
HETATM    3  C4  UNL     1      26.872   1.160  52.038  1.00  0.00     0.102 C 
HETATM    4  C5  UNL     1      26.905   0.354  53.395  1.00  0.00    -0.007 C 
HETATM    5  C6  UNL     1      27.930   1.010  54.045  1.00  0.00     0.105 C 
HETATM    6  N2  UNL     1      27.348   2.448  53.881  1.00  0.00    -0.343 N 
HETATM    7  C7  UNL     1      25.770  -0.568  53.568  1.00  0.00     0.043 C 
HETATM    8  C8  UNL     1      24.674   0.308  53.451  1.00  0.00     0.064 C 
HETATM    9  H8  UNL     1      27.488   3.424  54.110  1.00  0.00     0.167 HD
ENDROOT
BRANCH   8  10
HETATM   10  N3  UNL     1      23.361  -0.186  53.551  1.00  0.00    -0.386 N 
HETATM   11  H10 UNL     1      22.811  -0.726  54.256  1.00  0.00     0.159 HD
BRANCH  10  12
HETATM   12  C9  UNL     1      22.656   0.181  52.342  1.00  0.00     0.147 C 
BRANCH  12  13
HETATM   13  C10 UNL     1      21.258   0.675  52.582  1.00  0.00     0.133 C 
HETATM   14  N4  UNL     1      21.203   2.138  52.638  1.00  0.00    -0.328 N 
HETATM   15  C11 UNL     1      19.875   2.458  52.232  1.00  0.00     0.361 C 
HETATM   16  H14 UNL     1      21.933   2.832  52.905  1.00  0.00     0.165 HD
HETATM   17  O2  UNL     1      19.285   3.590  52.223  1.00  0.00    -0.238 OA
HETATM   18  O3  UNL     1      19.238   1.296  51.810  1.00  0.00    -0.297 OA
HETATM   19  C12 UNL     1      20.295   0.381  51.472  1.00  0.00     0.154 C 
HETATM   20  C13 UNL     1      20.804   0.832  50.127  1.00  0.00     0.042 C 
ENDBRANCH  12  13
ENDBRANCH  10  12
ENDBRANCH   8  10
BRANCH   1  21
HETATM   21  O1  UNL     1      24.246   3.028  53.068  1.00  0.00    -0.352 OA
HETATM   22  C1  UNL     1      24.214   3.744  51.858  1.00  0.00     0.210 C 
ENDBRANCH   1  21
BRANCH   5  23
HETATM   23  N1  UNL     1      28.936   0.242  54.615  1.00  0.00    -0.385 N 
HETATM   24  H6  UNL     1      28.843  -0.744  54.292  1.00  0.00     0.157 HD
HETATM   25  H7  UNL     1      29.677   0.505  55.255  1.00  0.00     0.157 HD
ENDBRANCH   5  23
TORSDOF 5
ENDMDL
MODEL 6
REMARK VINA RESULT:      -6.6      2.334      3.408
REMARK  5 active torsions:
REMARK  status: ('A' for Active; 'I' for Inactive)
REMARK    1  A    between atoms: O1_2  and  C2_3 
REMARK    2  A    between atoms: C6_7  and  N1_8 
REMARK    3  A    between atoms: C8_11  and  N3_12 
REMARK    4  A    between atoms: N3_12  and  C9_13 
REMARK    5  A    between atoms: C9_13  and  C10_14 
ROOT
HETATM    1  C2  UNL     1      25.265   0.594  53.009  1.00  0.00     0.117 C 
HETATM    2  C3  UNL     1      26.138  -0.221  53.599  1.00  0.00     0.051 C 
HETATM    3  C4  UNL     1      26.677   0.239  55.007  1.00  0.00     0.102 C 
HETATM    4  C5  UNL     1      27.685   0.698  53.883  1.00  0.00    -0.007 C 
HETATM    5  C6  UNL     1      28.353  -0.488  53.653  1.00  0.00     0.105 C 
HETATM    6  N2  UNL     1      27.081  -1.358  53.404  1.00  0.00    -0.343 N 
HETATM    7  C7  UNL     1      27.413   2.044  53.353  1.00  0.00     0.043 C 
HETATM    8  C8  UNL     1      26.084   1.909  52.907  1.00  0.00     0.064 C 
HETATM    9  H8  UNL     1      26.752  -2.281  53.152  1.00  0.00     0.167 HD
ENDROOT
BRANCH   8  10
HETATM   10  N3  UNL     1      25.421   3.003  52.322  1.00  0.00    -0.386 N 
HETATM   11  H10 UNL     1      25.589   3.640  51.513  1.00  0.00     0.159 HD
BRANCH  10  12
HETATM   12  C9  UNL     1      24.216   3.250  53.086  1.00  0.00     0.147 C 
BRANCH  12  13
HETATM   13  C10 UNL     1      23.543   4.550  52.751  1.00  0.00     0.133 C 
HETATM   14  N4  UNL     1      24.212   5.236  51.643  1.00  0.00    -0.328 N 
HETATM   15  C11 UNL     1      23.188   6.027  51.046  1.00  0.00     0.361 C 
HETATM   16  H14 UNL     1      25.202   5.194  51.322  1.00  0.00     0.165 HD
HETATM   17  O2  UNL     1      23.279   6.898  50.117  1.00  0.00    -0.238 OA
HETATM   18  O3  UNL     1      21.970   5.715  51.642  1.00  0.00    -0.297 OA
HETATM   19  C12 UNL     1      22.149   4.410  52.220  1.00  0.00     0.154 C 
HETATM   20  C13 UNL     1      22.062   3.444  51.066  1.00  0.00     0.042 C 
ENDBRANCH  12  13
ENDBRANCH  10  12
ENDBRANCH   8  10
BRANCH   1  21
HETATM   21  O1  UNL     1      24.148  -0.081  52.783  1.00  0.00    -0.352 OA
HETATM   22  C1  UNL     1      23.248  -0.487  53.786  1.00  0.00     0.210 C 
ENDBRANCH   1  21
BRANCH   5  23
HETATM   23  N1  UNL     1      29.741  -0.461  53.641  1.00  0.00    -0.385 N 
HETATM   24  H6  UNL     1      30.099  -1.333  53.198  1.00  0.00     0.157 HD
HETATM   25  H7  UNL     1      30.384   0.242  53.987  1.00  0.00     0.157 HD
ENDBRANCH   5  23
TORSDOF 5
ENDMDL
MODEL 7
REMARK VINA RESULT:      -6.5      2.873      6.160
REMARK  5 active torsions:
REMARK  status: ('A' for Active; 'I' for Inactive)
REMARK    1  A    between atoms: O1_2  and  C2_3 
REMARK    2  A    between atoms: C6_7  and  N1_8 
REMARK    3  A    between atoms: C8_11  and  N3_12 
REMARK    4  A    between atoms: N3_12  and  C9_13 
REMARK    5  A    between atoms: C9_13  and  C10_14 
ROOT
HETATM    1  C2  UNL     1      22.894   2.980  51.752  1.00  0.00     0.117 C 
HETATM    2  C3  UNL     1      22.617   4.263  51.527  1.00  0.00     0.051 C 
HETATM    3  C4  UNL     1      22.837   4.773  50.051  1.00  0.00     0.102 C 
HETATM    4  C5  UNL     1      24.125   5.079  50.912  1.00  0.00    -0.007 C 
HETATM    5  C6  UNL     1      23.706   6.209  51.586  1.00  0.00     0.105 C 
HETATM    6  N2  UNL     1      22.387   5.596  52.150  1.00  0.00    -0.343 N 
HETATM    7  C7  UNL     1      25.132   4.007  50.876  1.00  0.00     0.043 C 
HETATM    8  C8  UNL     1      24.388   2.904  51.336  1.00  0.00     0.064 C 
HETATM    9  H8  UNL     1      21.585   5.773  52.741  1.00  0.00     0.167 HD
ENDROOT
BRANCH   8  10
HETATM   10  N3  UNL     1      24.994   1.640  51.448  1.00  0.00    -0.386 N 
HETATM   11  H10 UNL     1      25.120   0.808  50.830  1.00  0.00     0.159 HD
BRANCH  10  12
HETATM   12  C9  UNL     1      25.563   1.537  52.775  1.00  0.00     0.147 C 
BRANCH  12  13
HETATM   13  C10 UNL     1      27.065   1.535  52.792  1.00  0.00     0.133 C 
HETATM   14  N4  UNL     1      27.597   2.489  53.768  1.00  0.00    -0.328 N 
HETATM   15  C11 UNL     1      28.868   1.954  54.127  1.00  0.00     0.361 C 
HETATM   16  H14 UNL     1      27.186   3.368  54.146  1.00  0.00     0.165 HD
HETATM   17  O2  UNL     1      29.782   2.467  54.857  1.00  0.00    -0.238 OA
HETATM   18  O3  UNL     1      29.016   0.701  53.541  1.00  0.00    -0.297 OA
HETATM   19  C12 UNL     1      27.679   0.251  53.260  1.00  0.00     0.154 C 
HETATM   20  C13 UNL     1      27.123  -0.209  54.583  1.00  0.00     0.042 C 
ENDBRANCH  12  13
ENDBRANCH  10  12
ENDBRANCH   8  10
BRANCH   1  21
HETATM   21  O1  UNL     1      21.803   2.391  52.219  1.00  0.00    -0.352 OA
HETATM   22  C1  UNL     1      21.793   1.157  52.896  1.00  0.00     0.210 C 
ENDBRANCH   1  21
BRANCH   5  23
HETATM   23  N1  UNL     1      24.548   7.313  51.590  1.00  0.00    -0.385 N 
HETATM   24  H6  UNL     1      24.051   8.128  51.176  1.00  0.00     0.157 HD
HETATM   25  H7  UNL     1      25.505   7.404  51.914  1.00  0.00     0.157 HD
ENDBRANCH   5  23
TORSDOF 5
ENDMDL
MODEL 8
REMARK VINA RESULT:      -6.4      2.354      7.073
REMARK  5 active torsions:
REMARK  status: ('A' for Active; 'I' for Inactive)
REMARK    1  A    between atoms: O1_2  and  C2_3 
REMARK    2  A    between atoms: C6_7  and  N1_8 
REMARK    3  A    between atoms: C8_11  and  N3_12 
REMARK    4  A    between atoms: N3_12  and  C9_13 
REMARK    5  A    between atoms: C9_13  and  C10_14 
ROOT
HETATM    1  C2  UNL     1      24.831   5.050  50.490  1.00  0.00     0.117 C 
HETATM    2  C3  UNL     1      25.019   6.316  50.122  1.00  0.00     0.051 C 
HETATM    3  C4  UNL     1      24.985   6.603  48.572  1.00  0.00     0.102 C 
HETATM    4  C5  UNL     1      26.479   6.391  49.036  1.00  0.00    -0.007 C 
HETATM    5  C6  UNL     1      26.742   7.629  49.587  1.00  0.00     0.105 C 
HETATM    6  N2  UNL     1      25.510   7.658  50.546  1.00  0.00    -0.343 N 
HETATM    7  C7  UNL     1      26.939   4.996  48.945  1.00  0.00     0.043 C 
HETATM    8  C8  UNL     1      25.992   4.334  49.750  1.00  0.00     0.064 C 
HETATM    9  H8  UNL     1      25.044   8.187  51.271  1.00  0.00     0.167 HD
ENDROOT
BRANCH   8  10
HETATM   10  N3  UNL     1      26.069   2.940  49.928  1.00  0.00    -0.386 N 
HETATM   11  H10 UNL     1      25.782   2.095  49.387  1.00  0.00     0.159 HD
BRANCH  10  12
HETATM   12  C9  UNL     1      26.715   2.692  51.199  1.00  0.00     0.147 C 
BRANCH  12  13
HETATM   13  C10 UNL     1      26.523   1.293  51.713  1.00  0.00     0.133 C 
HETATM   14  N4  UNL     1      27.265   1.066  52.955  1.00  0.00    -0.328 N 
HETATM   15  C11 UNL     1      26.533   0.040  53.621  1.00  0.00     0.361 C 
HETATM   16  H14 UNL     1      28.130   1.519  53.318  1.00  0.00     0.165 HD
HETATM   17  O2  UNL     1      26.826  -0.597  54.688  1.00  0.00    -0.238 OA
HETATM   18  O3  UNL     1      25.361  -0.211  52.916  1.00  0.00    -0.297 OA
HETATM   19  C12 UNL     1      25.122   0.973  52.136  1.00  0.00     0.154 C 
HETATM   20  C13 UNL     1      24.562   1.986  53.103  1.00  0.00     0.042 C 
ENDBRANCH  12  13
ENDBRANCH  10  12
ENDBRANCH   8  10
BRANCH   1  21
HETATM   21  O1  UNL     1      23.781   5.000  51.297  1.00  0.00    -0.352 OA
HETATM   22  C1  UNL     1      22.459   5.267  50.899  1.00  0.00     0.210 C 
ENDBRANCH   1  21
BRANCH   5  23
HETATM   23  N1  UNL     1      27.907   8.279  49.203  1.00  0.00    -0.385 N 
HETATM   24  H6  UNL     1      27.937   8.349  48.164  1.00  0.00     0.157 HD
HETATM   25  H7  UNL     1      28.664   8.650  49.766  1.00  0.00     0.157 HD
ENDBRANCH   5  23
TORSDOF 5
ENDMDL
MODEL 9
REMARK VINA RESULT:      -6.3      2.871      6.536
REMARK  5 active torsions:
REMARK  status: ('A' for Active; 'I' for Inactive)
REMARK    1  A    between atoms: O1_2  and  C2_3 
REMARK    2  A    between atoms: C6_7  and  N1_8 
REMARK    3  A    between atoms: C8_11  and  N3_12 
REMARK    4  A    between atoms: N3_12  and  C9_13 
REMARK    5  A    between atoms: C9_13  and  C10_14 
ROOT
HETATM    1  C2  UNL     1      24.014   2.657  50.883  1.00  0.00     0.117 C 
HETATM    2  C3  UNL     1      23.313   3.783  50.772  1.00  0.00     0.051 C 
HETATM    3  C4  UNL     1      23.429   4.543  49.395  1.00  0.00     0.102 C 
HETATM    4  C5  UNL     1      24.466   5.149  50.420  1.00  0.00    -0.007 C 
HETATM    5  C6  UNL     1      23.630   5.957  51.165  1.00  0.00     0.105 C 
HETATM    6  N2  UNL     1      22.583   4.852  51.510  1.00  0.00    -0.343 N 
HETATM    7  C7  UNL     1      25.790   4.508  50.378  1.00  0.00     0.043 C 
HETATM    8  C8  UNL     1      25.460   3.162  50.628  1.00  0.00     0.064 C 
HETATM    9  H8  UNL     1      21.734   4.655  52.024  1.00  0.00     0.167 HD
ENDROOT
BRANCH   8  10
HETATM   10  N3  UNL     1      26.469   2.182  50.666  1.00  0.00    -0.386 N 
HETATM   11  H10 UNL     1      26.879   1.497  49.993  1.00  0.00     0.159 HD
BRANCH  10  12
HETATM   12  C9  UNL     1      27.035   2.181  51.998  1.00  0.00     0.147 C 
BRANCH  12  13
HETATM   13  C10 UNL     1      26.700   0.952  52.796  1.00  0.00     0.133 C 
HETATM   14  N4  UNL     1      26.889  -0.270  52.011  1.00  0.00    -0.328 N 
HETATM   15  C11 UNL     1      27.164  -1.275  52.983  1.00  0.00     0.361 C 
HETATM   16  H14 UNL     1      26.843  -0.426  50.982  1.00  0.00     0.165 HD
HETATM   17  O2  UNL     1      27.289  -2.536  52.827  1.00  0.00    -0.238 OA
HETATM   18  O3  UNL     1      27.294  -0.675  54.231  1.00  0.00    -0.297 OA
HETATM   19  C12 UNL     1      27.606   0.703  53.963  1.00  0.00     0.154 C 
HETATM   20  C13 UNL     1      29.063   0.719  53.580  1.00  0.00     0.042 C 
ENDBRANCH  12  13
ENDBRANCH  10  12
ENDBRANCH   8  10
BRANCH   1  21
HETATM   21  O1  UNL     1      23.178   1.668  51.160  1.00  0.00    -0.352 OA
HETATM   22  C1  UNL     1      22.091   1.294  50.347  1.00  0.00     0.210 C 
ENDBRANCH   1  21
BRANCH   5  23
HETATM   23  N1  UNL     1      24.021   7.271  51.384  1.00  0.00    -0.385 N 
HETATM   24  H6  UNL     1      23.254   7.782  51.870  1.00  0.00     0.157 HD
HETATM   25  H7  UNL     1      24.883   7.746  51.140  1.00  0.00     0.157 HD
ENDBRANCH   5  23
TORSDOF 5
ENDMDL
