MODEL 1
REMARK VINA RESULT:      -6.9      0.000      0.000
REMARK  7 active torsions:
REMARK  status: ('A' for Active; 'I' for Inactive)
REMARK    1  A    between atoms: O1_2  and  C2_3 
REMARK    2  A    between atoms: C3_5  and  N1_6 
REMARK    3  A    between atoms: N1_6  and  C4_7 
REMARK    4  A    between atoms: C8_13  and  O2_14 
REMARK    5  A    between atoms: C10_16  and  O3_17 
REMARK    6  A    between atoms: C15_22  and  O4_23 
REMARK    7  A    between atoms: C17_25  and  O5_26 
ROOT
HETATM    1  C4  UNL     1      24.920   5.061  50.028  1.00  0.00     0.142 A 
HETATM    2  N2  UNL     1      23.927   5.499  50.820  1.00  0.00    -0.224 NA
HETATM    3  C5  UNL     1      23.816   6.774  51.216  1.00  0.00     0.236 A 
HETATM    4  N3  UNL     1      24.722   7.714  50.827  1.00  0.00    -0.241 NA
HETATM    5  C6  UNL     1      25.741   7.347  50.033  1.00  0.00     0.075 A 
HETATM    6  C7  UNL     1      26.645   8.315  49.653  1.00  0.00     0.072 A 
HETATM    7  C8  UNL     1      27.681   7.909  48.838  1.00  0.00     0.103 A 
HETATM    8  C10 UNL     1      27.820   6.603  48.416  1.00  0.00     0.102 A 
HETATM    9  C12 UNL     1      26.871   5.692  48.841  1.00  0.00     0.057 A 
HETATM   10  C13 UNL     1      25.826   6.026  49.644  1.00  0.00     0.042 A 
ENDROOT
BRANCH   1  11
HETATM   11  N1  UNL     1      24.989   3.710  49.643  1.00  0.00    -0.339 N 
HETATM   12  H4  UNL     1      24.863   3.314  48.709  1.00  0.00     0.167 HD
BRANCH  11  13
HETATM   13  C3  UNL     1      25.269   2.752  50.669  1.00  0.00     0.052 A 
HETATM   14  P1  UNL     1      24.024   1.737  51.377  1.00  0.00     0.038 P 
HETATM   15  C2  UNL     1      24.671   0.673  52.600  1.00  0.00     0.118 A 
HETATM   16  C17 UNL     1      26.025   0.768  52.838  1.00  0.00     0.136 A 
HETATM   17  C15 UNL     1      26.851   1.639  52.169  1.00  0.00     0.106 A 
HETATM   18  C14 UNL     1      26.525   2.529  51.199  1.00  0.00     0.070 A 
BRANCH  15  19
HETATM   19  O1  UNL     1      23.690  -0.126  53.157  1.00  0.00    -0.352 OA
HETATM   20  C1  UNL     1      22.380   0.208  53.460  1.00  0.00     0.210 C 
ENDBRANCH  15  19
BRANCH  16  21
HETATM   21  O5  UNL     1      26.469  -0.113  53.828  1.00  0.00    -0.351 OA
HETATM   22  C18 UNL     1      26.382   0.196  55.204  1.00  0.00     0.210 C 
ENDBRANCH  16  21
BRANCH  17  23
HETATM   23  O4  UNL     1      28.171   1.541  52.591  1.00  0.00    -0.353 OA
HETATM   24  C16 UNL     1      28.646   2.534  53.475  1.00  0.00     0.210 C 
ENDBRANCH  17  23
ENDBRANCH  11  13
ENDBRANCH   1  11
BRANCH   8  25
HETATM   25  O3  UNL     1      28.869   6.233  47.602  1.00  0.00    -0.353 OA
HETATM   26  C11 UNL     1      29.996   5.578  48.139  1.00  0.00     0.210 C 
ENDBRANCH   8  25
BRANCH   7  27
HETATM   27  O2  UNL     1      28.630   8.858  48.422  1.00  0.00    -0.353 OA
HETATM   28  C9  UNL     1      29.651   9.264  49.314  1.00  0.00     0.210 C 
ENDBRANCH   7  27
TORSDOF 7
ENDMDL
MODEL 2
REMARK VINA RESULT:      -6.9      2.408      7.726
REMARK  7 active torsions:
REMARK  status: ('A' for Active; 'I' for Inactive)
REMARK    1  A    between atoms: O1_2  and  C2_3 
REMARK    2  A    between atoms: C3_5  and  N1_6 
REMARK    3  A    between atoms: N1_6  and  C4_7 
REMARK    4  A    between atoms: C8_13  and  O2_14 
REMARK    5  A    between atoms: C10_16  and  O3_17 
REMARK    6  A    between atoms: C15_22  and  O4_23 
REMARK    7  A    between atoms: C17_25  and  O5_26 
ROOT
HETATM    1  C4  UNL     1      26.212   2.461  50.952  1.00  0.00     0.142 A 
HETATM    2  N2  UNL     1      27.358   2.533  51.648  1.00  0.00    -0.224 NA
HETATM    3  C5  UNL     1      27.475   2.102  52.912  1.00  0.00     0.236 A 
HETATM    4  N3  UNL     1      26.416   1.555  53.570  1.00  0.00    -0.241 NA
HETATM    5  C6  UNL     1      25.238   1.450  52.934  1.00  0.00     0.075 A 
HETATM    6  C7  UNL     1      24.180   0.893  53.620  1.00  0.00     0.072 A 
HETATM    7  C8  UNL     1      22.983   0.798  52.941  1.00  0.00     0.103 A 
HETATM    8  C10 UNL     1      22.835   1.234  51.641  1.00  0.00     0.102 A 
HETATM    9  C12 UNL     1      23.944   1.781  51.023  1.00  0.00     0.057 A 
HETATM   10  C13 UNL     1      25.152   1.904  51.634  1.00  0.00     0.042 A 
ENDROOT
BRANCH   1  11
HETATM   11  N1  UNL     1      26.146   2.929  49.627  1.00  0.00    -0.339 N 
HETATM   12  H4  UNL     1      25.940   2.395  48.780  1.00  0.00     0.167 HD
BRANCH  11  13
HETATM   13  C3  UNL     1      26.393   4.323  49.415  1.00  0.00     0.052 A 
HETATM   14  P1  UNL     1      25.333   5.575  50.037  1.00  0.00     0.038 P 
HETATM   15  C2  UNL     1      25.895   7.173  49.617  1.00  0.00     0.118 A 
HETATM   16  C17 UNL     1      27.057   7.236  48.877  1.00  0.00     0.136 A 
HETATM   17  C15 UNL     1      27.759   6.125  48.476  1.00  0.00     0.106 A 
HETATM   18  C14 UNL     1      27.473   4.820  48.711  1.00  0.00     0.070 A 
BRANCH  15  19
HETATM   19  O1  UNL     1      25.059   8.158  50.108  1.00  0.00    -0.352 OA
HETATM   20  C1  UNL     1      23.721   8.055  50.454  1.00  0.00     0.210 C 
ENDBRANCH  15  19
BRANCH  16  21
HETATM   21  O5  UNL     1      27.443   8.545  48.578  1.00  0.00    -0.351 OA
HETATM   22  C18 UNL     1      28.223   9.320  49.464  1.00  0.00     0.210 C 
ENDBRANCH  16  21
BRANCH  17  23
HETATM   23  O4  UNL     1      28.893   6.456  47.744  1.00  0.00    -0.353 OA
HETATM   24  C16 UNL     1      30.063   5.704  47.984  1.00  0.00     0.210 C 
ENDBRANCH  17  23
ENDBRANCH  11  13
ENDBRANCH   1  11
BRANCH   8  25
HETATM   25  O3  UNL     1      21.623   1.124  50.994  1.00  0.00    -0.353 OA
HETATM   26  C11 UNL     1      21.569   0.990  49.592  1.00  0.00     0.210 C 
ENDBRANCH   8  25
BRANCH   7  27
HETATM   27  O2  UNL     1      21.873   0.237  53.597  1.00  0.00    -0.353 OA
HETATM   28  C9  UNL     1      21.766  -1.169  53.712  1.00  0.00     0.210 C 
ENDBRANCH   7  27
TORSDOF 7
ENDMDL
MODEL 3
REMARK VINA RESULT:      -6.9      4.344      7.396
REMARK  7 active torsions:
REMARK  status: ('A' for Active; 'I' for Inactive)
REMARK    1  A    between atoms: O1_2  and  C2_3 
REMARK    2  A    between atoms: C3_5  and  N1_6 
REMARK    3  A    between atoms: N1_6  and  C4_7 
REMARK    4  A    between atoms: C8_13  and  O2_14 
REMARK    5  A    between atoms: C10_16  and  O3_17 
REMARK    6  A    between atoms: C15_22  and  O4_23 
REMARK    7  A    between atoms: C17_25  and  O5_26 
ROOT
HETATM    1  C4  UNL     1      24.448   2.665  52.159  1.00  0.00     0.142 A 
HETATM    2  N2  UNL     1      24.775   3.318  51.031  1.00  0.00    -0.224 NA
HETATM    3  C5  UNL     1      25.930   3.123  50.382  1.00  0.00     0.236 A 
HETATM    4  N3  UNL     1      26.854   2.233  50.839  1.00  0.00    -0.241 NA
HETATM    5  C6  UNL     1      26.594   1.543  51.962  1.00  0.00     0.075 A 
HETATM    6  C7  UNL     1      27.544   0.649  52.406  1.00  0.00     0.072 A 
HETATM    7  C8  UNL     1      27.249  -0.045  53.561  1.00  0.00     0.103 A 
HETATM    8  C10 UNL     1      26.067   0.137  54.250  1.00  0.00     0.102 A 
HETATM    9  C12 UNL     1      25.167   1.053  53.740  1.00  0.00     0.057 A 
HETATM   10  C13 UNL     1      25.395   1.769  52.606  1.00  0.00     0.042 A 
ENDROOT
BRANCH   1  11
HETATM   11  N1  UNL     1      23.221   2.909  52.801  1.00  0.00    -0.339 N 
HETATM   12  H4  UNL     1      23.027   3.567  53.559  1.00  0.00     0.167 HD
BRANCH  11  13
HETATM   13  C3  UNL     1      22.089   2.156  52.353  1.00  0.00     0.052 A 
HETATM   14  P1  UNL     1      21.240   2.525  50.862  1.00  0.00     0.038 P 
HETATM   15  C2  UNL     1      19.906   1.434  50.586  1.00  0.00     0.118 A 
HETATM   16  C17 UNL     1      19.704   0.462  51.543  1.00  0.00     0.136 A 
HETATM   17  C15 UNL     1      20.489   0.330  52.662  1.00  0.00     0.106 A 
HETATM   18  C14 UNL     1      21.556   1.079  53.035  1.00  0.00     0.070 A 
BRANCH  15  19
HETATM   19  O1  UNL     1      19.238   1.725  49.411  1.00  0.00    -0.352 OA
HETATM   20  C1  UNL     1      18.278   2.700  49.189  1.00  0.00     0.210 C 
ENDBRANCH  15  19
BRANCH  16  21
HETATM   21  O5  UNL     1      18.620  -0.371  51.254  1.00  0.00    -0.351 OA
HETATM   22  C18 UNL     1      17.299  -0.047  51.636  1.00  0.00     0.210 C 
ENDBRANCH  16  21
BRANCH  17  23
HETATM   23  O4  UNL     1      20.080  -0.726  53.469  1.00  0.00    -0.353 OA
HETATM   24  C16 UNL     1      21.039  -1.289  54.338  1.00  0.00     0.210 C 
ENDBRANCH  17  23
ENDBRANCH  11  13
ENDBRANCH   1  11
BRANCH   8  25
HETATM   25  O3  UNL     1      25.807  -0.573  55.402  1.00  0.00    -0.353 OA
HETATM   26  C11 UNL     1      24.583  -1.253  55.563  1.00  0.00     0.210 C 
ENDBRANCH   8  25
BRANCH   7  27
HETATM   27  O2  UNL     1      28.184  -0.969  54.056  1.00  0.00    -0.353 OA
HETATM   28  C9  UNL     1      29.529  -0.906  53.618  1.00  0.00     0.210 C 
ENDBRANCH   7  27
TORSDOF 7
ENDMDL
MODEL 4
REMARK VINA RESULT:      -6.7      2.773      7.363
REMARK  7 active torsions:
REMARK  status: ('A' for Active; 'I' for Inactive)
REMARK    1  A    between atoms: O1_2  and  C2_3 
REMARK    2  A    between atoms: C3_5  and  N1_6 
REMARK    3  A    between atoms: N1_6  and  C4_7 
REMARK    4  A    between atoms: C8_13  and  O2_14 
REMARK    5  A    between atoms: C10_16  and  O3_17 
REMARK    6  A    between atoms: C15_22  and  O4_23 
REMARK    7  A    between atoms: C17_25  and  O5_26 
ROOT
HETATM    1  C4  UNL     1      23.529   3.002  52.612  1.00  0.00     0.142 A 
HETATM    2  N2  UNL     1      22.366   2.525  52.139  1.00  0.00    -0.224 NA
HETATM    3  C5  UNL     1      22.094   1.216  52.054  1.00  0.00     0.236 A 
HETATM    4  N3  UNL     1      23.000   0.280  52.452  1.00  0.00    -0.241 NA
HETATM    5  C6  UNL     1      24.185   0.686  52.936  1.00  0.00     0.075 A 
HETATM    6  C7  UNL     1      25.087  -0.278  53.331  1.00  0.00     0.072 A 
HETATM    7  C8  UNL     1      26.294   0.169  53.825  1.00  0.00     0.103 A 
HETATM    8  C10 UNL     1      26.601   1.510  53.924  1.00  0.00     0.102 A 
HETATM    9  C12 UNL     1      25.643   2.415  53.505  1.00  0.00     0.057 A 
HETATM   10  C13 UNL     1      24.433   2.041  53.010  1.00  0.00     0.042 A 
ENDROOT
BRANCH   1  11
HETATM   11  N1  UNL     1      23.762   4.388  52.679  1.00  0.00    -0.339 N 
HETATM   12  H4  UNL     1      23.870   4.969  53.513  1.00  0.00     0.167 HD
BRANCH  11  13
HETATM   13  C3  UNL     1      23.866   5.094  51.438  1.00  0.00     0.052 A 
HETATM   14  P1  UNL     1      22.589   6.135  50.835  1.00  0.00     0.038 P 
HETATM   15  C2  UNL     1      23.006   6.855  49.301  1.00  0.00     0.118 A 
HETATM   16  C17 UNL     1      24.240   6.521  48.785  1.00  0.00     0.136 A 
HETATM   17  C15 UNL     1      25.118   5.673  49.416  1.00  0.00     0.106 A 
HETATM   18  C14 UNL     1      24.963   5.030  50.600  1.00  0.00     0.070 A 
BRANCH  15  19
HETATM   19  O1  UNL     1      22.000   7.675  48.827  1.00  0.00    -0.352 OA
HETATM   20  C1  UNL     1      20.632   7.556  49.022  1.00  0.00     0.210 C 
ENDBRANCH  15  19
BRANCH  16  21
HETATM   21  O5  UNL     1      24.503   7.133  47.557  1.00  0.00    -0.351 OA
HETATM   22  C18 UNL     1      25.059   8.428  47.465  1.00  0.00     0.210 C 
ENDBRANCH  16  21
BRANCH  17  23
HETATM   23  O4  UNL     1      26.292   5.499  48.692  1.00  0.00    -0.353 OA
HETATM   24  C16 UNL     1      27.098   4.387  49.020  1.00  0.00     0.210 C 
ENDBRANCH  17  23
ENDBRANCH  11  13
ENDBRANCH   1  11
BRANCH   8  25
HETATM   25  O3  UNL     1      27.819   1.920  54.421  1.00  0.00    -0.353 OA
HETATM   26  C11 UNL     1      28.770   2.529  53.577  1.00  0.00     0.210 C 
ENDBRANCH   8  25
BRANCH   7  27
HETATM   27  O2  UNL     1      27.249  -0.775  54.243  1.00  0.00    -0.353 OA
HETATM   28  C9  UNL     1      28.199  -1.266  53.316  1.00  0.00     0.210 C 
ENDBRANCH   7  27
TORSDOF 7
ENDMDL
MODEL 5
REMARK VINA RESULT:      -6.7      2.461      7.836
REMARK  7 active torsions:
REMARK  status: ('A' for Active; 'I' for Inactive)
REMARK    1  A    between atoms: O1_2  and  C2_3 
REMARK    2  A    between atoms: C3_5  and  N1_6 
REMARK    3  A    between atoms: N1_6  and  C4_7 
REMARK    4  A    between atoms: C8_13  and  O2_14 
REMARK    5  A    between atoms: C10_16  and  O3_17 
REMARK    6  A    between atoms: C15_22  and  O4_23 
REMARK    7  A    between atoms: C17_25  and  O5_26 
ROOT
HETATM    1  C4  UNL     1      26.932   1.947  51.880  1.00  0.00     0.142 A 
HETATM    2  N2  UNL     1      28.047   2.549  52.326  1.00  0.00    -0.224 NA
HETATM    3  C5  UNL     1      28.545   2.350  53.554  1.00  0.00     0.236 A 
HETATM    4  N3  UNL     1      27.934   1.508  54.434  1.00  0.00    -0.241 NA
HETATM    5  C6  UNL     1      26.814   0.871  54.055  1.00  0.00     0.075 A 
HETATM    6  C7  UNL     1      26.213   0.026  54.962  1.00  0.00     0.072 A 
HETATM    7  C8  UNL     1      25.065  -0.614  54.545  1.00  0.00     0.103 A 
HETATM    8  C10 UNL     1      24.530  -0.427  53.287  1.00  0.00     0.102 A 
HETATM    9  C12 UNL     1      25.193   0.438  52.436  1.00  0.00     0.057 A 
HETATM   10  C13 UNL     1      26.329   1.099  52.784  1.00  0.00     0.042 A 
ENDROOT
BRANCH   1  11
HETATM   11  N1  UNL     1      26.454   2.193  50.581  1.00  0.00    -0.339 N 
HETATM   12  H4  UNL     1      26.362   1.531  49.808  1.00  0.00     0.167 HD
BRANCH  11  13
HETATM   13  C3  UNL     1      26.037   3.530  50.280  1.00  0.00     0.052 A 
HETATM   14  P1  UNL     1      24.589   4.243  50.969  1.00  0.00     0.038 P 
HETATM   15  C2  UNL     1      24.345   5.881  50.416  1.00  0.00     0.118 A 
HETATM   16  C17 UNL     1      25.289   6.378  49.543  1.00  0.00     0.136 A 
HETATM   17  C15 UNL     1      26.374   5.654  49.112  1.00  0.00     0.106 A 
HETATM   18  C14 UNL     1      26.719   4.382  49.434  1.00  0.00     0.070 A 
BRANCH  15  19
HETATM   19  O1  UNL     1      23.205   6.442  50.959  1.00  0.00    -0.352 OA
HETATM   20  C1  UNL     1      22.000   5.823  51.253  1.00  0.00     0.210 C 
ENDBRANCH  15  19
BRANCH  16  21
HETATM   21  O5  UNL     1      25.027   7.691  49.145  1.00  0.00    -0.351 OA
HETATM   22  C18 UNL     1      25.500   8.806  49.871  1.00  0.00     0.210 C 
ENDBRANCH  16  21
BRANCH  17  23
HETATM   23  O4  UNL     1      27.176   6.378  48.238  1.00  0.00    -0.353 OA
HETATM   24  C16 UNL     1      28.544   6.038  48.177  1.00  0.00     0.210 C 
ENDBRANCH  17  23
ENDBRANCH  11  13
ENDBRANCH   1  11
BRANCH   8  25
HETATM   25  O3  UNL     1      23.380  -1.083  52.905  1.00  0.00    -0.353 OA
HETATM   26  C11 UNL     1      22.243  -0.357  52.497  1.00  0.00     0.210 C 
ENDBRANCH   8  25
BRANCH   7  27
HETATM   27  O2  UNL     1      24.414  -1.488  55.433  1.00  0.00    -0.353 OA
HETATM   28  C9  UNL     1      23.050  -1.276  55.750  1.00  0.00     0.210 C 
ENDBRANCH   7  27
TORSDOF 7
ENDMDL
MODEL 6
REMARK VINA RESULT:      -6.6      4.625      7.873
REMARK  7 active torsions:
REMARK  status: ('A' for Active; 'I' for Inactive)
REMARK    1  A    between atoms: O1_2  and  C2_3 
REMARK    2  A    between atoms: C3_5  and  N1_6 
REMARK    3  A    between atoms: N1_6  and  C4_7 
REMARK    4  A    between atoms: C8_13  and  O2_14 
REMARK    5  A    between atoms: C10_16  and  O3_17 
REMARK    6  A    between atoms: C15_22  and  O4_23 
REMARK    7  A    between atoms: C17_25  and  O5_26 
ROOT
HETATM    1  C4  UNL     1      22.883  -0.563  53.110  1.00  0.00     0.142 A 
HETATM    2  N2  UNL     1      22.167  -1.256  54.010  1.00  0.00    -0.224 NA
HETATM    3  C5  UNL     1      22.644  -1.602  55.214  1.00  0.00     0.236 A 
HETATM    4  N3  UNL     1      23.906  -1.260  55.597  1.00  0.00    -0.241 NA
HETATM    5  C6  UNL     1      24.678  -0.565  54.746  1.00  0.00     0.075 A 
HETATM    6  C7  UNL     1      25.952  -0.231  55.154  1.00  0.00     0.072 A 
HETATM    7  C8  UNL     1      26.721   0.483  54.260  1.00  0.00     0.103 A 
HETATM    8  C10 UNL     1      26.256   0.851  53.014  1.00  0.00     0.102 A 
HETATM    9  C12 UNL     1      24.968   0.477  52.680  1.00  0.00     0.057 A 
HETATM   10  C13 UNL     1      24.157  -0.226  53.515  1.00  0.00     0.042 A 
ENDROOT
BRANCH   1  11
HETATM   11  N1  UNL     1      22.332  -0.227  51.860  1.00  0.00    -0.339 N 
HETATM   12  H4  UNL     1      22.607  -0.571  50.938  1.00  0.00     0.167 HD
BRANCH  11  13
HETATM   13  C3  UNL     1      21.252   0.713  51.853  1.00  0.00     0.052 A 
HETATM   14  P1  UNL     1      19.576   0.220  51.689  1.00  0.00     0.038 P 
HETATM   15  C2  UNL     1      18.491   1.587  51.716  1.00  0.00     0.118 A 
HETATM   16  C17 UNL     1      19.075   2.828  51.858  1.00  0.00     0.136 A 
HETATM   17  C15 UNL     1      20.431   3.015  51.975  1.00  0.00     0.106 A 
HETATM   18  C14 UNL     1      21.412   2.079  51.974  1.00  0.00     0.070 A 
BRANCH  15  19
HETATM   19  O1  UNL     1      17.170   1.199  51.587  1.00  0.00    -0.352 OA
HETATM   20  C1  UNL     1      16.656  -0.087  51.525  1.00  0.00     0.210 C 
ENDBRANCH  15  19
BRANCH  16  21
HETATM   21  O5  UNL     1      18.146   3.871  51.870  1.00  0.00    -0.351 OA
HETATM   22  C18 UNL     1      17.552   4.364  50.687  1.00  0.00     0.210 C 
ENDBRANCH  16  21
BRANCH  17  23
HETATM   23  O4  UNL     1      20.766   4.357  52.106  1.00  0.00    -0.353 OA
HETATM   24  C16 UNL     1      21.458   4.962  51.035  1.00  0.00     0.210 C 
ENDBRANCH  17  23
ENDBRANCH  11  13
ENDBRANCH   1  11
BRANCH   8  25
HETATM   25  O3  UNL     1      27.054   1.564  52.146  1.00  0.00    -0.353 OA
HETATM   26  C11 UNL     1      26.480   2.358  51.132  1.00  0.00     0.210 C 
ENDBRANCH   8  25
BRANCH   7  27
HETATM   27  O2  UNL     1      28.028   0.848  54.628  1.00  0.00    -0.353 OA
HETATM   28  C9  UNL     1      29.087  -0.076  54.459  1.00  0.00     0.210 C 
ENDBRANCH   7  27
TORSDOF 7
ENDMDL
MODEL 7
REMARK VINA RESULT:      -6.6      2.465      8.064
REMARK  7 active torsions:
REMARK  status: ('A' for Active; 'I' for Inactive)
REMARK    1  A    between atoms: O1_2  and  C2_3 
REMARK    2  A    between atoms: C3_5  and  N1_6 
REMARK    3  A    between atoms: N1_6  and  C4_7 
REMARK    4  A    between atoms: C8_13  and  O2_14 
REMARK    5  A    between atoms: C10_16  and  O3_17 
REMARK    6  A    between atoms: C15_22  and  O4_23 
REMARK    7  A    between atoms: C17_25  and  O5_26 
ROOT
HETATM    1  C4  UNL     1      26.086   2.560  50.918  1.00  0.00     0.142 A 
HETATM    2  N2  UNL     1      27.273   2.631  51.542  1.00  0.00    -0.224 NA
HETATM    3  C5  UNL     1      27.493   2.114  52.758  1.00  0.00     0.236 A 
HETATM    4  N3  UNL     1      26.502   1.474  53.441  1.00  0.00    -0.241 NA
HETATM    5  C6  UNL     1      25.289   1.365  52.876  1.00  0.00     0.075 A 
HETATM    6  C7  UNL     1      24.303   0.714  53.586  1.00  0.00     0.072 A 
HETATM    7  C8  UNL     1      23.067   0.617  52.981  1.00  0.00     0.103 A 
HETATM    8  C10 UNL     1      22.813   1.141  51.730  1.00  0.00     0.102 A 
HETATM    9  C12 UNL     1      23.855   1.779  51.085  1.00  0.00     0.057 A 
HETATM   10  C13 UNL     1      25.097   1.909  51.624  1.00  0.00     0.042 A 
ENDROOT
BRANCH   1  11
HETATM   11  N1  UNL     1      25.911   3.122  49.640  1.00  0.00    -0.339 N 
HETATM   12  H4  UNL     1      25.590   2.658  48.788  1.00  0.00     0.167 HD
BRANCH  11  13
HETATM   13  C3  UNL     1      26.215   4.513  49.491  1.00  0.00     0.052 A 
HETATM   14  P1  UNL     1      27.632   5.082  48.627  1.00  0.00     0.038 P 
HETATM   15  C2  UNL     1      27.731   6.824  48.615  1.00  0.00     0.118 A 
HETATM   16  C17 UNL     1      26.717   7.498  49.263  1.00  0.00     0.136 A 
HETATM   17  C15 UNL     1      25.673   6.866  49.894  1.00  0.00     0.106 A 
HETATM   18  C14 UNL     1      25.437   5.534  50.001  1.00  0.00     0.070 A 
BRANCH  15  19
HETATM   19  O1  UNL     1      28.847   7.272  47.934  1.00  0.00    -0.352 OA
HETATM   20  C1  UNL     1      30.148   7.384  48.399  1.00  0.00     0.210 C 
ENDBRANCH  15  19
BRANCH  16  21
HETATM   21  O5  UNL     1      26.864   8.886  49.213  1.00  0.00    -0.351 OA
HETATM   22  C18 UNL     1      27.679   9.591  50.126  1.00  0.00     0.210 C 
ENDBRANCH  16  21
BRANCH  17  23
HETATM   23  O4  UNL     1      24.784   7.766  50.470  1.00  0.00    -0.353 OA
HETATM   24  C16 UNL     1      23.497   7.288  50.799  1.00  0.00     0.210 C 
ENDBRANCH  17  23
ENDBRANCH  11  13
ENDBRANCH   1  11
BRANCH   8  25
HETATM   25  O3  UNL     1      21.565   1.026  51.158  1.00  0.00    -0.353 OA
HETATM   26  C11 UNL     1      21.423   0.952  49.757  1.00  0.00     0.210 C 
ENDBRANCH   8  25
BRANCH   7  27
HETATM   27  O2  UNL     1      22.027  -0.038  53.663  1.00  0.00    -0.353 OA
HETATM   28  C9  UNL     1      22.333  -1.074  54.578  1.00  0.00     0.210 C 
ENDBRANCH   7  27
TORSDOF 7
ENDMDL
MODEL 8
REMARK VINA RESULT:      -6.5      2.803      7.909
REMARK  7 active torsions:
REMARK  status: ('A' for Active; 'I' for Inactive)
REMARK    1  A    between atoms: O1_2  and  C2_3 
REMARK    2  A    between atoms: C3_5  and  N1_6 
REMARK    3  A    between atoms: N1_6  and  C4_7 
REMARK    4  A    between atoms: C8_13  and  O2_14 
REMARK    5  A    between atoms: C10_16  and  O3_17 
REMARK    6  A    between atoms: C15_22  and  O4_23 
REMARK    7  A    between atoms: C17_25  and  O5_26 
ROOT
HETATM    1  C4  UNL     1      23.148   4.221  52.320  1.00  0.00     0.142 A 
HETATM    2  N2  UNL     1      21.921   4.060  51.799  1.00  0.00    -0.224 NA
HETATM    3  C5  UNL     1      21.339   2.862  51.653  1.00  0.00     0.236 A 
HETATM    4  N3  UNL     1      21.975   1.719  52.034  1.00  0.00    -0.241 NA
HETATM    5  C6  UNL     1      23.206   1.805  52.564  1.00  0.00     0.075 A 
HETATM    6  C7  UNL     1      23.829   0.635  52.941  1.00  0.00     0.072 A 
HETATM    7  C8  UNL     1      25.092   0.754  53.483  1.00  0.00     0.103 A 
HETATM    8  C10 UNL     1      25.715   1.974  53.645  1.00  0.00     0.102 A 
HETATM    9  C12 UNL     1      25.022   3.100  53.240  1.00  0.00     0.057 A 
HETATM   10  C13 UNL     1      23.775   3.053  52.700  1.00  0.00     0.042 A 
ENDROOT
BRANCH   1  11
HETATM   11  N1  UNL     1      23.712   5.503  52.450  1.00  0.00    -0.339 N 
HETATM   12  H4  UNL     1      24.003   5.979  53.307  1.00  0.00     0.167 HD
BRANCH  11  13
HETATM   13  C3  UNL     1      23.912   6.253  51.247  1.00  0.00     0.052 A 
HETATM   14  P1  UNL     1      25.245   5.938  50.150  1.00  0.00     0.038 P 
HETATM   15  C2  UNL     1      25.223   7.013  48.775  1.00  0.00     0.118 A 
HETATM   16  C17 UNL     1      24.198   7.935  48.736  1.00  0.00     0.136 A 
HETATM   17  C15 UNL     1      23.231   8.029  49.707  1.00  0.00     0.106 A 
HETATM   18  C14 UNL     1      23.092   7.284  50.832  1.00  0.00     0.070 A 
BRANCH  15  19
HETATM   19  O1  UNL     1      26.273   6.764  47.911  1.00  0.00    -0.352 OA
HETATM   20  C1  UNL     1      27.628   6.721  48.198  1.00  0.00     0.210 C 
ENDBRANCH  15  19
BRANCH  16  21
HETATM   21  O5  UNL     1      24.248   8.759  47.609  1.00  0.00    -0.351 OA
HETATM   22  C18 UNL     1      23.663   8.387  46.378  1.00  0.00     0.210 C 
ENDBRANCH  16  21
BRANCH  17  23
HETATM   23  O4  UNL     1      22.312   9.036  49.436  1.00  0.00    -0.353 OA
HETATM   24  C16 UNL     1      20.949   8.672  49.372  1.00  0.00     0.210 C 
ENDBRANCH  17  23
ENDBRANCH  11  13
ENDBRANCH   1  11
BRANCH   8  25
HETATM   25  O3  UNL     1      26.978   2.054  54.189  1.00  0.00    -0.353 OA
HETATM   26  C11 UNL     1      28.101   2.274  53.365  1.00  0.00     0.210 C 
ENDBRANCH   8  25
BRANCH   7  27
HETATM   27  O2  UNL     1      25.771  -0.409  53.885  1.00  0.00    -0.353 OA
HETATM   28  C9  UNL     1      26.426  -1.207  52.916  1.00  0.00     0.210 C 
ENDBRANCH   7  27
TORSDOF 7
ENDMDL
MODEL 9
REMARK VINA RESULT:      -6.4      4.307      7.411
REMARK  7 active torsions:
REMARK  status: ('A' for Active; 'I' for Inactive)
REMARK    1  A    between atoms: O1_2  and  C2_3 
REMARK    2  A    between atoms: C3_5  and  N1_6 
REMARK    3  A    between atoms: N1_6  and  C4_7 
REMARK    4  A    between atoms: C8_13  and  O2_14 
REMARK    5  A    between atoms: C10_16  and  O3_17 
REMARK    6  A    between atoms: C15_22  and  O4_23 
REMARK    7  A    between atoms: C17_25  and  O5_26 
ROOT
HETATM    1  C4  UNL     1      24.339   2.641  52.131  1.00  0.00     0.142 A 
HETATM    2  N2  UNL     1      24.715   3.390  51.081  1.00  0.00    -0.224 NA
HETATM    3  C5  UNL     1      25.894   3.243  50.462  1.00  0.00     0.236 A 
HETATM    4  N3  UNL     1      26.792   2.305  50.872  1.00  0.00    -0.241 NA
HETATM    5  C6  UNL     1      26.482   1.519  51.916  1.00  0.00     0.075 A 
HETATM    6  C7  UNL     1      27.407   0.578  52.313  1.00  0.00     0.072 A 
HETATM    7  C8  UNL     1      27.061  -0.215  53.388  1.00  0.00     0.103 A 
HETATM    8  C10 UNL     1      25.855  -0.084  54.044  1.00  0.00     0.102 A 
HETATM    9  C12 UNL     1      24.982   0.884  53.584  1.00  0.00     0.057 A 
HETATM   10  C13 UNL     1      25.260   1.698  52.531  1.00  0.00     0.042 A 
ENDROOT
BRANCH   1  11
HETATM   11  N1  UNL     1      23.088   2.840  52.744  1.00  0.00    -0.339 N 
HETATM   12  H4  UNL     1      22.872   3.415  53.560  1.00  0.00     0.167 HD
BRANCH  11  13
HETATM   13  C3  UNL     1      21.965   2.162  52.170  1.00  0.00     0.052 A 
HETATM   14  P1  UNL     1      20.978   1.034  53.081  1.00  0.00     0.038 P 
HETATM   15  C2  UNL     1      19.686   0.371  52.114  1.00  0.00     0.118 A 
HETATM   16  C17 UNL     1      19.616   0.807  50.807  1.00  0.00     0.136 A 
HETATM   17  C15 UNL     1      20.496   1.711  50.265  1.00  0.00     0.106 A 
HETATM   18  C14 UNL     1      21.548   2.324  50.863  1.00  0.00     0.070 A 
BRANCH  15  19
HETATM   19  O1  UNL     1      18.908  -0.518  52.832  1.00  0.00    -0.352 OA
HETATM   20  C1  UNL     1      19.325  -1.528  53.685  1.00  0.00     0.210 C 
ENDBRANCH  15  19
BRANCH  16  21
HETATM   21  O5  UNL     1      18.559   0.232  50.096  1.00  0.00    -0.351 OA
HETATM   22  C18 UNL     1      17.251   0.764  50.132  1.00  0.00     0.210 C 
ENDBRANCH  16  21
BRANCH  17  23
HETATM   23  O4  UNL     1      20.211   1.987  48.933  1.00  0.00    -0.353 OA
HETATM   24  C16 UNL     1      21.305   2.195  48.064  1.00  0.00     0.210 C 
ENDBRANCH  17  23
ENDBRANCH  11  13
ENDBRANCH   1  11
BRANCH   8  25
HETATM   25  O3  UNL     1      25.543  -0.893  55.115  1.00  0.00    -0.353 OA
HETATM   26  C11 UNL     1      24.207  -1.267  55.366  1.00  0.00     0.210 C 
ENDBRANCH   8  25
BRANCH   7  27
HETATM   27  O2  UNL     1      27.969  -1.191  53.832  1.00  0.00    -0.353 OA
HETATM   28  C9  UNL     1      29.357  -0.908  53.832  1.00  0.00     0.210 C 
ENDBRANCH   7  27
TORSDOF 7
ENDMDL
