MODEL 1
REMARK VINA RESULT:      -7.8      0.000      0.000
REMARK  6 active torsions:
REMARK  status: ('A' for Active; 'I' for Inactive)
REMARK    1  A    between atoms: C6_8  and  O1_9 
REMARK    2  A    between atoms: C8_11  and  C9_12 
REMARK    3  A    between atoms: C9_12  and  C10_13 
REMARK    4  A    between atoms: S1_19  and  N4_20 
REMARK    5  A    between atoms: C14_21  and  C15_22 
REMARK    6  A    between atoms: C16_23  and  C17_24 
ROOT
HETATM    1  C1  UNL     1      23.388   4.602  52.673  1.00  0.00     0.154 A 
HETATM    2  C2  UNL     1      23.079   4.057  51.510  1.00  0.00     0.197 A 
HETATM    3  N1  UNL     1      21.907   4.798  51.258  1.00  0.00    -0.240 NA
HETATM    4  C3  UNL     1      20.727   4.342  51.459  1.00  0.00     0.209 A 
HETATM    5  N2  UNL     1      21.649   3.323  51.820  1.00  0.00    -0.316 N 
HETATM    6  C4  UNL     1      21.213   2.185  52.290  1.00  0.00     0.081 A 
HETATM    7  C5  UNL     1      22.622   1.786  52.380  1.00  0.00     0.097 A 
HETATM    8  C6  UNL     1      23.400   0.761  52.740  1.00  0.00     0.069 A 
HETATM    9  C8  UNL     1      24.564   1.568  52.376  1.00  0.00     0.016 A 
HETATM   10  S1  UNL     1      24.562   3.100  51.795  1.00  0.00    -0.073 SA
ENDROOT
BRANCH   9  11
HETATM   11  C9  UNL     1      25.935   1.006  52.564  1.00  0.00     0.086 C 
BRANCH  11  12
HETATM   12  C10 UNL     1      26.662   1.684  53.698  1.00  0.00     0.248 C 
HETATM   13  C11 UNL     1      27.935   2.297  53.157  1.00  0.00     0.203 C 
HETATM   14  O2  UNL     1      28.844   2.524  54.169  1.00  0.00    -0.387 OA
HETATM   15  C12 UNL     1      29.334   1.351  54.728  1.00  0.00     0.197 C 
HETATM   16  C13 UNL     1      28.293   0.262  54.785  1.00  0.00     0.296 C 
HETATM   17  N3  UNL     1      26.952   0.761  54.779  1.00  0.00     0.092 N 
HETATM   18  H18 UNL     1      26.299  -0.037  54.762  1.00  0.00     0.316 HD
ENDBRANCH  11  12
ENDBRANCH   9  11
BRANCH   8  19
HETATM   19  O1  UNL     1      23.737  -0.528  53.222  1.00  0.00    -0.358 OA
HETATM   20  C7  UNL     1      23.074  -0.899  54.418  1.00  0.00     0.209 C 
ENDBRANCH   8  19
BRANCH  10  21
HETATM   21  N4  UNL     1      25.832   3.383  50.546  1.00  0.00    -0.241 NA
HETATM   22  C14 UNL     1      25.734   4.504  49.948  1.00  0.00     0.124 C 
BRANCH  22  23
HETATM   23  C15 UNL     1      26.823   4.576  48.981  1.00  0.00     0.018 C 
HETATM   24  C16 UNL     1      27.630   5.598  48.755  1.00  0.00     0.005 C 
BRANCH  24  25
HETATM   25  C17 UNL     1      28.775   6.017  47.913  1.00  0.00     0.249 C 
HETATM   26  F1  UNL     1      29.720   4.993  47.850  1.00  0.00    -0.251 F 
ENDBRANCH  24  25
ENDBRANCH  22  23
ENDBRANCH  10  21
TORSDOF 6
ENDMDL
MODEL 2
REMARK VINA RESULT:      -7.6      1.504      1.748
REMARK  6 active torsions:
REMARK  status: ('A' for Active; 'I' for Inactive)
REMARK    1  A    between atoms: C6_8  and  O1_9 
REMARK    2  A    between atoms: C8_11  and  C9_12 
REMARK    3  A    between atoms: C9_12  and  C10_13 
REMARK    4  A    between atoms: S1_19  and  N4_20 
REMARK    5  A    between atoms: C14_21  and  C15_22 
REMARK    6  A    between atoms: C16_23  and  C17_24 
ROOT
HETATM    1  C1  UNL     1      21.960   3.432  51.500  1.00  0.00     0.154 A 
HETATM    2  C2  UNL     1      22.500   2.592  50.636  1.00  0.00     0.197 A 
HETATM    3  N1  UNL     1      21.458   2.600  49.687  1.00  0.00    -0.240 NA
HETATM    4  C3  UNL     1      20.577   1.673  49.599  1.00  0.00     0.209 A 
HETATM    5  N2  UNL     1      21.459   1.328  50.658  1.00  0.00    -0.316 N 
HETATM    6  C4  UNL     1      21.254   0.239  51.349  1.00  0.00     0.081 A 
HETATM    7  C5  UNL     1      22.451   0.607  52.113  1.00  0.00     0.097 A 
HETATM    8  C6  UNL     1      23.222   0.186  53.120  1.00  0.00     0.069 A 
HETATM    9  C8  UNL     1      24.057   1.371  52.924  1.00  0.00     0.016 A 
HETATM   10  S1  UNL     1      23.842   2.559  51.817  1.00  0.00    -0.073 SA
ENDROOT
BRANCH   9  11
HETATM   11  C9  UNL     1      25.228   1.601  53.821  1.00  0.00     0.086 C 
BRANCH  11  12
HETATM   12  C10 UNL     1      26.390   0.711  53.458  1.00  0.00     0.248 C 
HETATM   13  C11 UNL     1      26.965   0.125  54.729  1.00  0.00     0.203 C 
HETATM   14  O2  UNL     1      28.258  -0.311  54.532  1.00  0.00    -0.387 OA
HETATM   15  C12 UNL     1      29.149   0.729  54.295  1.00  0.00     0.197 C 
HETATM   16  C13 UNL     1      28.527   1.849  53.500  1.00  0.00     0.296 C 
HETATM   17  N3  UNL     1      27.407   1.431  52.715  1.00  0.00     0.092 N 
HETATM   18  H18 UNL     1      27.001   2.255  52.247  1.00  0.00     0.316 HD
ENDBRANCH  11  12
ENDBRANCH   9  11
BRANCH   8  19
HETATM   19  O1  UNL     1      23.671  -0.651  54.171  1.00  0.00    -0.358 OA
HETATM   20  C7  UNL     1      22.634  -1.202  54.965  1.00  0.00     0.209 C 
ENDBRANCH   8  19
BRANCH  10  21
HETATM   21  N4  UNL     1      25.392   3.178  51.135  1.00  0.00    -0.241 NA
HETATM   22  C14 UNL     1      25.431   3.198  49.862  1.00  0.00     0.124 C 
BRANCH  22  23
HETATM   23  C15 UNL     1      26.737   3.719  49.476  1.00  0.00     0.018 C 
HETATM   24  C16 UNL     1      26.999   4.870  48.880  1.00  0.00     0.005 C 
BRANCH  24  25
HETATM   25  C17 UNL     1      28.121   5.688  48.365  1.00  0.00     0.249 C 
HETATM   26  F1  UNL     1      29.181   4.863  47.991  1.00  0.00    -0.251 F 
ENDBRANCH  24  25
ENDBRANCH  22  23
ENDBRANCH  10  21
TORSDOF 6
ENDMDL
MODEL 3
REMARK VINA RESULT:      -7.4      2.003      5.412
REMARK  6 active torsions:
REMARK  status: ('A' for Active; 'I' for Inactive)
REMARK    1  A    between atoms: C6_8  and  O1_9 
REMARK    2  A    between atoms: C8_11  and  C9_12 
REMARK    3  A    between atoms: C9_12  and  C10_13 
REMARK    4  A    between atoms: S1_19  and  N4_20 
REMARK    5  A    between atoms: C14_21  and  C15_22 
REMARK    6  A    between atoms: C16_23  and  C17_24 
ROOT
HETATM    1  C1  UNL     1      26.804  -0.085  51.891  1.00  0.00     0.154 A 
HETATM    2  C2  UNL     1      26.746   0.859  52.813  1.00  0.00     0.197 A 
HETATM    3  N1  UNL     1      27.944   0.545  53.484  1.00  0.00    -0.240 NA
HETATM    4  C3  UNL     1      27.986  -0.120  54.579  1.00  0.00     0.209 A 
HETATM    5  N2  UNL     1      26.621   0.004  54.204  1.00  0.00    -0.316 N 
HETATM    6  C4  UNL     1      25.690  -0.548  54.935  1.00  0.00     0.081 A 
HETATM    7  C5  UNL     1      24.733  -0.003  53.966  1.00  0.00     0.097 A 
HETATM    8  C6  UNL     1      23.423   0.060  53.709  1.00  0.00     0.069 A 
HETATM    9  C8  UNL     1      23.735   0.846  52.516  1.00  0.00     0.016 A 
HETATM   10  S1  UNL     1      25.220   1.289  51.985  1.00  0.00    -0.073 SA
ENDROOT
BRANCH   9  11
HETATM   11  C9  UNL     1      22.627   1.294  51.621  1.00  0.00     0.086 C 
BRANCH  11  12
HETATM   12  C10 UNL     1      21.987   2.564  52.123  1.00  0.00     0.248 C 
HETATM   13  C11 UNL     1      20.500   2.328  52.276  1.00  0.00     0.203 C 
HETATM   14  O2  UNL     1      19.807   3.519  52.285  1.00  0.00    -0.387 OA
HETATM   15  C12 UNL     1      19.844   4.176  51.061  1.00  0.00     0.197 C 
HETATM   16  C13 UNL     1      21.162   3.994  50.351  1.00  0.00     0.296 C 
HETATM   17  N3  UNL     1      22.243   3.683  51.235  1.00  0.00     0.092 N 
HETATM   18  H18 UNL     1      23.094   3.518  50.677  1.00  0.00     0.316 HD
ENDBRANCH  11  12
ENDBRANCH   9  11
BRANCH   8  19
HETATM   19  O1  UNL     1      22.036  -0.163  53.889  1.00  0.00    -0.358 OA
HETATM   20  C7  UNL     1      21.716  -1.384  54.532  1.00  0.00     0.209 C 
ENDBRANCH   8  19
BRANCH  10  21
HETATM   21  N4  UNL     1      25.251   2.946  51.272  1.00  0.00    -0.241 NA
HETATM   22  C14 UNL     1      25.869   3.024  50.161  1.00  0.00     0.124 C 
BRANCH  22  23
HETATM   23  C15 UNL     1      25.802   4.413  49.725  1.00  0.00     0.018 C 
HETATM   24  C16 UNL     1      26.684   5.068  48.989  1.00  0.00     0.005 C 
BRANCH  24  25
HETATM   25  C17 UNL     1      26.944   6.396  48.385  1.00  0.00     0.249 C 
HETATM   26  F1  UNL     1      28.172   6.387  47.724  1.00  0.00    -0.251 F 
ENDBRANCH  24  25
ENDBRANCH  22  23
ENDBRANCH  10  21
TORSDOF 6
ENDMDL
MODEL 4
REMARK VINA RESULT:      -7.1      2.779      5.821
REMARK  6 active torsions:
REMARK  status: ('A' for Active; 'I' for Inactive)
REMARK    1  A    between atoms: C6_8  and  O1_9 
REMARK    2  A    between atoms: C8_11  and  C9_12 
REMARK    3  A    between atoms: C9_12  and  C10_13 
REMARK    4  A    between atoms: S1_19  and  N4_20 
REMARK    5  A    between atoms: C14_21  and  C15_22 
REMARK    6  A    between atoms: C16_23  and  C17_24 
ROOT
HETATM    1  C1  UNL     1      26.683   0.382  51.806  1.00  0.00     0.154 A 
HETATM    2  C2  UNL     1      26.496   1.180  52.842  1.00  0.00     0.197 A 
HETATM    3  N1  UNL     1      27.704   0.907  53.513  1.00  0.00    -0.240 NA
HETATM    4  C3  UNL     1      27.792   0.107  54.511  1.00  0.00     0.209 A 
HETATM    5  N2  UNL     1      26.433   0.134  54.100  1.00  0.00    -0.316 N 
HETATM    6  C4  UNL     1      25.551  -0.611  54.713  1.00  0.00     0.081 A 
HETATM    7  C5  UNL     1      24.564  -0.045  53.787  1.00  0.00     0.097 A 
HETATM    8  C6  UNL     1      23.262  -0.089  53.488  1.00  0.00     0.069 A 
HETATM    9  C8  UNL     1      23.514   0.882  52.424  1.00  0.00     0.016 A 
HETATM   10  S1  UNL     1      24.953   1.552  52.018  1.00  0.00    -0.073 SA
ENDROOT
BRANCH   9  11
HETATM   11  C9  UNL     1      22.386   1.326  51.553  1.00  0.00     0.086 C 
BRANCH  11  12
HETATM   12  C10 UNL     1      21.584   2.427  52.201  1.00  0.00     0.248 C 
HETATM   13  C11 UNL     1      20.119   2.050  52.150  1.00  0.00     0.203 C 
HETATM   14  O2  UNL     1      19.316   3.162  52.297  1.00  0.00    -0.387 OA
HETATM   15  C12 UNL     1      19.401   4.035  51.219  1.00  0.00     0.197 C 
HETATM   16  C13 UNL     1      20.788   4.092  50.633  1.00  0.00     0.296 C 
HETATM   17  N3  UNL     1      21.810   3.707  51.558  1.00  0.00     0.092 N 
HETATM   18  H18 UNL     1      22.719   3.716  51.073  1.00  0.00     0.316 HD
ENDBRANCH  11  12
ENDBRANCH   9  11
BRANCH   8  19
HETATM   19  O1  UNL     1      21.905  -0.483  53.581  1.00  0.00    -0.358 OA
HETATM   20  C7  UNL     1      21.666  -1.561  54.469  1.00  0.00     0.209 C 
ENDBRANCH   8  19
BRANCH  10  21
HETATM   21  N4  UNL     1      24.815   3.284  51.534  1.00  0.00    -0.241 NA
HETATM   22  C14 UNL     1      25.320   3.549  50.395  1.00  0.00     0.124 C 
BRANCH  22  23
HETATM   23  C15 UNL     1      25.128   4.974  50.157  1.00  0.00     0.018 C 
HETATM   24  C16 UNL     1      24.395   5.816  50.866  1.00  0.00     0.005 C 
BRANCH  24  25
HETATM   25  C17 UNL     1      23.984   7.238  50.929  1.00  0.00     0.249 C 
HETATM   26  F1  UNL     1      22.597   7.328  51.040  1.00  0.00    -0.251 F 
ENDBRANCH  24  25
ENDBRANCH  22  23
ENDBRANCH  10  21
TORSDOF 6
ENDMDL
MODEL 5
REMARK VINA RESULT:      -6.7      3.911      7.767
REMARK  6 active torsions:
REMARK  status: ('A' for Active; 'I' for Inactive)
REMARK    1  A    between atoms: C6_8  and  O1_9 
REMARK    2  A    between atoms: C8_11  and  C9_12 
REMARK    3  A    between atoms: C9_12  and  C10_13 
REMARK    4  A    between atoms: S1_19  and  N4_20 
REMARK    5  A    between atoms: C14_21  and  C15_22 
REMARK    6  A    between atoms: C16_23  and  C17_24 
ROOT
HETATM    1  C1  UNL     1      25.937   0.308  54.608  1.00  0.00     0.154 A 
HETATM    2  C2  UNL     1      25.497  -0.365  53.560  1.00  0.00     0.197 A 
HETATM    3  N1  UNL     1      26.453  -1.399  53.583  1.00  0.00    -0.240 NA
HETATM    4  C3  UNL     1      27.476  -1.432  52.812  1.00  0.00     0.209 A 
HETATM    5  N2  UNL     1      26.744  -0.254  52.505  1.00  0.00    -0.316 N 
HETATM    6  C4  UNL     1      27.186   0.570  51.592  1.00  0.00     0.081 A 
HETATM    7  C5  UNL     1      25.998   1.381  51.879  1.00  0.00     0.097 A 
HETATM    8  C6  UNL     1      25.384   2.509  51.508  1.00  0.00     0.069 A 
HETATM    9  C8  UNL     1      24.341   2.219  52.492  1.00  0.00     0.016 A 
HETATM   10  S1  UNL     1      24.266   0.930  53.501  1.00  0.00    -0.073 SA
ENDROOT
BRANCH   9  11
HETATM   11  C9  UNL     1      23.213   3.179  52.670  1.00  0.00     0.086 C 
BRANCH  11  12
HETATM   12  C10 UNL     1      22.233   3.104  51.526  1.00  0.00     0.248 C 
HETATM   13  C11 UNL     1      21.606   4.468  51.337  1.00  0.00     0.203 C 
HETATM   14  O2  UNL     1      20.415   4.375  50.648  1.00  0.00    -0.387 OA
HETATM   15  C12 UNL     1      19.421   3.727  51.372  1.00  0.00     0.197 C 
HETATM   16  C13 UNL     1      19.967   2.613  52.228  1.00  0.00     0.296 C 
HETATM   17  N3  UNL     1      21.215   2.096  51.756  1.00  0.00     0.092 N 
HETATM   18  H18 UNL     1      21.552   1.382  52.419  1.00  0.00     0.316 HD
ENDBRANCH  11  12
ENDBRANCH   9  11
BRANCH   8  19
HETATM   19  O1  UNL     1      25.165   3.712  50.793  1.00  0.00    -0.358 OA
HETATM   20  C7  UNL     1      26.191   4.044  49.874  1.00  0.00     0.209 C 
ENDBRANCH   8  19
BRANCH  10  21
HETATM   21  N4  UNL     1      22.587   0.315  53.737  1.00  0.00    -0.241 NA
HETATM   22  C14 UNL     1      22.526  -0.851  54.247  1.00  0.00     0.124 C 
BRANCH  22  23
HETATM   23  C15 UNL     1      21.115  -1.196  54.371  1.00  0.00     0.018 C 
HETATM   24  C16 UNL     1      20.132  -0.866  53.551  1.00  0.00     0.005 C 
BRANCH  24  25
HETATM   25  C17 UNL     1      18.672  -1.022  53.358  1.00  0.00     0.249 C 
HETATM   26  F1  UNL     1      18.273  -2.301  53.745  1.00  0.00    -0.251 F 
ENDBRANCH  24  25
ENDBRANCH  22  23
ENDBRANCH  10  21
TORSDOF 6
ENDMDL
MODEL 6
REMARK VINA RESULT:      -6.7      3.210      5.115
REMARK  6 active torsions:
REMARK  status: ('A' for Active; 'I' for Inactive)
REMARK    1  A    between atoms: C6_8  and  O1_9 
REMARK    2  A    between atoms: C8_11  and  C9_12 
REMARK    3  A    between atoms: C9_12  and  C10_13 
REMARK    4  A    between atoms: S1_19  and  N4_20 
REMARK    5  A    between atoms: C14_21  and  C15_22 
REMARK    6  A    between atoms: C16_23  and  C17_24 
ROOT
HETATM    1  C1  UNL     1      23.179   4.875  52.804  1.00  0.00     0.154 A 
HETATM    2  C2  UNL     1      24.064   4.724  51.835  1.00  0.00     0.197 A 
HETATM    3  N1  UNL     1      24.111   6.066  51.408  1.00  0.00    -0.240 NA
HETATM    4  C3  UNL     1      23.486   6.502  50.378  1.00  0.00     0.209 A 
HETATM    5  N2  UNL     1      23.207   5.113  50.495  1.00  0.00    -0.316 N 
HETATM    6  C4  UNL     1      22.406   4.535  49.641  1.00  0.00     0.081 A 
HETATM    7  C5  UNL     1      22.649   3.297  50.390  1.00  0.00     0.097 A 
HETATM    8  C6  UNL     1      22.327   2.000  50.404  1.00  0.00     0.069 A 
HETATM    9  C8  UNL     1      23.173   1.843  51.587  1.00  0.00     0.016 A 
HETATM   10  S1  UNL     1      24.031   3.012  52.350  1.00  0.00    -0.073 SA
ENDROOT
BRANCH   9  11
HETATM   11  C9  UNL     1      23.279   0.506  52.241  1.00  0.00     0.086 C 
BRANCH  11  12
HETATM   12  C10 UNL     1      22.446   0.433  53.496  1.00  0.00     0.248 C 
HETATM   13  C11 UNL     1      22.662  -0.919  54.141  1.00  0.00     0.203 C 
HETATM   14  O2  UNL     1      21.629  -1.228  55.001  1.00  0.00    -0.387 OA
HETATM   15  C12 UNL     1      20.423  -1.439  54.344  1.00  0.00     0.197 C 
HETATM   16  C13 UNL     1      20.256  -0.540  53.145  1.00  0.00     0.296 C 
HETATM   17  N3  UNL     1      21.039   0.655  53.221  1.00  0.00     0.092 N 
HETATM   18  H18 UNL     1      20.918   1.189  52.348  1.00  0.00     0.316 HD
ENDBRANCH  11  12
ENDBRANCH   9  11
BRANCH   8  19
HETATM   19  O1  UNL     1      21.709   0.795  49.991  1.00  0.00    -0.358 OA
HETATM   20  C7  UNL     1      20.345   0.929  49.626  1.00  0.00     0.209 C 
ENDBRANCH   8  19
BRANCH  10  21
HETATM   21  N4  UNL     1      25.625   2.432  52.961  1.00  0.00    -0.241 NA
HETATM   22  C14 UNL     1      26.489   2.221  52.048  1.00  0.00     0.124 C 
BRANCH  22  23
HETATM   23  C15 UNL     1      27.708   1.762  52.701  1.00  0.00     0.018 C 
HETATM   24  C16 UNL     1      27.897   0.619  53.339  1.00  0.00     0.005 C 
BRANCH  24  25
HETATM   25  C17 UNL     1      28.925  -0.147  54.080  1.00  0.00     0.249 C 
HETATM   26  F1  UNL     1      30.173   0.028  53.483  1.00  0.00    -0.251 F 
ENDBRANCH  24  25
ENDBRANCH  22  23
ENDBRANCH  10  21
TORSDOF 6
ENDMDL
MODEL 7
REMARK VINA RESULT:      -6.6      3.194      5.688
REMARK  6 active torsions:
REMARK  status: ('A' for Active; 'I' for Inactive)
REMARK    1  A    between atoms: C6_8  and  O1_9 
REMARK    2  A    between atoms: C8_11  and  C9_12 
REMARK    3  A    between atoms: C9_12  and  C10_13 
REMARK    4  A    between atoms: S1_19  and  N4_20 
REMARK    5  A    between atoms: C14_21  and  C15_22 
REMARK    6  A    between atoms: C16_23  and  C17_24 
ROOT
HETATM    1  C1  UNL     1      21.755   1.022  49.876  1.00  0.00     0.154 A 
HETATM    2  C2  UNL     1      21.597   0.996  51.187  1.00  0.00     0.197 A 
HETATM    3  N1  UNL     1      20.402   0.249  51.220  1.00  0.00    -0.240 NA
HETATM    4  C3  UNL     1      19.245   0.776  51.381  1.00  0.00     0.209 A 
HETATM    5  N2  UNL     1      20.202   1.826  51.403  1.00  0.00    -0.316 N 
HETATM    6  C4  UNL     1      19.809   3.064  51.538  1.00  0.00     0.081 A 
HETATM    7  C5  UNL     1      21.229   3.427  51.470  1.00  0.00     0.097 A 
HETATM    8  C6  UNL     1      22.043   4.486  51.512  1.00  0.00     0.069 A 
HETATM    9  C8  UNL     1      23.174   3.573  51.344  1.00  0.00     0.016 A 
HETATM   10  S1  UNL     1      23.113   1.944  51.184  1.00  0.00    -0.073 SA
ENDROOT
BRANCH   9  11
HETATM   11  C9  UNL     1      24.558   4.126  51.265  1.00  0.00     0.086 C 
BRANCH  11  12
HETATM   12  C10 UNL     1      25.037   4.223  49.838  1.00  0.00     0.248 C 
HETATM   13  C11 UNL     1      26.507   3.865  49.797  1.00  0.00     0.203 C 
HETATM   14  O2  UNL     1      27.104   4.356  48.656  1.00  0.00    -0.387 OA
HETATM   15  C12 UNL     1      27.172   5.744  48.636  1.00  0.00     0.197 C 
HETATM   16  C13 UNL     1      25.969   6.387  49.278  1.00  0.00     0.296 C 
HETATM   17  N3  UNL     1      24.812   5.545  49.284  1.00  0.00     0.092 N 
HETATM   18  H18 UNL     1      24.052   6.026  49.787  1.00  0.00     0.316 HD
ENDBRANCH  11  12
ENDBRANCH   9  11
BRANCH   8  19
HETATM   19  O1  UNL     1      22.427   5.845  51.614  1.00  0.00    -0.358 OA
HETATM   20  C7  UNL     1      21.622   6.740  50.866  1.00  0.00     0.209 C 
ENDBRANCH   8  19
BRANCH  10  21
HETATM   21  N4  UNL     1      24.470   1.101  52.021  1.00  0.00    -0.241 NA
HETATM   22  C14 UNL     1      24.096   0.254  52.898  1.00  0.00     0.124 C 
BRANCH  22  23
HETATM   23  C15 UNL     1      25.300  -0.332  53.475  1.00  0.00     0.018 C 
HETATM   24  C16 UNL     1      26.444  -0.584  52.862  1.00  0.00     0.005 C 
BRANCH  24  25
HETATM   25  C17 UNL     1      27.798  -1.135  53.101  1.00  0.00     0.249 C 
HETATM   26  F1  UNL     1      28.341  -0.583  54.261  1.00  0.00    -0.251 F 
ENDBRANCH  24  25
ENDBRANCH  22  23
ENDBRANCH  10  21
TORSDOF 6
ENDMDL
MODEL 8
REMARK VINA RESULT:      -6.6      2.129      2.995
REMARK  6 active torsions:
REMARK  status: ('A' for Active; 'I' for Inactive)
REMARK    1  A    between atoms: C6_8  and  O1_9 
REMARK    2  A    between atoms: C8_11  and  C9_12 
REMARK    3  A    between atoms: C9_12  and  C10_13 
REMARK    4  A    between atoms: S1_19  and  N4_20 
REMARK    5  A    between atoms: C14_21  and  C15_22 
REMARK    6  A    between atoms: C16_23  and  C17_24 
ROOT
HETATM    1  C1  UNL     1      19.842   3.360  51.808  1.00  0.00     0.154 A 
HETATM    2  C2  UNL     1      20.199   2.664  50.743  1.00  0.00     0.197 A 
HETATM    3  N1  UNL     1      18.973   2.730  50.053  1.00  0.00    -0.240 NA
HETATM    4  C3  UNL     1      18.120   1.773  50.036  1.00  0.00     0.209 A 
HETATM    5  N2  UNL     1      19.224   1.351  50.823  1.00  0.00    -0.316 N 
HETATM    6  C4  UNL     1      19.208   0.175  51.391  1.00  0.00     0.081 A 
HETATM    7  C5  UNL     1      20.535   0.512  51.919  1.00  0.00     0.097 A 
HETATM    8  C6  UNL     1      21.522   0.014  52.670  1.00  0.00     0.069 A 
HETATM    9  C8  UNL     1      22.260   1.259  52.456  1.00  0.00     0.016 A 
HETATM   10  S1  UNL     1      21.771   2.561  51.589  1.00  0.00    -0.073 SA
ENDROOT
BRANCH   9  11
HETATM   11  C9  UNL     1      23.594   1.442  53.100  1.00  0.00     0.086 C 
BRANCH  11  12
HETATM   12  C10 UNL     1      24.691   0.783  52.302  1.00  0.00     0.248 C 
HETATM   13  C11 UNL     1      25.509  -0.086  53.232  1.00  0.00     0.203 C 
HETATM   14  O2  UNL     1      26.754  -0.347  52.699  1.00  0.00    -0.387 OA
HETATM   15  C12 UNL     1      27.556   0.785  52.624  1.00  0.00     0.197 C 
HETATM   16  C13 UNL     1      26.768   2.030  52.304  1.00  0.00     0.296 C 
HETATM   17  N3  UNL     1      25.532   1.760  51.636  1.00  0.00     0.092 N 
HETATM   18  H18 UNL     1      25.025   2.647  51.502  1.00  0.00     0.316 HD
ENDBRANCH  11  12
ENDBRANCH   9  11
BRANCH   8  19
HETATM   19  O1  UNL     1      22.216  -0.919  53.478  1.00  0.00    -0.358 OA
HETATM   20  C7  UNL     1      21.410  -1.573  54.443  1.00  0.00     0.209 C 
ENDBRANCH   8  19
BRANCH  10  21
HETATM   21  N4  UNL     1      23.113   3.345  50.675  1.00  0.00    -0.241 NA
HETATM   22  C14 UNL     1      22.765   3.828  49.549  1.00  0.00     0.124 C 
BRANCH  22  23
HETATM   23  C15 UNL     1      23.952   4.420  48.944  1.00  0.00     0.018 C 
HETATM   24  C16 UNL     1      25.176   4.451  49.442  1.00  0.00     0.005 C 
BRANCH  24  25
HETATM   25  C17 UNL     1      26.546   4.929  49.142  1.00  0.00     0.249 C 
HETATM   26  F1  UNL     1      27.339   3.865  48.714  1.00  0.00    -0.251 F 
ENDBRANCH  24  25
ENDBRANCH  22  23
ENDBRANCH  10  21
TORSDOF 6
ENDMDL
MODEL 9
REMARK VINA RESULT:      -6.4      3.435      6.195
REMARK  6 active torsions:
REMARK  status: ('A' for Active; 'I' for Inactive)
REMARK    1  A    between atoms: C6_8  and  O1_9 
REMARK    2  A    between atoms: C8_11  and  C9_12 
REMARK    3  A    between atoms: C9_12  and  C10_13 
REMARK    4  A    between atoms: S1_19  and  N4_20 
REMARK    5  A    between atoms: C14_21  and  C15_22 
REMARK    6  A    between atoms: C16_23  and  C17_24 
ROOT
HETATM    1  C1  UNL     1      23.968   5.165  51.308  1.00  0.00     0.154 A 
HETATM    2  C2  UNL     1      24.744   4.678  50.357  1.00  0.00     0.197 A 
HETATM    3  N1  UNL     1      25.365   5.886  49.980  1.00  0.00    -0.240 NA
HETATM    4  C3  UNL     1      25.019   6.567  48.951  1.00  0.00     0.209 A 
HETATM    5  N2  UNL     1      24.180   5.421  49.011  1.00  0.00    -0.316 N 
HETATM    6  C4  UNL     1      23.243   5.252  48.116  1.00  0.00     0.081 A 
HETATM    7  C5  UNL     1      22.918   4.009  48.826  1.00  0.00     0.097 A 
HETATM    8  C6  UNL     1      22.082   2.967  48.784  1.00  0.00     0.069 A 
HETATM    9  C8  UNL     1      22.739   2.443  49.982  1.00  0.00     0.016 A 
HETATM   10  S1  UNL     1      23.978   3.126  50.807  1.00  0.00    -0.073 SA
ENDROOT
BRANCH   9  11
HETATM   11  C9  UNL     1      22.251   1.170  50.589  1.00  0.00     0.086 C 
BRANCH  11  12
HETATM   12  C10 UNL     1      21.276   1.427  51.710  1.00  0.00     0.248 C 
HETATM   13  C11 UNL     1      21.533   0.423  52.813  1.00  0.00     0.203 C 
HETATM   14  O2  UNL     1      20.433   0.298  53.635  1.00  0.00    -0.387 OA
HETATM   15  C12 UNL     1      19.345  -0.285  52.997  1.00  0.00     0.197 C 
HETATM   16  C13 UNL     1      19.248   0.112  51.546  1.00  0.00     0.296 C 
HETATM   17  N3  UNL     1      19.901   1.352  51.254  1.00  0.00     0.092 N 
HETATM   18  H18 UNL     1      19.842   1.530  50.240  1.00  0.00     0.316 HD
ENDBRANCH  11  12
ENDBRANCH   9  11
BRANCH   8  19
HETATM   19  O1  UNL     1      21.032   2.142  48.312  1.00  0.00    -0.358 OA
HETATM   20  C7  UNL     1      19.945   2.847  47.737  1.00  0.00     0.209 C 
ENDBRANCH   8  19
BRANCH  10  21
HETATM   21  N4  UNL     1      25.159   1.917  51.437  1.00  0.00    -0.241 NA
HETATM   22  C14 UNL     1      25.233   1.873  52.708  1.00  0.00     0.124 C 
BRANCH  22  23
HETATM   23  C15 UNL     1      26.220   0.856  53.050  1.00  0.00     0.018 C 
HETATM   24  C16 UNL     1      26.290  -0.382  52.593  1.00  0.00     0.005 C 
BRANCH  24  25
HETATM   25  C17 UNL     1      27.094  -1.622  52.701  1.00  0.00     0.249 C 
HETATM   26  F1  UNL     1      26.582  -2.598  51.846  1.00  0.00    -0.251 F 
ENDBRANCH  24  25
ENDBRANCH  22  23
ENDBRANCH  10  21
TORSDOF 6
ENDMDL
