MODEL 1
REMARK VINA RESULT:      -8.1      0.000      0.000
REMARK  1 active torsions:
REMARK  status: ('A' for Active; 'I' for Inactive)
REMARK    1  A    between atoms: C14_20  and  C15_21 
ROOT
HETATM    1  N1  UNL     1      28.957  14.242  45.578  1.00  0.00    -0.195 NA
HETATM    2  C1  UNL     1      29.320  13.585  46.454  1.00  0.00     0.088 C 
HETATM    3  C2  UNL     1      29.815  12.730  47.585  1.00  0.00     0.213 C 
HETATM    4  C3  UNL     1      28.729  11.854  47.898  1.00  0.00     0.034 C 
HETATM    5  C4  UNL     1      27.471  11.860  48.185  1.00  0.00     0.028 C 
HETATM    6 CL1  UNL     1      26.880  13.507  48.190  1.00  0.00    -0.087 Cl
HETATM    7  C5  UNL     1      26.563  10.688  48.512  1.00  0.00     0.170 C 
HETATM    8  N2  UNL     1      27.261   9.473  48.579  1.00  0.00    -0.381 N 
HETATM    9  C6  UNL     1      28.051   9.329  49.718  1.00  0.00     0.241 C 
HETATM   10  N3  UNL     1      29.220   8.478  49.623  1.00  0.00    -0.383 N 
HETATM   11  C7  UNL     1      30.396   9.128  49.307  1.00  0.00     0.085 C 
HETATM   12  C8  UNL     1      31.296   9.721  48.521  1.00  0.00     0.026 C 
HETATM   13  C9  UNL     1      31.174   9.907  47.103  1.00  0.00    -0.033 A 
HETATM   14  C10 UNL     1      32.355  10.306  46.580  1.00  0.00     0.063 A 
HETATM   15  C11 UNL     1      32.454  11.542  47.144  1.00  0.00     0.078 C 
HETATM   16  N4  UNL     1      31.129  12.162  47.303  1.00  0.00    -0.381 N 
HETATM   17  P1  UNL     1      30.499  10.015  45.477  1.00  0.00    -0.081 P 
HETATM   18  C12 UNL     1      28.947   8.955  45.614  1.00  0.00     0.003 C 
HETATM   19  C13 UNL     1      27.921   8.536  46.378  1.00  0.00     0.003 C 
HETATM   20  C14 UNL     1      27.127   8.481  47.618  1.00  0.00     0.137 C 
HETATM   21  H7  UNL     1      29.009   7.473  49.768  1.00  0.00     0.160 HD
HETATM   22  H11 UNL     1      31.325  12.464  46.312  1.00  0.00     0.160 HD
HETATM   23  H12 UNL     1      29.953  11.200  44.957  1.00  0.00     0.063 HD
ENDROOT
BRANCH  20  24
HETATM   24  C15 UNL     1      27.100   7.061  48.134  1.00  0.00    -0.032 A 
HETATM   25  C16 UNL     1      25.938   6.638  48.789  1.00  0.00     0.009 A 
HETATM   26  C17 UNL     1      25.922   5.339  49.277  1.00  0.00     0.001 A 
HETATM   27  C18 UNL     1      27.024   4.493  49.115  1.00  0.00     0.000 A 
HETATM   28  C19 UNL     1      28.156   4.933  48.467  1.00  0.00     0.001 A 
HETATM   29  C20 UNL     1      28.182   6.222  47.979  1.00  0.00     0.009 A 
ENDBRANCH  20  24
TORSDOF 1
ENDMDL
MODEL 2
REMARK VINA RESULT:      -7.9      8.362     11.621
REMARK  1 active torsions:
REMARK  status: ('A' for Active; 'I' for Inactive)
REMARK    1  A    between atoms: C14_20  and  C15_21 
ROOT
HETATM    1  N1  UNL     1      26.334   2.323  54.207  1.00  0.00    -0.195 NA
HETATM    2  C1  UNL     1      25.859   2.007  53.205  1.00  0.00     0.088 C 
HETATM    3  C2  UNL     1      25.253   1.615  51.888  1.00  0.00     0.213 C 
HETATM    4  C3  UNL     1      23.935   1.156  52.203  1.00  0.00     0.034 C 
HETATM    5  C4  UNL     1      23.304   0.333  52.970  1.00  0.00     0.028 C 
HETATM    6 CL1  UNL     1      24.449  -0.517  53.983  1.00  0.00    -0.087 Cl
HETATM    7  C5  UNL     1      21.814   0.048  53.040  1.00  0.00     0.170 C 
HETATM    8  N2  UNL     1      21.090   0.740  52.058  1.00  0.00    -0.381 N 
HETATM    9  C6  UNL     1      21.245   0.232  50.769  1.00  0.00     0.241 C 
HETATM   10  N3  UNL     1      21.080   1.151  49.660  1.00  0.00    -0.383 N 
HETATM   11  C7  UNL     1      22.245   1.733  49.201  1.00  0.00     0.085 C 
HETATM   12  C8  UNL     1      23.269   2.588  49.197  1.00  0.00     0.026 C 
HETATM   13  C9  UNL     1      23.502   3.619  50.167  1.00  0.00    -0.033 A 
HETATM   14  C10 UNL     1      24.469   4.459  49.735  1.00  0.00     0.063 A 
HETATM   15  C11 UNL     1      25.540   3.618  49.773  1.00  0.00     0.078 C 
HETATM   16  N4  UNL     1      25.422   2.655  50.879  1.00  0.00    -0.381 N 
HETATM   17  P1  UNL     1      23.416   4.590  51.638  1.00  0.00    -0.081 P 
HETATM   18  C12 UNL     1      21.729   4.120  52.332  1.00  0.00     0.003 C 
HETATM   19  C13 UNL     1      20.796   3.163  52.504  1.00  0.00     0.003 C 
HETATM   20  C14 UNL     1      20.250   1.803  52.360  1.00  0.00     0.137 C 
HETATM   21  H7  UNL     1      20.091   1.282  49.378  1.00  0.00     0.160 HD
HETATM   22  H11 UNL     1      25.870   3.448  51.410  1.00  0.00     0.160 HD
HETATM   23  H12 UNL     1      24.229   4.346  52.757  1.00  0.00     0.063 HD
ENDROOT
BRANCH  20  24
HETATM   24  C15 UNL     1      18.955   1.862  51.583  1.00  0.00    -0.032 A 
HETATM   25  C16 UNL     1      18.153   0.715  51.583  1.00  0.00     0.009 A 
HETATM   26  C17 UNL     1      16.973   0.766  50.856  1.00  0.00     0.001 A 
HETATM   27  C18 UNL     1      16.605   1.920  50.155  1.00  0.00     0.000 A 
HETATM   28  C19 UNL     1      17.412   3.036  50.171  1.00  0.00     0.001 A 
HETATM   29  C20 UNL     1      18.586   2.994  50.890  1.00  0.00     0.009 A 
ENDBRANCH  20  24
TORSDOF 1
ENDMDL
MODEL 3
REMARK VINA RESULT:      -7.8      7.049     11.189
REMARK  1 active torsions:
REMARK  status: ('A' for Active; 'I' for Inactive)
REMARK    1  A    between atoms: C14_20  and  C15_21 
ROOT
HETATM    1  N1  UNL     1      19.195  -0.465  51.776  1.00  0.00    -0.195 NA
HETATM    2  C1  UNL     1      19.554   0.599  52.040  1.00  0.00     0.088 C 
HETATM    3  C2  UNL     1      19.999   1.993  52.376  1.00  0.00     0.213 C 
HETATM    4  C3  UNL     1      21.407   2.010  52.122  1.00  0.00     0.034 C 
HETATM    5  C4  UNL     1      22.496   1.377  52.402  1.00  0.00     0.028 C 
HETATM    6 CL1  UNL     1      22.133   0.024  53.450  1.00  0.00    -0.087 Cl
HETATM    7  C5  UNL     1      23.917   1.689  51.968  1.00  0.00     0.170 C 
HETATM    8  N2  UNL     1      24.004   2.885  51.239  1.00  0.00    -0.381 N 
HETATM    9  C6  UNL     1      23.862   4.036  52.011  1.00  0.00     0.241 C 
HETATM   10  N3  UNL     1      23.337   5.221  51.361  1.00  0.00    -0.383 N 
HETATM   11  C7  UNL     1      21.972   5.395  51.470  1.00  0.00     0.085 C 
HETATM   12  C8  UNL     1      20.685   5.192  51.184  1.00  0.00     0.026 C 
HETATM   13  C9  UNL     1      20.179   4.285  50.194  1.00  0.00    -0.033 A 
HETATM   14  C10 UNL     1      18.863   4.507  49.983  1.00  0.00     0.063 A 
HETATM   15  C11 UNL     1      18.365   4.111  51.188  1.00  0.00     0.078 C 
HETATM   16  N4  UNL     1      19.152   3.002  51.750  1.00  0.00    -0.381 N 
HETATM   17  P1  UNL     1      20.074   2.978  49.014  1.00  0.00    -0.081 P 
HETATM   18  C12 UNL     1      21.877   2.730  48.527  1.00  0.00     0.003 C 
HETATM   19  C13 UNL     1      23.169   2.738  48.907  1.00  0.00     0.003 C 
HETATM   20  C14 UNL     1      24.265   2.910  49.877  1.00  0.00     0.137 C 
HETATM   21  H7  UNL     1      24.061   5.770  50.861  1.00  0.00     0.160 HD
HETATM   22  H11 UNL     1      18.491   2.437  51.153  1.00  0.00     0.160 HD
HETATM   23  H12 UNL     1      19.722   1.664  49.363  1.00  0.00     0.063 HD
ENDROOT
BRANCH  20  24
HETATM   24  C15 UNL     1      25.186   4.012  49.402  1.00  0.00    -0.032 A 
HETATM   25  C16 UNL     1      26.563   3.779  49.489  1.00  0.00     0.009 A 
HETATM   26  C17 UNL     1      27.406   4.797  49.068  1.00  0.00     0.001 A 
HETATM   27  C18 UNL     1      26.894   6.002  48.576  1.00  0.00     0.000 A 
HETATM   28  C19 UNL     1      25.534   6.207  48.500  1.00  0.00     0.001 A 
HETATM   29  C20 UNL     1      24.689   5.201  48.917  1.00  0.00     0.009 A 
ENDBRANCH  20  24
TORSDOF 1
ENDMDL
MODEL 4
REMARK VINA RESULT:      -7.8      4.842      6.965
REMARK  1 active torsions:
REMARK  status: ('A' for Active; 'I' for Inactive)
REMARK    1  A    between atoms: C14_20  and  C15_21 
ROOT
HETATM    1  N1  UNL     1      24.525   7.811  45.111  1.00  0.00    -0.195 NA
HETATM    2  C1  UNL     1      24.191   7.824  46.215  1.00  0.00     0.088 C 
HETATM    3  C2  UNL     1      23.772   7.860  47.656  1.00  0.00     0.213 C 
HETATM    4  C3  UNL     1      23.461   6.505  47.992  1.00  0.00     0.034 C 
HETATM    5  C4  UNL     1      22.754   5.499  47.600  1.00  0.00     0.028 C 
HETATM    6 CL1  UNL     1      21.868   5.935  46.156  1.00  0.00    -0.087 Cl
HETATM    7  C5  UNL     1      22.617   4.127  48.234  1.00  0.00     0.170 C 
HETATM    8  N2  UNL     1      23.308   4.028  49.451  1.00  0.00    -0.381 N 
HETATM    9  C6  UNL     1      22.704   4.705  50.509  1.00  0.00     0.241 C 
HETATM   10  N3  UNL     1      23.559   5.183  51.578  1.00  0.00    -0.383 N 
HETATM   11  C7  UNL     1      23.996   6.485  51.443  1.00  0.00     0.085 C 
HETATM   12  C8  UNL     1      24.748   7.483  50.977  1.00  0.00     0.026 C 
HETATM   13  C9  UNL     1      25.815   7.354  50.026  1.00  0.00    -0.033 A 
HETATM   14  C10 UNL     1      26.529   8.500  49.964  1.00  0.00     0.063 A 
HETATM   15  C11 UNL     1      25.595   9.327  49.416  1.00  0.00     0.078 C 
HETATM   16  N4  UNL     1      24.722   8.597  48.482  1.00  0.00    -0.381 N 
HETATM   17  P1  UNL     1      26.884   6.706  48.782  1.00  0.00    -0.081 P 
HETATM   18  C12 UNL     1      26.623   4.848  48.955  1.00  0.00     0.003 C 
HETATM   19  C13 UNL     1      25.772   3.840  49.229  1.00  0.00     0.003 C 
HETATM   20  C14 UNL     1      24.463   3.272  49.594  1.00  0.00     0.137 C 
HETATM   21  H7  UNL     1      23.765   4.461  52.293  1.00  0.00     0.160 HD
HETATM   22  H11 UNL     1      25.502   8.835  47.814  1.00  0.00     0.160 HD
HETATM   23  H12 UNL     1      26.639   6.870  47.408  1.00  0.00     0.063 HD
ENDROOT
BRANCH  20  24
HETATM   24  C15 UNL     1      24.593   2.504  50.890  1.00  0.00    -0.032 A 
HETATM   25  C16 UNL     1      25.760   2.700  51.637  1.00  0.00     0.009 A 
HETATM   26  C17 UNL     1      25.885   1.982  52.818  1.00  0.00     0.001 A 
HETATM   27  C18 UNL     1      24.882   1.102  53.238  1.00  0.00     0.000 A 
HETATM   28  C19 UNL     1      23.743   0.927  52.484  1.00  0.00     0.001 A 
HETATM   29  C20 UNL     1      23.610   1.636  51.310  1.00  0.00     0.009 A 
ENDBRANCH  20  24
TORSDOF 1
ENDMDL
MODEL 5
REMARK VINA RESULT:      -7.7      6.936     11.250
REMARK  1 active torsions:
REMARK  status: ('A' for Active; 'I' for Inactive)
REMARK    1  A    between atoms: C14_20  and  C15_21 
ROOT
HETATM    1  N1  UNL     1      22.469  -1.459  52.883  1.00  0.00    -0.195 NA
HETATM    2  C1  UNL     1      22.218  -0.339  52.993  1.00  0.00     0.088 C 
HETATM    3  C2  UNL     1      21.867   1.114  53.134  1.00  0.00     0.213 C 
HETATM    4  C3  UNL     1      22.958   1.824  52.542  1.00  0.00     0.034 C 
HETATM    5  C4  UNL     1      24.244   1.922  52.578  1.00  0.00     0.028 C 
HETATM    6 CL1  UNL     1      24.882   0.796  53.755  1.00  0.00    -0.087 Cl
HETATM    7  C5  UNL     1      25.151   2.852  51.793  1.00  0.00     0.170 C 
HETATM    8  N2  UNL     1      24.432   3.760  51.002  1.00  0.00    -0.381 N 
HETATM    9  C6  UNL     1      23.814   4.781  51.722  1.00  0.00     0.241 C 
HETATM   10  N3  UNL     1      22.616   5.372  51.158  1.00  0.00    -0.383 N 
HETATM   11  C7  UNL     1      21.428   4.816  51.589  1.00  0.00     0.085 C 
HETATM   12  C8  UNL     1      20.443   3.919  51.640  1.00  0.00     0.026 C 
HETATM   13  C9  UNL     1      20.360   2.721  50.855  1.00  0.00    -0.033 A 
HETATM   14  C10 UNL     1      19.128   2.174  50.962  1.00  0.00     0.063 A 
HETATM   15  C11 UNL     1      19.154   1.799  52.272  1.00  0.00     0.078 C 
HETATM   16  N4  UNL     1      20.508   1.393  52.682  1.00  0.00    -0.381 N 
HETATM   17  P1  UNL     1      20.791   1.367  49.808  1.00  0.00    -0.081 P 
HETATM   18  C12 UNL     1      22.310   2.023  48.907  1.00  0.00     0.003 C 
HETATM   19  C13 UNL     1      23.424   2.779  48.958  1.00  0.00     0.003 C 
HETATM   20  C14 UNL     1      24.390   3.673  49.618  1.00  0.00     0.137 C 
HETATM   21  H7  UNL     1      22.813   6.119  50.467  1.00  0.00     0.160 HD
HETATM   22  H11 UNL     1      20.178   0.469  52.297  1.00  0.00     0.160 HD
HETATM   23  H12 UNL     1      21.293   0.153  50.304  1.00  0.00     0.063 HD
ENDROOT
BRANCH  20  24
HETATM   24  C15 UNL     1      24.446   4.988  48.873  1.00  0.00    -0.032 A 
HETATM   25  C16 UNL     1      25.634   5.723  48.956  1.00  0.00     0.009 A 
HETATM   26  C17 UNL     1      25.677   6.936  48.284  1.00  0.00     0.001 A 
HETATM   27  C18 UNL     1      24.576   7.399  47.556  1.00  0.00     0.000 A 
HETATM   28  C19 UNL     1      23.418   6.657  47.490  1.00  0.00     0.001 A 
HETATM   29  C20 UNL     1      23.366   5.450  48.154  1.00  0.00     0.009 A 
ENDBRANCH  20  24
TORSDOF 1
ENDMDL
MODEL 6
REMARK VINA RESULT:      -7.7      6.514      8.631
REMARK  1 active torsions:
REMARK  status: ('A' for Active; 'I' for Inactive)
REMARK    1  A    between atoms: C14_20  and  C15_21 
ROOT
HETATM    1  N1  UNL     1      22.188   5.394  46.232  1.00  0.00    -0.195 NA
HETATM    2  C1  UNL     1      22.172   5.468  47.383  1.00  0.00     0.088 C 
HETATM    3  C2  UNL     1      22.159   5.589  48.880  1.00  0.00     0.213 C 
HETATM    4  C3  UNL     1      22.558   4.304  49.364  1.00  0.00     0.034 C 
HETATM    5  C4  UNL     1      22.279   3.048  49.260  1.00  0.00     0.028 C 
HETATM    6 CL1  UNL     1      20.957   2.836  48.133  1.00  0.00    -0.087 Cl
HETATM    7  C5  UNL     1      22.911   1.869  49.976  1.00  0.00     0.170 C 
HETATM    8  N2  UNL     1      23.861   2.267  50.928  1.00  0.00    -0.381 N 
HETATM    9  C6  UNL     1      23.315   2.825  52.083  1.00  0.00     0.241 C 
HETATM   10  N3  UNL     1      24.121   3.782  52.814  1.00  0.00    -0.383 N 
HETATM   11  C7  UNL     1      23.906   5.105  52.485  1.00  0.00     0.085 C 
HETATM   12  C8  UNL     1      24.010   6.221  51.761  1.00  0.00     0.026 C 
HETATM   13  C9  UNL     1      24.748   6.359  50.539  1.00  0.00    -0.033 A 
HETATM   14  C10 UNL     1      24.858   7.664  50.202  1.00  0.00     0.063 A 
HETATM   15  C11 UNL     1      23.555   7.942  49.922  1.00  0.00     0.078 C 
HETATM   16  N4  UNL     1      22.875   6.775  49.337  1.00  0.00    -0.381 N 
HETATM   17  P1  UNL     1      25.638   5.978  49.063  1.00  0.00    -0.081 P 
HETATM   18  C12 UNL     1      26.255   4.231  49.405  1.00  0.00     0.003 C 
HETATM   19  C13 UNL     1      26.020   3.034  49.976  1.00  0.00     0.003 C 
HETATM   20  C14 UNL     1      25.223   2.068  50.752  1.00  0.00     0.137 C 
HETATM   21  H7  UNL     1      24.791   3.339  53.469  1.00  0.00     0.160 HD
HETATM   22  H11 UNL     1      23.280   7.180  48.452  1.00  0.00     0.160 HD
HETATM   23  H12 UNL     1      25.007   5.788  47.823  1.00  0.00     0.063 HD
ENDROOT
BRANCH  20  24
HETATM   24  C15 UNL     1      25.995   1.656  51.984  1.00  0.00    -0.032 A 
HETATM   25  C16 UNL     1      25.539   0.530  52.680  1.00  0.00     0.009 A 
HETATM   26  C17 UNL     1      26.239   0.163  53.821  1.00  0.00     0.001 A 
HETATM   27  C18 UNL     1      27.354   0.891  54.249  1.00  0.00     0.000 A 
HETATM   28  C19 UNL     1      27.783   1.995  53.547  1.00  0.00     0.001 A 
HETATM   29  C20 UNL     1      27.093   2.367  52.413  1.00  0.00     0.009 A 
ENDBRANCH  20  24
TORSDOF 1
ENDMDL
MODEL 7
REMARK VINA RESULT:      -7.7      1.625      1.988
REMARK  1 active torsions:
REMARK  status: ('A' for Active; 'I' for Inactive)
REMARK    1  A    between atoms: C14_20  and  C15_21 
ROOT
HETATM    1  N1  UNL     1      32.043  12.782  44.582  1.00  0.00    -0.195 NA
HETATM    2  C1  UNL     1      32.079  12.227  45.593  1.00  0.00     0.088 C 
HETATM    3  C2  UNL     1      32.148  11.497  46.903  1.00  0.00     0.213 C 
HETATM    4  C3  UNL     1      30.809  11.072  47.169  1.00  0.00     0.034 C 
HETATM    5  C4  UNL     1      29.600  11.519  47.250  1.00  0.00     0.028 C 
HETATM    6 CL1  UNL     1      29.588  13.236  46.915  1.00  0.00    -0.087 Cl
HETATM    7  C5  UNL     1      28.329  10.767  47.602  1.00  0.00     0.170 C 
HETATM    8  N2  UNL     1      28.577   9.433  47.959  1.00  0.00    -0.381 N 
HETATM    9  C6  UNL     1      29.157   9.277  49.217  1.00  0.00     0.241 C 
HETATM   10  N3  UNL     1      29.984   8.107  49.436  1.00  0.00    -0.383 N 
HETATM   11  C7  UNL     1      31.334   8.292  49.216  1.00  0.00     0.085 C 
HETATM   12  C8  UNL     1      32.453   8.418  48.501  1.00  0.00     0.026 C 
HETATM   13  C9  UNL     1      32.543   8.356  47.070  1.00  0.00    -0.033 A 
HETATM   14  C10 UNL     1      33.836   8.265  46.685  1.00  0.00     0.063 A 
HETATM   15  C11 UNL     1      34.279   9.496  47.067  1.00  0.00     0.078 C 
HETATM   16  N4  UNL     1      33.223  10.510  46.920  1.00  0.00    -0.381 N 
HETATM   17  P1  UNL     1      32.109   8.350  45.360  1.00  0.00    -0.081 P 
HETATM   18  C12 UNL     1      30.290   7.863  45.408  1.00  0.00     0.003 C 
HETATM   19  C13 UNL     1      29.111   7.934  46.056  1.00  0.00     0.003 C 
HETATM   20  C14 UNL     1      28.222   8.365  47.149  1.00  0.00     0.137 C 
HETATM   21  H7  UNL     1      29.441   7.263  49.695  1.00  0.00     0.160 HD
HETATM   22  H11 UNL     1      33.606  10.541  45.939  1.00  0.00     0.160 HD
HETATM   23  H12 UNL     1      32.039   9.522  44.589  1.00  0.00     0.063 HD
ENDROOT
BRANCH  20  24
HETATM   24  C15 UNL     1      27.677   7.148  47.862  1.00  0.00    -0.032 A 
HETATM   25  C16 UNL     1      26.405   7.256  48.435  1.00  0.00     0.009 A 
HETATM   26  C17 UNL     1      25.914   6.143  49.102  1.00  0.00     0.001 A 
HETATM   27  C18 UNL     1      26.664   4.966  49.194  1.00  0.00     0.000 A 
HETATM   28  C19 UNL     1      27.914   4.885  48.621  1.00  0.00     0.001 A 
HETATM   29  C20 UNL     1      28.410   5.986  47.956  1.00  0.00     0.009 A 
ENDBRANCH  20  24
TORSDOF 1
ENDMDL
MODEL 8
REMARK VINA RESULT:      -7.5      7.081     11.098
REMARK  1 active torsions:
REMARK  status: ('A' for Active; 'I' for Inactive)
REMARK    1  A    between atoms: C14_20  and  C15_21 
ROOT
HETATM    1  N1  UNL     1      17.070   4.232  51.929  1.00  0.00    -0.195 NA
HETATM    2  C1  UNL     1      17.715   3.702  51.133  1.00  0.00     0.088 C 
HETATM    3  C2  UNL     1      18.549   2.989  50.108  1.00  0.00     0.213 C 
HETATM    4  C3  UNL     1      19.605   3.898  49.784  1.00  0.00     0.034 C 
HETATM    5  C4  UNL     1      19.816   5.115  49.407  1.00  0.00     0.028 C 
HETATM    6 CL1  UNL     1      18.287   5.948  49.236  1.00  0.00    -0.087 Cl
HETATM    7  C5  UNL     1      21.135   5.802  49.104  1.00  0.00     0.170 C 
HETATM    8  N2  UNL     1      22.227   4.923  49.179  1.00  0.00    -0.381 N 
HETATM    9  C6  UNL     1      22.314   4.028  48.113  1.00  0.00     0.241 C 
HETATM   10  N3  UNL     1      22.962   2.755  48.356  1.00  0.00    -0.383 N 
HETATM   11  C7  UNL     1      22.115   1.722  48.706  1.00  0.00     0.085 C 
HETATM   12  C8  UNL     1      21.339   0.993  49.509  1.00  0.00     0.026 C 
HETATM   13  C9  UNL     1      21.085   1.259  50.896  1.00  0.00    -0.033 A 
HETATM   14  C10 UNL     1      20.473   0.200  51.472  1.00  0.00     0.063 A 
HETATM   15  C11 UNL     1      19.275   0.245  50.826  1.00  0.00     0.078 C 
HETATM   16  N4  UNL     1      18.884   1.632  50.526  1.00  0.00    -0.381 N 
HETATM   17  P1  UNL     1      20.984   2.075  52.457  1.00  0.00    -0.081 P 
HETATM   18  C12 UNL     1      22.283   3.429  52.288  1.00  0.00     0.003 C 
HETATM   19  C13 UNL     1      22.907   4.312  51.485  1.00  0.00     0.003 C 
HETATM   20  C14 UNL     1      23.164   4.983  50.199  1.00  0.00     0.137 C 
HETATM   21  H7  UNL     1      23.994   2.796  48.272  1.00  0.00     0.160 HD
HETATM   22  H11 UNL     1      18.493   1.567  51.502  1.00  0.00     0.160 HD
HETATM   23  H12 UNL     1      19.870   2.838  52.846  1.00  0.00     0.063 HD
ENDROOT
BRANCH  20  24
HETATM   24  C15 UNL     1      24.601   4.749  49.790  1.00  0.00    -0.032 A 
HETATM   25  C16 UNL     1      25.229   5.755  49.046  1.00  0.00     0.009 A 
HETATM   26  C17 UNL     1      26.542   5.531  48.658  1.00  0.00     0.001 A 
HETATM   27  C18 UNL     1      27.204   4.347  49.000  1.00  0.00     0.000 A 
HETATM   28  C19 UNL     1      26.564   3.372  49.733  1.00  0.00     0.001 A 
HETATM   29  C20 UNL     1      25.260   3.586  50.123  1.00  0.00     0.009 A 
ENDBRANCH  20  24
TORSDOF 1
ENDMDL
MODEL 9
REMARK VINA RESULT:      -7.5      8.778     11.306
REMARK  1 active torsions:
REMARK  status: ('A' for Active; 'I' for Inactive)
REMARK    1  A    between atoms: C14_20  and  C15_21 
ROOT
HETATM    1  N1  UNL     1      18.097   4.317  46.472  1.00  0.00    -0.195 NA
HETATM    2  C1  UNL     1      18.701   4.602  47.413  1.00  0.00     0.088 C 
HETATM    3  C2  UNL     1      19.506   4.983  48.622  1.00  0.00     0.213 C 
HETATM    4  C3  UNL     1      19.241   3.962  49.587  1.00  0.00     0.034 C 
HETATM    5  C4  UNL     1      18.269   3.350  50.176  1.00  0.00     0.028 C 
HETATM    6 CL1  UNL     1      16.744   3.977  49.591  1.00  0.00    -0.087 Cl
HETATM    7  C5  UNL     1      18.329   2.268  51.239  1.00  0.00     0.170 C 
HETATM    8  N2  UNL     1      19.642   2.001  51.657  1.00  0.00    -0.381 N 
HETATM    9  C6  UNL     1      20.195   2.992  52.467  1.00  0.00     0.241 C 
HETATM   10  N3  UNL     1      21.637   3.145  52.452  1.00  0.00    -0.383 N 
HETATM   11  C7  UNL     1      22.119   4.084  51.562  1.00  0.00     0.085 C 
HETATM   12  C8  UNL     1      22.485   4.575  50.377  1.00  0.00     0.026 C 
HETATM   13  C9  UNL     1      22.431   3.872  49.128  1.00  0.00    -0.033 A 
HETATM   14  C10 UNL     1      23.105   4.555  48.176  1.00  0.00     0.063 A 
HETATM   15  C11 UNL     1      22.301   5.649  48.061  1.00  0.00     0.078 C 
HETATM   16  N4  UNL     1      20.889   5.296  48.279  1.00  0.00    -0.381 N 
HETATM   17  P1  UNL     1      22.041   2.676  47.890  1.00  0.00    -0.081 P 
HETATM   18  C12 UNL     1      21.570   1.170  48.920  1.00  0.00     0.003 C 
HETATM   19  C13 UNL     1      20.998   0.694  50.042  1.00  0.00     0.003 C 
HETATM   20  C14 UNL     1      20.303   0.826  51.335  1.00  0.00     0.137 C 
HETATM   21  H7  UNL     1      22.126   2.492  53.092  1.00  0.00     0.160 HD
HETATM   22  H11 UNL     1      20.947   5.078  47.249  1.00  0.00     0.160 HD
HETATM   23  H12 UNL     1      20.912   2.781  47.061  1.00  0.00     0.063 HD
ENDROOT
BRANCH  20  24
HETATM   24  C15 UNL     1      21.162   0.230  52.428  1.00  0.00    -0.032 A 
HETATM   25  C16 UNL     1      20.510  -0.222  53.581  1.00  0.00     0.009 A 
HETATM   26  C17 UNL     1      21.302  -0.753  54.589  1.00  0.00     0.001 A 
HETATM   27  C18 UNL     1      22.692  -0.831  54.451  1.00  0.00     0.000 A 
HETATM   28  C19 UNL     1      23.309  -0.379  53.306  1.00  0.00     0.001 A 
HETATM   29  C20 UNL     1      22.531   0.150  52.299  1.00  0.00     0.009 A 
ENDBRANCH  20  24
TORSDOF 1
ENDMDL
