MODEL 1
REMARK VINA RESULT:      -9.1      0.000      0.000
REMARK  4 active torsions:
REMARK  status: ('A' for Active; 'I' for Inactive)
REMARK    1  A    between atoms: C3_5  and  N1_6 
REMARK    2  A    between atoms: N1_6  and  C4_7 
REMARK    3  A    between atoms: C8_13  and  O1_14 
REMARK    4  A    between atoms: O1_14  and  C9_15 
ROOT
HETATM    1  C4  UNL     1      23.638  -0.243  53.617  1.00  0.00     0.145 A 
HETATM    2  N2  UNL     1      23.867  -0.982  54.727  1.00  0.00    -0.223 NA
HETATM    3  C5  UNL     1      22.843  -1.536  55.428  1.00  0.00     0.236 A 
HETATM    4  N3  UNL     1      21.576  -1.348  55.007  1.00  0.00    -0.241 NA
HETATM    5  C6  UNL     1      21.296  -0.617  53.905  1.00  0.00     0.077 A 
HETATM    6  C7  UNL     1      19.985  -0.404  53.461  1.00  0.00     0.072 A 
HETATM    7  C8  UNL     1      19.711   0.361  52.323  1.00  0.00     0.107 A 
HETATM    8  C13 UNL     1      20.804   0.886  51.675  1.00  0.00     0.136 A 
HETATM    9  C14 UNL     1      22.102   0.701  52.079  1.00  0.00     0.121 A 
HETATM   10  C15 UNL     1      22.341  -0.055  53.199  1.00  0.00     0.075 A 
HETATM   11  O3  UNL     1      23.074   1.294  51.322  1.00  0.00    -0.345 OA
HETATM   12  C16 UNL     1      22.912   1.949  50.102  1.00  0.00     0.202 C 
HETATM   13  C17 UNL     1      21.550   1.666  49.508  1.00  0.00     0.202 C 
HETATM   14  O4  UNL     1      20.578   1.635  50.563  1.00  0.00    -0.344 OA
ENDROOT
BRANCH   1  15
HETATM   15  N1  UNL     1      24.755   0.282  52.940  1.00  0.00    -0.339 N 
HETATM   16  H2  UNL     1      24.803   0.873  52.053  1.00  0.00     0.167 HD
BRANCH  15  17
HETATM   17  C3  UNL     1      26.166   0.258  53.087  1.00  0.00     0.048 A 
HETATM   18  P1  UNL     1      27.074   1.737  53.335  1.00  0.00    -0.000 P 
HETATM   19  C2  UNL     1      28.793   1.445  53.509  1.00  0.00     0.062 A 
HETATM   20  C1  UNL     1      29.225   0.120  53.433  1.00  0.00     0.139 A 
HETATM   21  F1  UNL     1      30.560  -0.035  53.573  1.00  0.00    -0.204 F 
HETATM   22  C19 UNL     1      28.316  -0.891  53.231  1.00  0.00     0.074 A 
HETATM   23  C18 UNL     1      26.961  -0.874  53.074  1.00  0.00     0.057 A 
HETATM   24 CL1  UNL     1      29.101  -2.482  53.177  1.00  0.00    -0.081 Cl
ENDBRANCH  15  17
ENDBRANCH   1  15
BRANCH   7  25
HETATM   25  O1  UNL     1      18.371   0.445  52.057  1.00  0.00    -0.341 OA
BRANCH  25  26
HETATM   26  C9  UNL     1      17.524  -0.506  51.496  1.00  0.00     0.154 C 
HETATM   27  C10 UNL     1      17.077  -0.163  50.105  1.00  0.00     0.061 C 
HETATM   28  C11 UNL     1      15.626   0.183  50.280  1.00  0.00     0.170 C 
HETATM   29  O2  UNL     1      15.174  -0.587  51.354  1.00  0.00    -0.389 OA
HETATM   30  C12 UNL     1      16.221  -0.618  52.258  1.00  0.00     0.200 C 
ENDBRANCH  25  26
ENDBRANCH   7  25
TORSDOF 4
ENDMDL
MODEL 2
REMARK VINA RESULT:      -8.9      1.616      3.122
REMARK  4 active torsions:
REMARK  status: ('A' for Active; 'I' for Inactive)
REMARK    1  A    between atoms: C3_5  and  N1_6 
REMARK    2  A    between atoms: N1_6  and  C4_7 
REMARK    3  A    between atoms: C8_13  and  O1_14 
REMARK    4  A    between atoms: O1_14  and  C9_15 
ROOT
HETATM    1  C4  UNL     1      24.575   1.687  51.944  1.00  0.00     0.145 A 
HETATM    2  N2  UNL     1      25.112   2.567  51.066  1.00  0.00    -0.223 NA
HETATM    3  C5  UNL     1      24.390   3.043  50.017  1.00  0.00     0.236 A 
HETATM    4  N3  UNL     1      23.117   2.633  49.850  1.00  0.00    -0.241 NA
HETATM    5  C6  UNL     1      22.537   1.756  50.699  1.00  0.00     0.077 A 
HETATM    6  C7  UNL     1      21.219   1.314  50.534  1.00  0.00     0.072 A 
HETATM    7  C8  UNL     1      20.635   0.399  51.417  1.00  0.00     0.107 A 
HETATM    8  C13 UNL     1      21.435  -0.034  52.448  1.00  0.00     0.136 A 
HETATM    9  C14 UNL     1      22.730   0.376  52.643  1.00  0.00     0.121 A 
HETATM   10  C15 UNL     1      23.276   1.274  51.762  1.00  0.00     0.075 A 
HETATM   11  O3  UNL     1      23.387  -0.152  53.719  1.00  0.00    -0.345 OA
HETATM   12  C16 UNL     1      22.851  -0.952  54.728  1.00  0.00     0.202 C 
HETATM   13  C17 UNL     1      21.339  -0.929  54.695  1.00  0.00     0.202 C 
HETATM   14  O4  UNL     1      20.902  -0.922  53.329  1.00  0.00    -0.344 OA
ENDROOT
BRANCH   1  15
HETATM   15  N1  UNL     1      25.384   1.255  53.012  1.00  0.00    -0.339 N 
HETATM   16  H2  UNL     1      25.180   1.231  54.059  1.00  0.00     0.167 HD
BRANCH  15  17
HETATM   17  C3  UNL     1      26.693   0.736  53.180  1.00  0.00     0.048 A 
HETATM   18  P1  UNL     1      28.032   1.784  53.611  1.00  0.00    -0.000 P 
HETATM   19  C2  UNL     1      29.540   0.907  53.781  1.00  0.00     0.062 A 
HETATM   20  C1  UNL     1      29.504  -0.471  53.563  1.00  0.00     0.139 A 
HETATM   21  F1  UNL     1      30.698  -1.085  53.708  1.00  0.00    -0.204 F 
HETATM   22  C19 UNL     1      28.320  -1.085  53.230  1.00  0.00     0.074 A 
HETATM   23  C18 UNL     1      27.061  -0.591  53.052  1.00  0.00     0.057 A 
HETATM   24 CL1  UNL     1      28.525  -2.834  53.009  1.00  0.00    -0.081 Cl
ENDBRANCH  15  17
ENDBRANCH   1  15
BRANCH   7  25
HETATM   25  O1  UNL     1      19.342   0.098  51.082  1.00  0.00    -0.341 OA
BRANCH  25  26
HETATM   26  C9  UNL     1      18.164   0.428  51.744  1.00  0.00     0.154 C 
HETATM   27  C10 UNL     1      17.469  -0.754  52.355  1.00  0.00     0.061 C 
HETATM   28  C11 UNL     1      16.255  -0.931  51.490  1.00  0.00     0.170 C 
HETATM   29  O2  UNL     1      15.919   0.345  51.031  1.00  0.00    -0.389 OA
HETATM   30  C12 UNL     1      17.123   0.985  50.795  1.00  0.00     0.200 C 
ENDBRANCH  25  26
ENDBRANCH   7  25
TORSDOF 4
ENDMDL
MODEL 3
REMARK VINA RESULT:      -8.8      1.810      2.034
REMARK  4 active torsions:
REMARK  status: ('A' for Active; 'I' for Inactive)
REMARK    1  A    between atoms: C3_5  and  N1_6 
REMARK    2  A    between atoms: N1_6  and  C4_7 
REMARK    3  A    between atoms: C8_13  and  O1_14 
REMARK    4  A    between atoms: O1_14  and  C9_15 
ROOT
HETATM    1  C4  UNL     1      23.724   0.200  53.092  1.00  0.00     0.145 A 
HETATM    2  N2  UNL     1      23.602  -0.816  53.978  1.00  0.00    -0.223 NA
HETATM    3  C5  UNL     1      22.435  -1.037  54.639  1.00  0.00     0.236 A 
HETATM    4  N3  UNL     1      21.380  -0.231  54.405  1.00  0.00    -0.241 NA
HETATM    5  C6  UNL     1      21.453   0.797  53.530  1.00  0.00     0.077 A 
HETATM    6  C7  UNL     1      20.369   1.648  53.283  1.00  0.00     0.072 A 
HETATM    7  C8  UNL     1      20.463   2.713  52.381  1.00  0.00     0.107 A 
HETATM    8  C13 UNL     1      21.679   2.867  51.759  1.00  0.00     0.136 A 
HETATM    9  C14 UNL     1      22.764   2.054  51.974  1.00  0.00     0.121 A 
HETATM   10  C15 UNL     1      22.642   1.017  52.864  1.00  0.00     0.075 A 
HETATM   11  O3  UNL     1      23.900   2.345  51.273  1.00  0.00    -0.345 OA
HETATM   12  C16 UNL     1      24.047   3.287  50.255  1.00  0.00     0.202 C 
HETATM   13  C17 UNL     1      22.702   3.765  49.757  1.00  0.00     0.202 C 
HETATM   14  O4  UNL     1      21.809   3.890  50.872  1.00  0.00    -0.344 OA
ENDROOT
BRANCH   1  15
HETATM   15  N1  UNL     1      24.962   0.350  52.439  1.00  0.00    -0.339 N 
HETATM   16  H2  UNL     1      25.175   0.606  51.425  1.00  0.00     0.167 HD
BRANCH  15  17
HETATM   17  C3  UNL     1      26.335   0.226  52.772  1.00  0.00     0.048 A 
HETATM   18  P1  UNL     1      27.300   1.636  53.167  1.00  0.00    -0.000 P 
HETATM   19  C2  UNL     1      28.957   1.223  53.562  1.00  0.00     0.062 A 
HETATM   20  C1  UNL     1      29.305  -0.129  53.519  1.00  0.00     0.139 A 
HETATM   21  F1  UNL     1      30.594  -0.377  53.833  1.00  0.00    -0.204 F 
HETATM   22  C19 UNL     1      28.365  -1.071  53.179  1.00  0.00     0.074 A 
HETATM   23  C18 UNL     1      27.047  -0.958  52.843  1.00  0.00     0.057 A 
HETATM   24 CL1  UNL     1      29.040  -2.712  53.199  1.00  0.00    -0.081 Cl
ENDBRANCH  15  17
ENDBRANCH   1  15
BRANCH   7  25
HETATM   25  O1  UNL     1      19.296   3.421  52.281  1.00  0.00    -0.341 OA
BRANCH  25  26
HETATM   26  C9  UNL     1      18.397   3.490  51.221  1.00  0.00     0.154 C 
HETATM   27  C10 UNL     1      16.992   3.803  51.647  1.00  0.00     0.061 C 
HETATM   28  C11 UNL     1      16.264   2.508  51.424  1.00  0.00     0.170 C 
HETATM   29  O2  UNL     1      16.908   1.884  50.354  1.00  0.00    -0.389 OA
HETATM   30  C12 UNL     1      18.255   2.157  50.517  1.00  0.00     0.200 C 
ENDBRANCH  25  26
ENDBRANCH   7  25
TORSDOF 4
ENDMDL
MODEL 4
REMARK VINA RESULT:      -8.7      2.227      3.498
REMARK  4 active torsions:
REMARK  status: ('A' for Active; 'I' for Inactive)
REMARK    1  A    between atoms: C3_5  and  N1_6 
REMARK    2  A    between atoms: N1_6  and  C4_7 
REMARK    3  A    between atoms: C8_13  and  O1_14 
REMARK    4  A    between atoms: O1_14  and  C9_15 
ROOT
HETATM    1  C4  UNL     1      24.559   1.876  51.672  1.00  0.00     0.145 A 
HETATM    2  N2  UNL     1      25.315   2.684  50.891  1.00  0.00    -0.223 NA
HETATM    3  C5  UNL     1      24.780   3.776  50.284  1.00  0.00     0.236 A 
HETATM    4  N3  UNL     1      23.475   4.060  50.464  1.00  0.00    -0.241 NA
HETATM    5  C6  UNL     1      22.679   3.284  51.233  1.00  0.00     0.077 A 
HETATM    6  C7  UNL     1      21.320   3.560  51.422  1.00  0.00     0.072 A 
HETATM    7  C8  UNL     1      20.508   2.743  52.214  1.00  0.00     0.107 A 
HETATM    8  C13 UNL     1      21.127   1.659  52.790  1.00  0.00     0.136 A 
HETATM    9  C14 UNL     1      22.455   1.354  52.628  1.00  0.00     0.121 A 
HETATM   10  C15 UNL     1      23.228   2.175  51.846  1.00  0.00     0.075 A 
HETATM   11  O3  UNL     1      22.914   0.238  53.270  1.00  0.00    -0.345 OA
HETATM   12  C16 UNL     1      22.223  -0.553  54.188  1.00  0.00     0.202 C 
HETATM   13  C17 UNL     1      20.969   0.142  54.670  1.00  0.00     0.202 C 
HETATM   14  O4  UNL     1      20.371   0.840  53.569  1.00  0.00    -0.344 OA
ENDROOT
BRANCH   1  15
HETATM   15  N1  UNL     1      25.193   0.775  52.277  1.00  0.00    -0.339 N 
HETATM   16  H2  UNL     1      24.784  -0.152  52.613  1.00  0.00     0.167 HD
BRANCH  15  17
HETATM   17  C3  UNL     1      26.504   0.431  52.695  1.00  0.00     0.048 A 
HETATM   18  P1  UNL     1      27.610   1.651  53.297  1.00  0.00    -0.000 P 
HETATM   19  C2  UNL     1      29.157   0.976  53.769  1.00  0.00     0.062 A 
HETATM   20  C1  UNL     1      29.325  -0.401  53.618  1.00  0.00     0.139 A 
HETATM   21  F1  UNL     1      30.539  -0.855  53.998  1.00  0.00    -0.204 F 
HETATM   22  C19 UNL     1      28.301  -1.169  53.118  1.00  0.00     0.074 A 
HETATM   23  C18 UNL     1      27.044  -0.843  52.700  1.00  0.00     0.057 A 
HETATM   24 CL1  UNL     1      28.748  -2.884  53.025  1.00  0.00    -0.081 Cl
ENDBRANCH  15  17
ENDBRANCH   1  15
BRANCH   7  25
HETATM   25  O1  UNL     1      19.214   3.187  52.273  1.00  0.00    -0.341 OA
BRANCH  25  26
HETATM   26  C9  UNL     1      18.205   3.082  51.320  1.00  0.00     0.154 C 
HETATM   27  C10 UNL     1      17.117   4.103  51.487  1.00  0.00     0.061 C 
HETATM   28  C11 UNL     1      15.949   3.293  51.972  1.00  0.00     0.170 C 
HETATM   29  O2  UNL     1      16.102   2.023  51.411  1.00  0.00    -0.389 OA
HETATM   30  C12 UNL     1      17.462   1.767  51.431  1.00  0.00     0.200 C 
ENDBRANCH  25  26
ENDBRANCH   7  25
TORSDOF 4
ENDMDL
MODEL 5
REMARK VINA RESULT:      -8.3      4.762      8.672
REMARK  4 active torsions:
REMARK  status: ('A' for Active; 'I' for Inactive)
REMARK    1  A    between atoms: C3_5  and  N1_6 
REMARK    2  A    between atoms: N1_6  and  C4_7 
REMARK    3  A    between atoms: C8_13  and  O1_14 
REMARK    4  A    between atoms: O1_14  and  C9_15 
ROOT
HETATM    1  C4  UNL     1      21.365  -0.060  52.813  1.00  0.00     0.145 A 
HETATM    2  N2  UNL     1      20.639  -0.881  53.608  1.00  0.00    -0.223 NA
HETATM    3  C5  UNL     1      21.222  -1.581  54.615  1.00  0.00     0.236 A 
HETATM    4  N3  UNL     1      22.547  -1.455  54.828  1.00  0.00    -0.241 NA
HETATM    5  C6  UNL     1      23.315  -0.649  54.061  1.00  0.00     0.077 A 
HETATM    6  C7  UNL     1      24.694  -0.514  54.263  1.00  0.00     0.072 A 
HETATM    7  C8  UNL     1      25.476   0.318  53.455  1.00  0.00     0.107 A 
HETATM    8  C13 UNL     1      24.807   0.988  52.458  1.00  0.00     0.136 A 
HETATM    9  C14 UNL     1      23.459   0.882  52.229  1.00  0.00     0.121 A 
HETATM   10  C15 UNL     1      22.716   0.059  53.037  1.00  0.00     0.075 A 
HETATM   11  O3  UNL     1      22.950   1.616  51.194  1.00  0.00    -0.345 OA
HETATM   12  C16 UNL     1      23.617   2.575  50.431  1.00  0.00     0.202 C 
HETATM   13  C17 UNL     1      24.925   2.972  51.077  1.00  0.00     0.202 C 
HETATM   14  O4  UNL     1      25.534   1.808  51.653  1.00  0.00    -0.344 OA
ENDROOT
BRANCH   1  15
HETATM   15  N1  UNL     1      20.681   0.642  51.802  1.00  0.00    -0.339 N 
HETATM   16  H2  UNL     1      21.017   0.955  50.839  1.00  0.00     0.167 HD
BRANCH  15  17
HETATM   17  C3  UNL     1      19.395   1.211  51.619  1.00  0.00     0.048 A 
HETATM   18  P1  UNL     1      19.178   2.950  51.557  1.00  0.00    -0.000 P 
HETATM   19  C2  UNL     1      17.504   3.405  51.303  1.00  0.00     0.062 A 
HETATM   20  C1  UNL     1      16.573   2.372  51.184  1.00  0.00     0.139 A 
HETATM   21  F1  UNL     1      15.304   2.792  50.992  1.00  0.00    -0.204 F 
HETATM   22  C19 UNL     1      16.983   1.063  51.266  1.00  0.00     0.074 A 
HETATM   23  C18 UNL     1      18.215   0.508  51.457  1.00  0.00     0.057 A 
HETATM   24 CL1  UNL     1      15.625  -0.065  51.080  1.00  0.00    -0.081 Cl
ENDBRANCH  15  17
ENDBRANCH   1  15
BRANCH   7  25
HETATM   25  O1  UNL     1      26.796   0.311  53.818  1.00  0.00    -0.341 OA
BRANCH  25  26
HETATM   26  C9  UNL     1      27.924   0.114  53.028  1.00  0.00     0.154 C 
HETATM   27  C10 UNL     1      28.453  -1.291  53.081  1.00  0.00     0.061 C 
HETATM   28  C11 UNL     1      29.731  -1.153  53.858  1.00  0.00     0.170 C 
HETATM   29  O2  UNL     1      30.215   0.127  53.579  1.00  0.00    -0.389 OA
HETATM   30  C12 UNL     1      29.098   0.941  53.507  1.00  0.00     0.200 C 
ENDBRANCH  25  26
ENDBRANCH   7  25
TORSDOF 4
ENDMDL
MODEL 6
REMARK VINA RESULT:      -8.3      1.925      2.419
REMARK  4 active torsions:
REMARK  status: ('A' for Active; 'I' for Inactive)
REMARK    1  A    between atoms: C3_5  and  N1_6 
REMARK    2  A    between atoms: N1_6  and  C4_7 
REMARK    3  A    between atoms: C8_13  and  O1_14 
REMARK    4  A    between atoms: O1_14  and  C9_15 
ROOT
HETATM    1  C4  UNL     1      23.684   0.349  53.063  1.00  0.00     0.145 A 
HETATM    2  N2  UNL     1      23.488  -0.585  54.024  1.00  0.00    -0.223 NA
HETATM    3  C5  UNL     1      22.305  -1.244  54.133  1.00  0.00     0.236 A 
HETATM    4  N3  UNL     1      21.309  -0.964  53.268  1.00  0.00    -0.241 NA
HETATM    5  C6  UNL     1      21.456  -0.040  52.293  1.00  0.00     0.077 A 
HETATM    6  C7  UNL     1      20.429   0.269  51.393  1.00  0.00     0.072 A 
HETATM    7  C8  UNL     1      20.593   1.234  50.394  1.00  0.00     0.107 A 
HETATM    8  C13 UNL     1      21.820   1.855  50.355  1.00  0.00     0.136 A 
HETATM    9  C14 UNL     1      22.850   1.580  51.219  1.00  0.00     0.121 A 
HETATM   10  C15 UNL     1      22.661   0.628  52.188  1.00  0.00     0.075 A 
HETATM   11  O3  UNL     1      24.006   2.289  51.044  1.00  0.00    -0.345 OA
HETATM   12  C16 UNL     1      24.313   3.160  49.998  1.00  0.00     0.202 C 
HETATM   13  C17 UNL     1      23.331   3.008  48.858  1.00  0.00     0.202 C 
HETATM   14  O4  UNL     1      22.019   2.798  49.397  1.00  0.00    -0.344 OA
ENDROOT
BRANCH   1  15
HETATM   15  N1  UNL     1      24.944   0.974  53.008  1.00  0.00    -0.339 N 
HETATM   16  H2  UNL     1      25.195   1.994  52.816  1.00  0.00     0.167 HD
BRANCH  15  17
HETATM   17  C3  UNL     1      26.302   0.589  53.142  1.00  0.00     0.048 A 
HETATM   18  P1  UNL     1      27.548   1.775  53.482  1.00  0.00    -0.000 P 
HETATM   19  C2  UNL     1      29.139   1.052  53.622  1.00  0.00     0.062 A 
HETATM   20  C1  UNL     1      29.228  -0.331  53.454  1.00  0.00     0.139 A 
HETATM   21  F1  UNL     1      30.480  -0.823  53.572  1.00  0.00    -0.204 F 
HETATM   22  C19 UNL     1      28.097  -1.067  53.191  1.00  0.00     0.074 A 
HETATM   23  C18 UNL     1      26.791  -0.702  53.046  1.00  0.00     0.057 A 
HETATM   24 CL1  UNL     1      28.461  -2.796  53.023  1.00  0.00    -0.081 Cl
ENDBRANCH  15  17
ENDBRANCH   1  15
BRANCH   7  25
HETATM   25  O1  UNL     1      19.475   1.384  49.620  1.00  0.00    -0.341 OA
BRANCH  25  26
HETATM   26  C9  UNL     1      18.450   2.320  49.726  1.00  0.00     0.154 C 
HETATM   27  C10 UNL     1      18.532   3.415  48.702  1.00  0.00     0.061 C 
HETATM   28  C11 UNL     1      18.933   4.617  49.509  1.00  0.00     0.170 C 
HETATM   29  O2  UNL     1      18.389   4.426  50.781  1.00  0.00    -0.389 OA
HETATM   30  C12 UNL     1      18.510   3.072  51.039  1.00  0.00     0.200 C 
ENDBRANCH  25  26
ENDBRANCH   7  25
TORSDOF 4
ENDMDL
MODEL 7
REMARK VINA RESULT:      -8.1      5.288      9.074
REMARK  4 active torsions:
REMARK  status: ('A' for Active; 'I' for Inactive)
REMARK    1  A    between atoms: C3_5  and  N1_6 
REMARK    2  A    between atoms: N1_6  and  C4_7 
REMARK    3  A    between atoms: C8_13  and  O1_14 
REMARK    4  A    between atoms: O1_14  and  C9_15 
ROOT
HETATM    1  C4  UNL     1      24.096   3.577  51.166  1.00  0.00     0.145 A 
HETATM    2  N2  UNL     1      24.721   4.497  50.393  1.00  0.00    -0.223 NA
HETATM    3  C5  UNL     1      26.013   4.328  50.006  1.00  0.00     0.236 A 
HETATM    4  N3  UNL     1      26.682   3.225  50.396  1.00  0.00    -0.241 NA
HETATM    5  C6  UNL     1      26.102   2.279  51.168  1.00  0.00     0.077 A 
HETATM    6  C7  UNL     1      26.786   1.133  51.589  1.00  0.00     0.072 A 
HETATM    7  C8  UNL     1      26.174   0.167  52.395  1.00  0.00     0.107 A 
HETATM    8  C13 UNL     1      24.868   0.416  52.743  1.00  0.00     0.136 A 
HETATM    9  C14 UNL     1      24.164   1.527  52.351  1.00  0.00     0.121 A 
HETATM   10  C15 UNL     1      24.789   2.457  51.560  1.00  0.00     0.075 A 
HETATM   11  O3  UNL     1      22.872   1.623  52.786  1.00  0.00    -0.345 OA
HETATM   12  C16 UNL     1      22.135   0.653  53.466  1.00  0.00     0.202 C 
HETATM   13  C17 UNL     1      22.821  -0.693  53.406  1.00  0.00     0.202 C 
HETATM   14  O4  UNL     1      24.237  -0.501  53.525  1.00  0.00    -0.344 OA
ENDROOT
BRANCH   1  15
HETATM   15  N1  UNL     1      22.753   3.820  51.511  1.00  0.00    -0.339 N 
HETATM   16  H2  UNL     1      22.269   3.766  52.460  1.00  0.00     0.167 HD
BRANCH  15  17
HETATM   17  C3  UNL     1      21.556   4.181  50.840  1.00  0.00     0.048 A 
HETATM   18  P1  UNL     1      20.387   2.965  50.361  1.00  0.00    -0.000 P 
HETATM   19  C2  UNL     1      18.986   3.660  49.569  1.00  0.00     0.062 A 
HETATM   20  C1  UNL     1      18.963   5.048  49.416  1.00  0.00     0.139 A 
HETATM   21  F1  UNL     1      17.858   5.517  48.798  1.00  0.00    -0.204 F 
HETATM   22  C19 UNL     1      20.009   5.809  49.879  1.00  0.00     0.074 A 
HETATM   23  C18 UNL     1      21.169   5.468  50.511  1.00  0.00     0.057 A 
HETATM   24 CL1  UNL     1      19.750   7.538  49.577  1.00  0.00    -0.081 Cl
ENDBRANCH  15  17
ENDBRANCH   1  15
BRANCH   7  25
HETATM   25  O1  UNL     1      27.011  -0.875  52.693  1.00  0.00    -0.341 OA
BRANCH  25  26
HETATM   26  C9  UNL     1      27.932  -0.993  53.729  1.00  0.00     0.154 C 
HETATM   27  C10 UNL     1      28.038   0.239  54.580  1.00  0.00     0.061 C 
HETATM   28  C11 UNL     1      29.385   0.797  54.219  1.00  0.00     0.170 C 
HETATM   29  O2  UNL     1      30.179  -0.301  53.881  1.00  0.00    -0.389 OA
HETATM   30  C12 UNL     1      29.343  -1.174  53.208  1.00  0.00     0.200 C 
ENDBRANCH  25  26
ENDBRANCH   7  25
TORSDOF 4
ENDMDL
MODEL 8
REMARK VINA RESULT:      -8.0      4.565      5.665
REMARK  4 active torsions:
REMARK  status: ('A' for Active; 'I' for Inactive)
REMARK    1  A    between atoms: C3_5  and  N1_6 
REMARK    2  A    between atoms: N1_6  and  C4_7 
REMARK    3  A    between atoms: C8_13  and  O1_14 
REMARK    4  A    between atoms: O1_14  and  C9_15 
ROOT
HETATM    1  C4  UNL     1      26.015   2.978  50.485  1.00  0.00     0.145 A 
HETATM    2  N2  UNL     1      27.097   2.826  51.284  1.00  0.00    -0.223 NA
HETATM    3  C5  UNL     1      27.043   2.057  52.404  1.00  0.00     0.236 A 
HETATM    4  N3  UNL     1      25.891   1.432  52.721  1.00  0.00    -0.241 NA
HETATM    5  C6  UNL     1      24.784   1.553  51.955  1.00  0.00     0.077 A 
HETATM    6  C7  UNL     1      23.578   0.918  52.277  1.00  0.00     0.072 A 
HETATM    7  C8  UNL     1      22.439   1.060  51.478  1.00  0.00     0.107 A 
HETATM    8  C13 UNL     1      22.580   1.856  50.367  1.00  0.00     0.136 A 
HETATM    9  C14 UNL     1      23.743   2.495  50.018  1.00  0.00     0.121 A 
HETATM   10  C15 UNL     1      24.846   2.337  50.820  1.00  0.00     0.075 A 
HETATM   11  O3  UNL     1      23.714   3.251  48.881  1.00  0.00    -0.345 OA
HETATM   12  C16 UNL     1      22.679   3.338  47.950  1.00  0.00     0.202 C 
HETATM   13  C17 UNL     1      21.667   2.233  48.157  1.00  0.00     0.202 C 
HETATM   14  O4  UNL     1      21.494   2.017  49.564  1.00  0.00    -0.344 OA
ENDROOT
BRANCH   1  15
HETATM   15  N1  UNL     1      26.160   3.778  49.336  1.00  0.00    -0.339 N 
HETATM   16  H2  UNL     1      25.754   3.651  48.357  1.00  0.00     0.167 HD
BRANCH  15  17
HETATM   17  C3  UNL     1      26.846   4.966  48.977  1.00  0.00     0.048 A 
HETATM   18  P1  UNL     1      26.075   6.534  49.125  1.00  0.00    -0.000 P 
HETATM   19  C2  UNL     1      27.131   7.847  48.640  1.00  0.00     0.062 A 
HETATM   20  C1  UNL     1      28.414   7.507  48.208  1.00  0.00     0.139 A 
HETATM   21  F1  UNL     1      29.173   8.563  47.848  1.00  0.00    -0.204 F 
HETATM   22  C19 UNL     1      28.803   6.189  48.177  1.00  0.00     0.074 A 
HETATM   23  C18 UNL     1      28.145   5.041  48.506  1.00  0.00     0.057 A 
HETATM   24 CL1  UNL     1      30.472   6.009  47.599  1.00  0.00    -0.081 Cl
ENDBRANCH  15  17
ENDBRANCH   1  15
BRANCH   7  25
HETATM   25  O1  UNL     1      21.368   0.358  51.963  1.00  0.00    -0.341 OA
BRANCH  25  26
HETATM   26  C9  UNL     1      20.216   0.831  52.584  1.00  0.00     0.154 C 
HETATM   27  C10 UNL     1      18.963   0.577  51.796  1.00  0.00     0.061 C 
HETATM   28  C11 UNL     1      18.570   1.944  51.314  1.00  0.00     0.170 C 
HETATM   29  O2  UNL     1      19.018   2.838  52.290  1.00  0.00    -0.389 OA
HETATM   30  C12 UNL     1      20.232   2.339  52.726  1.00  0.00     0.200 C 
ENDBRANCH  25  26
ENDBRANCH   7  25
TORSDOF 4
ENDMDL
MODEL 9
REMARK VINA RESULT:      -7.9      4.681      6.095
REMARK  4 active torsions:
REMARK  status: ('A' for Active; 'I' for Inactive)
REMARK    1  A    between atoms: C3_5  and  N1_6 
REMARK    2  A    between atoms: N1_6  and  C4_7 
REMARK    3  A    between atoms: C8_13  and  O1_14 
REMARK    4  A    between atoms: O1_14  and  C9_15 
ROOT
HETATM    1  C4  UNL     1      26.041   3.220  50.579  1.00  0.00     0.145 A 
HETATM    2  N2  UNL     1      27.187   2.865  51.207  1.00  0.00    -0.223 NA
HETATM    3  C5  UNL     1      27.162   2.179  52.380  1.00  0.00     0.236 A 
HETATM    4  N3  UNL     1      25.975   1.844  52.925  1.00  0.00    -0.241 NA
HETATM    5  C6  UNL     1      24.805   2.176  52.337  1.00  0.00     0.077 A 
HETATM    6  C7  UNL     1      23.565   1.844  52.895  1.00  0.00     0.072 A 
HETATM    7  C8  UNL     1      22.362   2.202  52.278  1.00  0.00     0.107 A 
HETATM    8  C13 UNL     1      22.477   2.896  51.097  1.00  0.00     0.136 A 
HETATM    9  C14 UNL     1      23.673   3.240  50.518  1.00  0.00     0.121 A 
HETATM   10  C15 UNL     1      24.837   2.875  51.146  1.00  0.00     0.075 A 
HETATM   11  O3  UNL     1      23.611   3.932  49.341  1.00  0.00    -0.345 OA
HETATM   12  C16 UNL     1      22.474   4.208  48.581  1.00  0.00     0.202 C 
HETATM   13  C17 UNL     1      21.301   3.370  49.035  1.00  0.00     0.202 C 
HETATM   14  O4  UNL     1      21.330   3.261  50.465  1.00  0.00    -0.344 OA
ENDROOT
BRANCH   1  15
HETATM   15  N1  UNL     1      26.154   3.915  49.360  1.00  0.00    -0.339 N 
HETATM   16  H2  UNL     1      25.667   3.744  48.426  1.00  0.00     0.167 HD
BRANCH  15  17
HETATM   17  C3  UNL     1      26.892   5.017  48.856  1.00  0.00     0.048 A 
HETATM   18  P1  UNL     1      26.141   6.587  48.644  1.00  0.00    -0.000 P 
HETATM   19  C2  UNL     1      27.261   7.786  48.029  1.00  0.00     0.062 A 
HETATM   20  C1  UNL     1      28.572   7.370  47.788  1.00  0.00     0.139 A 
HETATM   21  F1  UNL     1      29.381   8.342  47.314  1.00  0.00    -0.204 F 
HETATM   22  C19 UNL     1      28.937   6.069  48.033  1.00  0.00     0.074 A 
HETATM   23  C18 UNL     1      28.230   5.001  48.503  1.00  0.00     0.057 A 
HETATM   24 CL1  UNL     1      30.648   5.783  47.656  1.00  0.00    -0.081 Cl
ENDBRANCH  15  17
ENDBRANCH   1  15
BRANCH   7  25
HETATM   25  O1  UNL     1      21.265   1.782  52.981  1.00  0.00    -0.341 OA
BRANCH  25  26
HETATM   26  C9  UNL     1      20.818   0.487  53.222  1.00  0.00     0.154 C 
HETATM   27  C10 UNL     1      20.824   0.112  54.676  1.00  0.00     0.061 C 
HETATM   28  C11 UNL     1      21.951  -0.876  54.777  1.00  0.00     0.170 C 
HETATM   29  O2  UNL     1      22.009  -1.521  53.540  1.00  0.00    -0.389 OA
HETATM   30  C12 UNL     1      21.731  -0.548  52.597  1.00  0.00     0.200 C 
ENDBRANCH  25  26
ENDBRANCH   7  25
TORSDOF 4
ENDMDL
