MODEL 1
REMARK VINA RESULT:      -6.8      0.000      0.000
REMARK  1 active torsions:
REMARK  status: ('A' for Active; 'I' for Inactive)
REMARK    1  A    between atoms: C4_4  and  N1_5 
ROOT
HETATM    1  C1  UNL     1      22.345   4.642  46.898  1.00  0.00     0.042 C 
HETATM    2  C2  UNL     1      22.409   4.094  48.086  1.00  0.00     0.021 A 
HETATM    3  C3  UNL     1      21.889   4.730  49.291  1.00  0.00     0.056 A 
HETATM    4  C4  UNL     1      22.124   3.898  50.294  1.00  0.00     0.046 A 
HETATM    5  C7  UNL     1      22.812   2.625  49.927  1.00  0.00     0.125 A 
HETATM    6  N2  UNL     1      22.957   2.840  48.478  1.00  0.00    -0.368 N 
HETATM    7  C8  UNL     1      24.126   2.505  50.581  1.00  0.00    -0.007 C 
HETATM    8  C9  UNL     1      24.980   3.281  49.891  1.00  0.00     0.024 C 
HETATM    9  C10 UNL     1      24.867   1.882  51.671  1.00  0.00     0.070 C 
HETATM   10  C11 UNL     1      26.258   2.228  51.721  1.00  0.00     0.101 C 
HETATM   11  N3  UNL     1      27.395   2.492  51.775  1.00  0.00    -0.191 NA
HETATM   12  C12 UNL     1      24.439   1.055  52.608  1.00  0.00     0.139 C 
HETATM   13  N4  UNL     1      23.196   0.454  52.949  1.00  0.00    -0.272 NA
HETATM   14  C13 UNL     1      22.091   0.232  52.324  1.00  0.00     0.116 C 
HETATM   15  C14 UNL     1      21.624   0.514  50.950  1.00  0.00     0.025 C 
HETATM   16  C15 UNL     1      21.938   1.455  50.068  1.00  0.00    -0.044 C 
HETATM   17  C16 UNL     1      21.090   1.162  48.857  1.00  0.00     0.047 C 
HETATM   18  H10 UNL     1      23.392   2.193  47.795  1.00  0.00     0.161 HD
ENDROOT
BRANCH   4  19
HETATM   19  N1  UNL     1      21.822   4.027  51.679  1.00  0.00    -0.390 N 
HETATM   20  C5  UNL     1      20.653   3.518  52.413  1.00  0.00     0.149 C 
HETATM   21  C6  UNL     1      22.767   4.753  52.527  1.00  0.00     0.149 C 
ENDBRANCH   4  19
TORSDOF 1
ENDMDL
MODEL 2
REMARK VINA RESULT:      -6.6      6.690      8.948
REMARK  1 active torsions:
REMARK  status: ('A' for Active; 'I' for Inactive)
REMARK    1  A    between atoms: C4_4  and  N1_5 
ROOT
HETATM    1  C1  UNL     1      24.773   6.475  48.991  1.00  0.00     0.042 C 
HETATM    2  C2  UNL     1      25.927   6.981  48.634  1.00  0.00     0.021 A 
HETATM    3  C3  UNL     1      26.155   7.625  47.346  1.00  0.00     0.056 A 
HETATM    4  C4  UNL     1      27.421   8.012  47.331  1.00  0.00     0.046 A 
HETATM    5  C7  UNL     1      28.206   7.697  48.561  1.00  0.00     0.125 A 
HETATM    6  N2  UNL     1      27.157   7.029  49.350  1.00  0.00    -0.368 N 
HETATM    7  C8  UNL     1      29.322   6.781  48.279  1.00  0.00    -0.007 C 
HETATM    8  C9  UNL     1      28.801   5.546  48.175  1.00  0.00     0.024 C 
HETATM    9  C10 UNL     1      30.762   6.678  48.069  1.00  0.00     0.070 C 
HETATM   10  C11 UNL     1      31.237   5.345  47.831  1.00  0.00     0.101 C 
HETATM   11  N3  UNL     1      31.644   4.267  47.641  1.00  0.00    -0.191 NA
HETATM   12  C12 UNL     1      31.677   7.630  48.067  1.00  0.00     0.139 C 
HETATM   13  N4  UNL     1      31.683   9.040  48.250  1.00  0.00    -0.272 NA
HETATM   14  C13 UNL     1      30.874   9.893  48.781  1.00  0.00     0.116 C 
HETATM   15  C14 UNL     1      29.560   9.771  49.445  1.00  0.00     0.025 C 
HETATM   16  C15 UNL     1      28.565   8.900  49.321  1.00  0.00    -0.044 C 
HETATM   17  C16 UNL     1      27.513   9.357  50.298  1.00  0.00     0.047 C 
HETATM   18  H10 UNL     1      27.254   6.633  50.303  1.00  0.00     0.161 HD
ENDROOT
BRANCH   4  19
HETATM   19  N1  UNL     1      28.159   8.687  46.318  1.00  0.00    -0.390 N 
HETATM   20  C5  UNL     1      29.098   8.120  45.337  1.00  0.00     0.149 C 
HETATM   21  C6  UNL     1      27.999  10.136  46.196  1.00  0.00     0.149 C 
ENDBRANCH   4  19
TORSDOF 1
ENDMDL
MODEL 3
REMARK VINA RESULT:      -6.5      1.602      2.363
REMARK  1 active torsions:
REMARK  status: ('A' for Active; 'I' for Inactive)
REMARK    1  A    between atoms: C4_4  and  N1_5 
ROOT
HETATM    1  C1  UNL     1      26.557   5.418  48.692  1.00  0.00     0.042 C 
HETATM    2  C2  UNL     1      25.732   4.752  49.461  1.00  0.00     0.021 A 
HETATM    3  C3  UNL     1      24.923   5.380  50.500  1.00  0.00     0.056 A 
HETATM    4  C4  UNL     1      24.218   4.415  51.070  1.00  0.00     0.046 A 
HETATM    5  C7  UNL     1      24.440   3.045  50.521  1.00  0.00     0.125 A 
HETATM    6  N2  UNL     1      25.436   3.360  49.483  1.00  0.00    -0.368 N 
HETATM    7  C8  UNL     1      24.997   2.133  51.533  1.00  0.00    -0.007 C 
HETATM    8  C9  UNL     1      26.308   2.412  51.635  1.00  0.00     0.024 C 
HETATM    9  C10 UNL     1      24.696   1.052  52.465  1.00  0.00     0.070 C 
HETATM   10  C11 UNL     1      25.825   0.573  53.208  1.00  0.00     0.101 C 
HETATM   11  N3  UNL     1      26.734   0.165  53.818  1.00  0.00    -0.191 NA
HETATM   12  C12 UNL     1      23.541   0.461  52.716  1.00  0.00     0.139 C 
HETATM   13  N4  UNL     1      22.205   0.591  52.246  1.00  0.00    -0.272 NA
HETATM   14  C13 UNL     1      21.654   1.103  51.199  1.00  0.00     0.116 C 
HETATM   15  C14 UNL     1      22.184   1.795  50.006  1.00  0.00     0.025 C 
HETATM   16  C15 UNL     1      23.268   2.533  49.800  1.00  0.00    -0.044 C 
HETATM   17  C16 UNL     1      23.206   2.934  48.348  1.00  0.00     0.047 C 
HETATM   18  H10 UNL     1      25.888   2.692  48.833  1.00  0.00     0.161 HD
ENDROOT
BRANCH   4  19
HETATM   19  N1  UNL     1      23.274   4.478  52.132  1.00  0.00    -0.390 N 
HETATM   20  C5  UNL     1      21.811   4.616  52.052  1.00  0.00     0.149 C 
HETATM   21  C6  UNL     1      23.773   4.400  53.505  1.00  0.00     0.149 C 
ENDBRANCH   4  19
TORSDOF 1
ENDMDL
MODEL 4
REMARK VINA RESULT:      -6.4      9.844     12.467
REMARK  1 active torsions:
REMARK  status: ('A' for Active; 'I' for Inactive)
REMARK    1  A    between atoms: C4_4  and  N1_5 
ROOT
HETATM    1  C1  UNL     1      32.394   2.213  46.731  1.00  0.00     0.042 C 
HETATM    2  C2  UNL     1      32.627   3.493  46.882  1.00  0.00     0.021 A 
HETATM    3  C3  UNL     1      31.659   4.421  47.455  1.00  0.00     0.056 A 
HETATM    4  C4  UNL     1      32.228   5.616  47.453  1.00  0.00     0.046 A 
HETATM    5  C7  UNL     1      33.613   5.669  46.897  1.00  0.00     0.125 A 
HETATM    6  N2  UNL     1      33.788   4.248  46.553  1.00  0.00    -0.368 N 
HETATM    7  C8  UNL     1      33.690   6.520  45.698  1.00  0.00    -0.007 C 
HETATM    8  C9  UNL     1      33.200   5.800  44.674  1.00  0.00     0.024 C 
HETATM    9  C10 UNL     1      34.084   7.825  45.181  1.00  0.00     0.070 C 
HETATM   10  C11 UNL     1      33.873   7.997  43.772  1.00  0.00     0.101 C 
HETATM   11  N3  UNL     1      33.715   8.154  42.625  1.00  0.00    -0.191 NA
HETATM   12  C12 UNL     1      34.602   8.857  45.822  1.00  0.00     0.139 C 
HETATM   13  N4  UNL     1      34.973   9.143  47.164  1.00  0.00    -0.272 NA
HETATM   14  C13 UNL     1      35.239   8.432  48.206  1.00  0.00     0.116 C 
HETATM   15  C14 UNL     1      35.271   6.978  48.464  1.00  0.00     0.025 C 
HETATM   16  C15 UNL     1      34.619   5.953  47.927  1.00  0.00    -0.044 C 
HETATM   17  C16 UNL     1      35.126   4.734  48.654  1.00  0.00     0.047 C 
HETATM   18  H10 UNL     1      34.626   3.811  46.128  1.00  0.00     0.161 HD
ENDROOT
BRANCH   4  19
HETATM   19  N1  UNL     1      31.724   6.870  47.899  1.00  0.00    -0.390 N 
HETATM   20  C5  UNL     1      31.144   7.961  47.101  1.00  0.00     0.149 C 
HETATM   21  C6  UNL     1      31.766   7.160  49.332  1.00  0.00     0.149 C 
ENDBRANCH   4  19
TORSDOF 1
ENDMDL
MODEL 5
REMARK VINA RESULT:      -6.1      1.500      2.823
REMARK  1 active torsions:
REMARK  status: ('A' for Active; 'I' for Inactive)
REMARK    1  A    between atoms: C4_4  and  N1_5 
ROOT
HETATM    1  C1  UNL     1      25.999   4.727  49.331  1.00  0.00     0.042 C 
HETATM    2  C2  UNL     1      24.876   4.181  49.729  1.00  0.00     0.021 A 
HETATM    3  C3  UNL     1      23.836   4.916  50.440  1.00  0.00     0.056 A 
HETATM    4  C4  UNL     1      22.858   4.056  50.680  1.00  0.00     0.046 A 
HETATM    5  C7  UNL     1      23.086   2.666  50.185  1.00  0.00     0.125 A 
HETATM    6  N2  UNL     1      24.418   2.841  49.582  1.00  0.00    -0.368 N 
HETATM    7  C8  UNL     1      23.125   1.692  51.287  1.00  0.00    -0.007 C 
HETATM    8  C9  UNL     1      24.338   1.793  51.858  1.00  0.00     0.024 C 
HETATM    9  C10 UNL     1      22.377   0.664  52.003  1.00  0.00     0.070 C 
HETATM   10  C11 UNL     1      23.097   0.040  53.076  1.00  0.00     0.101 C 
HETATM   11  N3  UNL     1      23.669  -0.484  53.949  1.00  0.00    -0.191 NA
HETATM   12  C12 UNL     1      21.145   0.235  51.803  1.00  0.00     0.139 C 
HETATM   13  N4  UNL     1      20.092   0.540  50.897  1.00  0.00    -0.272 NA
HETATM   14  C13 UNL     1      20.020   1.118  49.747  1.00  0.00     0.116 C 
HETATM   15  C14 UNL     1      21.023   1.728  48.850  1.00  0.00     0.025 C 
HETATM   16  C15 UNL     1      22.194   2.314  49.074  1.00  0.00    -0.044 C 
HETATM   17  C16 UNL     1      22.704   2.714  47.714  1.00  0.00     0.047 C 
HETATM   18  H10 UNL     1      24.984   2.116  49.105  1.00  0.00     0.161 HD
ENDROOT
BRANCH   4  19
HETATM   19  N1  UNL     1      21.613   4.249  51.342  1.00  0.00    -0.390 N 
HETATM   20  C5  UNL     1      21.223   3.837  52.699  1.00  0.00     0.149 C 
HETATM   21  C6  UNL     1      20.547   4.944  50.619  1.00  0.00     0.149 C 
ENDBRANCH   4  19
TORSDOF 1
ENDMDL
MODEL 6
REMARK VINA RESULT:      -6.1      9.112     11.497
REMARK  1 active torsions:
REMARK  status: ('A' for Active; 'I' for Inactive)
REMARK    1  A    between atoms: C4_4  and  N1_5 
ROOT
HETATM    1  C1  UNL     1      27.411   9.253  50.329  1.00  0.00     0.042 C 
HETATM    2  C2  UNL     1      28.416   9.344  49.494  1.00  0.00     0.021 A 
HETATM    3  C3  UNL     1      28.285   9.136  48.057  1.00  0.00     0.056 A 
HETATM    4  C4  UNL     1      29.489   9.306  47.534  1.00  0.00     0.046 A 
HETATM    5  C7  UNL     1      30.572   9.640  48.507  1.00  0.00     0.125 A 
HETATM    6  N2  UNL     1      29.784   9.644  49.751  1.00  0.00    -0.368 N 
HETATM    7  C8  UNL     1      31.616   8.603  48.542  1.00  0.00    -0.007 C 
HETATM    8  C9  UNL     1      31.135   7.585  49.276  1.00  0.00     0.024 C 
HETATM    9  C10 UNL     1      32.958   8.242  48.100  1.00  0.00     0.070 C 
HETATM   10  C11 UNL     1      33.410   6.958  48.553  1.00  0.00     0.101 C 
HETATM   11  N3  UNL     1      33.798   5.918  48.917  1.00  0.00    -0.191 NA
HETATM   12  C12 UNL     1      33.805   8.925  47.351  1.00  0.00     0.139 C 
HETATM   13  N4  UNL     1      33.801  10.189  46.699  1.00  0.00    -0.272 NA
HETATM   14  C13 UNL     1      33.120  11.276  46.826  1.00  0.00     0.116 C 
HETATM   15  C14 UNL     1      32.022  11.690  47.725  1.00  0.00     0.025 C 
HETATM   16  C15 UNL     1      31.064  11.013  48.347  1.00  0.00    -0.044 C 
HETATM   17  C16 UNL     1      30.276  12.049  49.108  1.00  0.00     0.047 C 
HETATM   18  H10 UNL     1      30.135   9.834  50.707  1.00  0.00     0.161 HD
ENDROOT
BRANCH   4  19
HETATM   19  N1  UNL     1      29.920   9.219  46.181  1.00  0.00    -0.390 N 
HETATM   20  C5  UNL     1      30.563   8.087  45.494  1.00  0.00     0.149 C 
HETATM   21  C6  UNL     1      29.719  10.382  45.316  1.00  0.00     0.149 C 
ENDBRANCH   4  19
TORSDOF 1
ENDMDL
MODEL 7
REMARK VINA RESULT:      -6.0      1.528      4.446
REMARK  1 active torsions:
REMARK  status: ('A' for Active; 'I' for Inactive)
REMARK    1  A    between atoms: C4_4  and  N1_5 
ROOT
HETATM    1  C1  UNL     1      19.937  -0.361  52.991  1.00  0.00     0.042 C 
HETATM    2  C2  UNL     1      20.806   0.517  52.555  1.00  0.00     0.021 A 
HETATM    3  C3  UNL     1      20.810   1.915  52.971  1.00  0.00     0.056 A 
HETATM    4  C4  UNL     1      21.814   2.499  52.337  1.00  0.00     0.046 A 
HETATM    5  C7  UNL     1      22.606   1.615  51.431  1.00  0.00     0.125 A 
HETATM    6  N2  UNL     1      21.880   0.350  51.636  1.00  0.00    -0.368 N 
HETATM    7  C8  UNL     1      22.523   2.054  50.028  1.00  0.00    -0.007 C 
HETATM    8  C9  UNL     1      21.335   1.640  49.556  1.00  0.00     0.024 C 
HETATM    9  C10 UNL     1      23.214   2.754  48.951  1.00  0.00     0.070 C 
HETATM   10  C11 UNL     1      22.490   2.808  47.714  1.00  0.00     0.101 C 
HETATM   11  N3  UNL     1      21.918   2.858  46.696  1.00  0.00    -0.191 NA
HETATM   12  C12 UNL     1      24.398   3.338  48.958  1.00  0.00     0.139 C 
HETATM   13  N4  UNL     1      25.435   3.533  49.911  1.00  0.00    -0.272 NA
HETATM   14  C13 UNL     1      25.766   2.972  51.024  1.00  0.00     0.116 C 
HETATM   15  C14 UNL     1      25.197   1.857  51.809  1.00  0.00     0.025 C 
HETATM   16  C15 UNL     1      23.965   1.376  51.929  1.00  0.00    -0.044 C 
HETATM   17  C16 UNL     1      24.081   0.225  52.896  1.00  0.00     0.047 C 
HETATM   18  H10 UNL     1      22.088  -0.563  51.194  1.00  0.00     0.161 HD
ENDROOT
BRANCH   4  19
HETATM   19  N1  UNL     1      22.262   3.849  52.382  1.00  0.00    -0.390 N 
HETATM   20  C5  UNL     1      23.383   4.418  53.146  1.00  0.00     0.149 C 
HETATM   21  C6  UNL     1      21.546   4.841  51.579  1.00  0.00     0.149 C 
ENDBRANCH   4  19
TORSDOF 1
ENDMDL
MODEL 8
REMARK VINA RESULT:      -6.0      1.683      4.815
REMARK  1 active torsions:
REMARK  status: ('A' for Active; 'I' for Inactive)
REMARK    1  A    between atoms: C4_4  and  N1_5 
ROOT
HETATM    1  C1  UNL     1      26.210   1.271  53.936  1.00  0.00     0.042 C 
HETATM    2  C2  UNL     1      25.373   1.880  53.133  1.00  0.00     0.021 A 
HETATM    3  C3  UNL     1      24.731   3.149  53.457  1.00  0.00     0.056 A 
HETATM    4  C4  UNL     1      23.961   3.461  52.426  1.00  0.00     0.046 A 
HETATM    5  C7  UNL     1      23.969   2.485  51.297  1.00  0.00     0.125 A 
HETATM    6  N2  UNL     1      24.911   1.494  51.843  1.00  0.00    -0.368 N 
HETATM    7  C8  UNL     1      22.640   1.890  51.077  1.00  0.00    -0.007 C 
HETATM    8  C9  UNL     1      22.471   0.948  52.021  1.00  0.00     0.024 C 
HETATM    9  C10 UNL     1      21.441   1.915  50.248  1.00  0.00     0.070 C 
HETATM   10  C11 UNL     1      20.437   0.961  50.622  1.00  0.00     0.101 C 
HETATM   11  N3  UNL     1      19.610   0.187  50.908  1.00  0.00    -0.191 NA
HETATM   12  C12 UNL     1      21.155   2.684  49.213  1.00  0.00     0.139 C 
HETATM   13  N4  UNL     1      21.811   3.729  48.506  1.00  0.00    -0.272 NA
HETATM   14  C13 UNL     1      23.033   4.124  48.393  1.00  0.00     0.116 C 
HETATM   15  C14 UNL     1      24.312   3.653  48.965  1.00  0.00     0.025 C 
HETATM   16  C15 UNL     1      24.616   3.024  50.095  1.00  0.00    -0.044 C 
HETATM   17  C16 UNL     1      26.111   2.841  50.057  1.00  0.00     0.047 C 
HETATM   18  H10 UNL     1      25.226   0.619  51.385  1.00  0.00     0.161 HD
ENDROOT
BRANCH   4  19
HETATM   19  N1  UNL     1      23.119   4.590  52.223  1.00  0.00    -0.390 N 
HETATM   20  C5  UNL     1      21.658   4.682  52.369  1.00  0.00     0.149 C 
HETATM   21  C6  UNL     1      23.740   5.850  51.814  1.00  0.00     0.149 C 
ENDBRANCH   4  19
TORSDOF 1
ENDMDL
MODEL 9
REMARK VINA RESULT:      -5.9      1.760      5.164
REMARK  1 active torsions:
REMARK  status: ('A' for Active; 'I' for Inactive)
REMARK    1  A    between atoms: C4_4  and  N1_5 
ROOT
HETATM    1  C1  UNL     1      24.807   0.559  53.061  1.00  0.00     0.042 C 
HETATM    2  C2  UNL     1      24.511   1.615  52.345  1.00  0.00     0.021 A 
HETATM    3  C3  UNL     1      23.958   2.839  52.914  1.00  0.00     0.056 A 
HETATM    4  C4  UNL     1      23.788   3.683  51.909  1.00  0.00     0.046 A 
HETATM    5  C7  UNL     1      24.184   3.173  50.563  1.00  0.00     0.125 A 
HETATM    6  N2  UNL     1      24.641   1.825  50.943  1.00  0.00    -0.368 N 
HETATM    7  C8  UNL     1      23.038   3.105  49.643  1.00  0.00    -0.007 C 
HETATM    8  C9  UNL     1      22.339   2.002  49.966  1.00  0.00     0.024 C 
HETATM    9  C10 UNL     1      22.360   3.753  48.526  1.00  0.00     0.070 C 
HETATM   10  C11 UNL     1      21.184   3.073  48.066  1.00  0.00     0.101 C 
HETATM   11  N3  UNL     1      20.226   2.531  47.673  1.00  0.00    -0.191 NA
HETATM   12  C12 UNL     1      22.676   4.866  47.888  1.00  0.00     0.139 C 
HETATM   13  N4  UNL     1      23.708   5.839  47.983  1.00  0.00    -0.272 NA
HETATM   14  C13 UNL     1      24.887   5.868  48.505  1.00  0.00     0.116 C 
HETATM   15  C14 UNL     1      25.694   4.879  49.250  1.00  0.00     0.025 C 
HETATM   16  C15 UNL     1      25.369   3.856  50.032  1.00  0.00    -0.044 C 
HETATM   17  C16 UNL     1      26.682   3.260  50.471  1.00  0.00     0.047 C 
HETATM   18  H10 UNL     1      25.016   1.095  50.311  1.00  0.00     0.161 HD
ENDROOT
BRANCH   4  19
HETATM   19  N1  UNL     1      23.281   5.013  51.908  1.00  0.00    -0.390 N 
HETATM   20  C5  UNL     1      24.029   6.280  51.888  1.00  0.00     0.149 C 
HETATM   21  C6  UNL     1      21.829   5.199  51.929  1.00  0.00     0.149 C 
ENDBRANCH   4  19
TORSDOF 1
ENDMDL
