MODEL 1
REMARK VINA RESULT:      -8.1      0.000      0.000
REMARK  6 active torsions:
REMARK  status: ('A' for Active; 'I' for Inactive)
REMARK    1  A    between atoms: O1_2  and  C2_3 
REMARK    2  A    between atoms: C6_7  and  N1_8 
REMARK    3  A    between atoms: N1_8  and  C7_9 
REMARK    4  A    between atoms: C14_18  and  C15_19 
REMARK    5  A    between atoms: C15_19  and  C16_21 
REMARK    6  A    between atoms: C17_22  and  C18_23 
ROOT
HETATM    1  C2  UNL     1      26.479   5.633  48.909  1.00  0.00     0.091 C 
HETATM    2  C3  UNL     1      25.227   5.825  49.275  1.00  0.00     0.043 C 
HETATM    3  C4  UNL     1      24.225   4.650  48.875  1.00  0.00     0.101 C 
HETATM    4  C5  UNL     1      24.879   4.111  50.186  1.00  0.00    -0.014 C 
HETATM    5  C6  UNL     1      24.276   4.581  51.256  1.00  0.00     0.035 C 
HETATM    6  C13 UNL     1      23.638   5.965  51.087  1.00  0.00     0.177 C 
HETATM    7  N2  UNL     1      24.576   6.719  50.159  1.00  0.00    -0.385 N 
HETATM    8  C14 UNL     1      26.162   3.462  50.031  1.00  0.00     0.025 C 
HETATM    9  C21 UNL     1      27.065   4.251  49.326  1.00  0.00     0.054 C 
HETATM   10  H13 UNL     1      25.053   7.625  49.802  1.00  0.00     0.159 HD
ENDROOT
BRANCH   5  11
HETATM   11  N1  UNL     1      24.478   3.618  52.292  1.00  0.00    -0.358 N 
HETATM   12  H6  UNL     1      25.307   3.396  52.861  1.00  0.00     0.166 HD
BRANCH  11  13
HETATM   13  C7  UNL     1      23.186   3.028  52.410  1.00  0.00     0.033 A 
HETATM   14  C8  UNL     1      21.892   3.351  52.117  1.00  0.00     0.029 A 
HETATM   15  C9  UNL     1      20.894   2.442  52.397  1.00  0.00     0.004 A 
HETATM   16  C10 UNL     1      21.144   1.191  52.975  1.00  0.00     0.019 A 
HETATM   17  C11 UNL     1      22.464   0.866  53.274  1.00  0.00     0.013 A 
HETATM   18 BR1  UNL     1      22.681  -0.871  54.052  1.00  0.00    -0.051 Br
HETATM   19  C12 UNL     1      23.472   1.782  52.990  1.00  0.00     0.048 A 
ENDBRANCH  11  13
ENDBRANCH   5  11
BRANCH   8  20
HETATM   20  C15 UNL     1      26.325   2.260  50.695  1.00  0.00     0.182 C 
HETATM   21  O2  UNL     1      27.276   2.769  51.396  1.00  0.00    -0.288 OA
BRANCH  20  22
HETATM   22  C16 UNL     1      26.484   1.013  51.374  1.00  0.00     0.052 C 
HETATM   23  C17 UNL     1      27.155   1.031  52.513  1.00  0.00    -0.019 C 
BRANCH  23  24
HETATM   24  C18 UNL     1      27.362  -0.213  53.288  1.00  0.00    -0.000 C 
HETATM   25  C19 UNL     1      26.721  -1.441  52.736  1.00  0.00     0.013 C 
HETATM   26  C20 UNL     1      28.865  -0.521  53.476  1.00  0.00     0.013 C 
ENDBRANCH  23  24
ENDBRANCH  20  22
ENDBRANCH   8  20
BRANCH   1  27
HETATM   27  O1  UNL     1      27.009   6.644  48.267  1.00  0.00    -0.354 OA
HETATM   28  C1  UNL     1      27.674   7.811  48.520  1.00  0.00     0.210 C 
ENDBRANCH   1  27
TORSDOF 6
ENDMDL
MODEL 2
REMARK VINA RESULT:      -7.8      3.445      6.260
REMARK  6 active torsions:
REMARK  status: ('A' for Active; 'I' for Inactive)
REMARK    1  A    between atoms: O1_2  and  C2_3 
REMARK    2  A    between atoms: C6_7  and  N1_8 
REMARK    3  A    between atoms: N1_8  and  C7_9 
REMARK    4  A    between atoms: C14_18  and  C15_19 
REMARK    5  A    between atoms: C15_19  and  C16_21 
REMARK    6  A    between atoms: C17_22  and  C18_23 
ROOT
HETATM    1  C2  UNL     1      27.100  -0.172  54.022  1.00  0.00     0.091 C 
HETATM    2  C3  UNL     1      27.219   0.491  52.888  1.00  0.00     0.043 C 
HETATM    3  C4  UNL     1      26.376  -0.105  51.673  1.00  0.00     0.101 C 
HETATM    4  C5  UNL     1      25.314   0.739  52.445  1.00  0.00    -0.014 C 
HETATM    5  C6  UNL     1      25.360   2.008  52.100  1.00  0.00     0.035 C 
HETATM    6  C13 UNL     1      26.739   2.509  51.653  1.00  0.00     0.177 C 
HETATM    7  N2  UNL     1      27.731   1.761  52.528  1.00  0.00    -0.385 N 
HETATM    8  C14 UNL     1      24.691   0.089  53.576  1.00  0.00     0.025 C 
HETATM    9  C21 UNL     1      25.629  -0.438  54.458  1.00  0.00     0.054 C 
HETATM   10  H13 UNL     1      28.668   1.681  53.069  1.00  0.00     0.159 HD
ENDROOT
BRANCH   5  11
HETATM   11  N1  UNL     1      24.053   2.538  52.324  1.00  0.00    -0.358 N 
HETATM   12  H6  UNL     1      23.586   2.851  53.187  1.00  0.00     0.166 HD
BRANCH  11  13
HETATM   13  C7  UNL     1      23.519   2.590  51.004  1.00  0.00     0.033 A 
HETATM   14  C8  UNL     1      22.789   1.789  50.172  1.00  0.00     0.029 A 
HETATM   15  C9  UNL     1      22.459   2.252  48.916  1.00  0.00     0.004 A 
HETATM   16  C10 UNL     1      22.842   3.515  48.444  1.00  0.00     0.019 A 
HETATM   17  C11 UNL     1      23.586   4.326  49.295  1.00  0.00     0.013 A 
HETATM   18 BR1  UNL     1      24.043   6.028  48.543  1.00  0.00    -0.051 Br
HETATM   19  C12 UNL     1      23.918   3.861  50.563  1.00  0.00     0.048 A 
ENDBRANCH  11  13
ENDBRANCH   5  11
BRANCH   8  20
HETATM   20  C15 UNL     1      23.315   0.201  53.666  1.00  0.00     0.182 C 
HETATM   21  O2  UNL     1      23.179  -0.960  53.129  1.00  0.00    -0.288 OA
BRANCH  20  22
HETATM   22  C16 UNL     1      21.896   0.328  53.764  1.00  0.00     0.052 C 
HETATM   23  C17 UNL     1      21.184  -0.069  52.723  1.00  0.00    -0.019 C 
BRANCH  23  24
HETATM   24  C18 UNL     1      19.707   0.019  52.740  1.00  0.00    -0.000 C 
HETATM   25  C19 UNL     1      19.047   0.183  51.413  1.00  0.00     0.013 C 
HETATM   26  C20 UNL     1      19.072  -1.214  53.423  1.00  0.00     0.013 C 
ENDBRANCH  23  24
ENDBRANCH  20  22
ENDBRANCH   8  20
BRANCH   1  27
HETATM   27  O1  UNL     1      28.243  -0.480  54.583  1.00  0.00    -0.354 OA
HETATM   28  C1  UNL     1      29.526  -0.799  54.237  1.00  0.00     0.210 C 
ENDBRANCH   1  27
TORSDOF 6
ENDMDL
MODEL 3
REMARK VINA RESULT:      -7.5      3.218      5.953
REMARK  6 active torsions:
REMARK  status: ('A' for Active; 'I' for Inactive)
REMARK    1  A    between atoms: O1_2  and  C2_3 
REMARK    2  A    between atoms: C6_7  and  N1_8 
REMARK    3  A    between atoms: N1_8  and  C7_9 
REMARK    4  A    between atoms: C14_18  and  C15_19 
REMARK    5  A    between atoms: C15_19  and  C16_21 
REMARK    6  A    between atoms: C17_22  and  C18_23 
ROOT
HETATM    1  C2  UNL     1      28.173   0.901  53.260  1.00  0.00     0.091 C 
HETATM    2  C3  UNL     1      27.359  -0.005  53.764  1.00  0.00     0.043 C 
HETATM    3  C4  UNL     1      26.311   0.556  54.828  1.00  0.00     0.101 C 
HETATM    4  C5  UNL     1      25.630   0.896  53.464  1.00  0.00    -0.014 C 
HETATM    5  C6  UNL     1      24.959  -0.130  52.989  1.00  0.00     0.035 C 
HETATM    6  C13 UNL     1      25.506  -1.506  53.390  1.00  0.00     0.177 C 
HETATM    7  N2  UNL     1      27.015  -1.335  53.420  1.00  0.00    -0.385 N 
HETATM    8  C14 UNL     1      26.074   2.115  52.824  1.00  0.00     0.025 C 
HETATM    9  C21 UNL     1      27.459   2.168  52.704  1.00  0.00     0.054 C 
HETATM   10  H13 UNL     1      28.028  -1.703  53.296  1.00  0.00     0.159 HD
ENDROOT
BRANCH   5  11
HETATM   11  N1  UNL     1      23.922   0.408  52.167  1.00  0.00    -0.358 N 
HETATM   12  H6  UNL     1      23.958   0.893  51.259  1.00  0.00     0.166 HD
BRANCH  11  13
HETATM   13  C7  UNL     1      22.748   0.064  52.898  1.00  0.00     0.033 A 
HETATM   14  C8  UNL     1      22.428  -0.402  54.141  1.00  0.00     0.029 A 
HETATM   15  C9  UNL     1      21.101  -0.597  54.462  1.00  0.00     0.004 A 
HETATM   16  C10 UNL     1      20.055  -0.339  53.566  1.00  0.00     0.019 A 
HETATM   17  C11 UNL     1      20.387   0.135  52.300  1.00  0.00     0.013 A 
HETATM   18 BR1  UNL     1      18.874   0.457  51.170  1.00  0.00    -0.051 Br
HETATM   19  C12 UNL     1      21.725   0.333  51.976  1.00  0.00     0.048 A 
ENDBRANCH  11  13
ENDBRANCH   5  11
BRANCH   8  20
HETATM   20  C15 UNL     1      25.083   2.945  52.334  1.00  0.00     0.182 C 
HETATM   21  O2  UNL     1      24.644   3.136  53.527  1.00  0.00    -0.288 OA
BRANCH  20  22
HETATM   22  C16 UNL     1      24.063   3.801  51.816  1.00  0.00     0.052 C 
HETATM   23  C17 UNL     1      22.992   3.984  52.570  1.00  0.00    -0.019 C 
BRANCH  23  24
HETATM   24  C18 UNL     1      21.889   4.860  52.117  1.00  0.00    -0.000 C 
HETATM   25  C19 UNL     1      22.256   5.912  51.126  1.00  0.00     0.013 C 
HETATM   26  C20 UNL     1      20.725   4.042  51.513  1.00  0.00     0.013 C 
ENDBRANCH  23  24
ENDBRANCH  20  22
ENDBRANCH   8  20
BRANCH   1  27
HETATM   27  O1  UNL     1      29.439   0.567  53.308  1.00  0.00    -0.354 OA
HETATM   28  C1  UNL     1      30.228  -0.502  53.630  1.00  0.00     0.210 C 
ENDBRANCH   1  27
TORSDOF 6
ENDMDL
MODEL 4
REMARK VINA RESULT:      -7.4      3.301      6.976
REMARK  6 active torsions:
REMARK  status: ('A' for Active; 'I' for Inactive)
REMARK    1  A    between atoms: O1_2  and  C2_3 
REMARK    2  A    between atoms: C6_7  and  N1_8 
REMARK    3  A    between atoms: N1_8  and  C7_9 
REMARK    4  A    between atoms: C14_18  and  C15_19 
REMARK    5  A    between atoms: C15_19  and  C16_21 
REMARK    6  A    between atoms: C17_22  and  C18_23 
ROOT
HETATM    1  C2  UNL     1      24.837  -0.620  54.592  1.00  0.00     0.091 C 
HETATM    2  C3  UNL     1      25.859   0.066  54.119  1.00  0.00     0.043 C 
HETATM    3  C4  UNL     1      26.179  -0.188  52.577  1.00  0.00     0.101 C 
HETATM    4  C5  UNL     1      25.018   0.855  52.518  1.00  0.00    -0.014 C 
HETATM    5  C6  UNL     1      25.465   2.085  52.652  1.00  0.00     0.035 C 
HETATM    6  C13 UNL     1      26.742   2.223  53.490  1.00  0.00     0.177 C 
HETATM    7  N2  UNL     1      26.613   1.173  54.580  1.00  0.00    -0.385 N 
HETATM    8  C14 UNL     1      23.680   0.317  52.629  1.00  0.00     0.025 C 
HETATM    9  C21 UNL     1      23.539  -0.507  53.740  1.00  0.00     0.054 C 
HETATM   10  H13 UNL     1      26.785   0.802  55.585  1.00  0.00     0.159 HD
ENDROOT
BRANCH   5  11
HETATM   11  N1  UNL     1      24.529   2.933  51.984  1.00  0.00    -0.358 N 
HETATM   12  H6  UNL     1      23.542   3.145  52.186  1.00  0.00     0.166 HD
BRANCH  11  13
HETATM   13  C7  UNL     1      25.321   3.494  50.942  1.00  0.00     0.033 A 
HETATM   14  C8  UNL     1      26.412   3.145  50.196  1.00  0.00     0.029 A 
HETATM   15  C9  UNL     1      26.872   4.018  49.233  1.00  0.00     0.004 A 
HETATM   16  C10 UNL     1      26.272   5.259  48.981  1.00  0.00     0.019 A 
HETATM   17  C11 UNL     1      25.162   5.610  49.744  1.00  0.00     0.013 A 
HETATM   18 BR1  UNL     1      24.426   7.323  49.303  1.00  0.00    -0.051 Br
HETATM   19  C12 UNL     1      24.696   4.729  50.714  1.00  0.00     0.048 A 
ENDBRANCH  11  13
ENDBRANCH   5  11
BRANCH   8  20
HETATM   20  C15 UNL     1      22.752   0.792  51.720  1.00  0.00     0.182 C 
HETATM   21  O2  UNL     1      22.053   1.284  52.681  1.00  0.00    -0.288 OA
BRANCH  20  22
HETATM   22  C16 UNL     1      21.800   1.278  50.772  1.00  0.00     0.052 C 
HETATM   23  C17 UNL     1      22.252   1.575  49.565  1.00  0.00    -0.019 C 
BRANCH  23  24
HETATM   24  C18 UNL     1      21.335   2.078  48.518  1.00  0.00    -0.000 C 
HETATM   25  C19 UNL     1      19.924   2.310  48.941  1.00  0.00     0.013 C 
HETATM   26  C20 UNL     1      21.853   3.393  47.893  1.00  0.00     0.013 C 
ENDBRANCH  23  24
ENDBRANCH  20  22
ENDBRANCH   8  20
BRANCH   1  27
HETATM   27  O1  UNL     1      25.097  -1.267  55.701  1.00  0.00    -0.354 OA
HETATM   28  C1  UNL     1      25.074  -1.075  57.054  1.00  0.00     0.210 C 
ENDBRANCH   1  27
TORSDOF 6
ENDMDL
MODEL 5
REMARK VINA RESULT:      -7.0      3.721      6.549
REMARK  6 active torsions:
REMARK  status: ('A' for Active; 'I' for Inactive)
REMARK    1  A    between atoms: O1_2  and  C2_3 
REMARK    2  A    between atoms: C6_7  and  N1_8 
REMARK    3  A    between atoms: N1_8  and  C7_9 
REMARK    4  A    between atoms: C14_18  and  C15_19 
REMARK    5  A    between atoms: C15_19  and  C16_21 
REMARK    6  A    between atoms: C17_22  and  C18_23 
ROOT
HETATM    1  C2  UNL     1      24.675   0.761  53.124  1.00  0.00     0.091 C 
HETATM    2  C3  UNL     1      24.575   1.937  52.538  1.00  0.00     0.043 C 
HETATM    3  C4  UNL     1      23.935   1.905  51.076  1.00  0.00     0.101 C 
HETATM    4  C5  UNL     1      22.677   1.882  52.001  1.00  0.00    -0.014 C 
HETATM    5  C6  UNL     1      22.334   3.093  52.382  1.00  0.00     0.035 C 
HETATM    6  C13 UNL     1      23.492   4.094  52.482  1.00  0.00     0.177 C 
HETATM    7  N2  UNL     1      24.674   3.280  52.978  1.00  0.00    -0.385 N 
HETATM    8  C14 UNL     1      22.295   0.585  52.514  1.00  0.00     0.025 C 
HETATM    9  C21 UNL     1      23.359  -0.071  53.123  1.00  0.00     0.054 C 
HETATM   10  H13 UNL     1      25.598   3.166  53.534  1.00  0.00     0.159 HD
ENDROOT
BRANCH   5  11
HETATM   11  N1  UNL     1      20.931   3.055  52.645  1.00  0.00    -0.358 N 
HETATM   12  H6  UNL     1      20.393   2.596  53.394  1.00  0.00     0.166 HD
BRANCH  11  13
HETATM   13  C7  UNL     1      20.407   3.881  51.609  1.00  0.00     0.033 A 
HETATM   14  C8  UNL     1      20.872   4.803  50.714  1.00  0.00     0.029 A 
HETATM   15  C9  UNL     1      19.986   5.387  49.833  1.00  0.00     0.004 A 
HETATM   16  C10 UNL     1      18.619   5.080  49.812  1.00  0.00     0.019 A 
HETATM   17  C11 UNL     1      18.150   4.142  50.726  1.00  0.00     0.013 A 
HETATM   18 BR1  UNL     1      16.270   3.801  50.596  1.00  0.00    -0.051 Br
HETATM   19  C12 UNL     1      19.044   3.551  51.614  1.00  0.00     0.048 A 
ENDBRANCH  11  13
ENDBRANCH   5  11
BRANCH   8  20
HETATM   20  C15 UNL     1      20.951   0.268  52.436  1.00  0.00     0.182 C 
HETATM   21  O2  UNL     1      20.897   0.151  53.716  1.00  0.00    -0.288 OA
BRANCH  20  22
HETATM   22  C16 UNL     1      19.563  -0.059  52.343  1.00  0.00     0.052 C 
HETATM   23  C17 UNL     1      19.077  -0.882  53.256  1.00  0.00    -0.019 C 
BRANCH  23  24
HETATM   24  C18 UNL     1      17.649  -1.270  53.242  1.00  0.00    -0.000 C 
HETATM   25  C19 UNL     1      16.889  -0.918  52.008  1.00  0.00     0.013 C 
HETATM   26  C20 UNL     1      17.469  -2.786  53.478  1.00  0.00     0.013 C 
ENDBRANCH  23  24
ENDBRANCH  20  22
ENDBRANCH   8  20
BRANCH   1  27
HETATM   27  O1  UNL     1      25.865   0.507  53.610  1.00  0.00    -0.354 OA
HETATM   28  C1  UNL     1      26.501   0.395  54.815  1.00  0.00     0.210 C 
ENDBRANCH   1  27
TORSDOF 6
ENDMDL
MODEL 6
REMARK VINA RESULT:      -6.9      2.967      4.157
REMARK  6 active torsions:
REMARK  status: ('A' for Active; 'I' for Inactive)
REMARK    1  A    between atoms: O1_2  and  C2_3 
REMARK    2  A    between atoms: C6_7  and  N1_8 
REMARK    3  A    between atoms: N1_8  and  C7_9 
REMARK    4  A    between atoms: C14_18  and  C15_19 
REMARK    5  A    between atoms: C15_19  and  C16_21 
REMARK    6  A    between atoms: C17_22  and  C18_23 
ROOT
HETATM    1  C2  UNL     1      24.941   3.993  49.557  1.00  0.00     0.091 C 
HETATM    2  C3  UNL     1      23.723   4.075  49.059  1.00  0.00     0.043 C 
HETATM    3  C4  UNL     1      23.081   2.680  48.627  1.00  0.00     0.101 C 
HETATM    4  C5  UNL     1      22.818   2.716  50.166  1.00  0.00    -0.014 C 
HETATM    5  C6  UNL     1      21.730   3.398  50.455  1.00  0.00     0.035 C 
HETATM    6  C13 UNL     1      21.386   4.520  49.468  1.00  0.00     0.177 C 
HETATM    7  N2  UNL     1      22.727   5.081  49.028  1.00  0.00    -0.385 N 
HETATM    8  C14 UNL     1      23.914   2.284  51.005  1.00  0.00     0.025 C 
HETATM    9  C21 UNL     1      25.098   2.944  50.697  1.00  0.00     0.054 C 
HETATM   10  H13 UNL     1      23.370   5.890  48.699  1.00  0.00     0.159 HD
ENDROOT
BRANCH   5  11
HETATM   11  N1  UNL     1      21.238   2.873  51.689  1.00  0.00    -0.358 N 
HETATM   12  H6  UNL     1      21.575   2.983  52.655  1.00  0.00     0.166 HD
BRANCH  11  13
HETATM   13  C7  UNL     1      20.076   2.162  51.272  1.00  0.00     0.033 A 
HETATM   14  C8  UNL     1      19.776   0.978  50.659  1.00  0.00     0.029 A 
HETATM   15  C9  UNL     1      18.454   0.651  50.444  1.00  0.00     0.004 A 
HETATM   16  C10 UNL     1      17.392   1.481  50.826  1.00  0.00     0.019 A 
HETATM   17  C11 UNL     1      17.702   2.686  51.450  1.00  0.00     0.013 A 
HETATM   18 BR1  UNL     1      16.170   3.729  51.931  1.00  0.00    -0.051 Br
HETATM   19  C12 UNL     1      19.036   3.016  51.668  1.00  0.00     0.048 A 
ENDBRANCH  11  13
ENDBRANCH   5  11
BRANCH   8  20
HETATM   20  C15 UNL     1      23.594   1.410  52.027  1.00  0.00     0.182 C 
HETATM   21  O2  UNL     1      23.997   2.269  52.896  1.00  0.00    -0.288 OA
BRANCH  20  22
HETATM   22  C16 UNL     1      23.260   0.498  53.075  1.00  0.00     0.052 C 
HETATM   23  C17 UNL     1      22.353  -0.424  52.803  1.00  0.00    -0.019 C 
BRANCH  23  24
HETATM   24  C18 UNL     1      21.951  -1.414  53.827  1.00  0.00    -0.000 C 
HETATM   25  C19 UNL     1      22.613  -1.284  55.157  1.00  0.00     0.013 C 
HETATM   26  C20 UNL     1      20.424  -1.396  54.066  1.00  0.00     0.013 C 
ENDBRANCH  23  24
ENDBRANCH  20  22
ENDBRANCH   8  20
BRANCH   1  27
HETATM   27  O1  UNL     1      25.799   4.816  49.008  1.00  0.00    -0.354 OA
HETATM   28  C1  UNL     1      26.027   6.158  48.880  1.00  0.00     0.210 C 
ENDBRANCH   1  27
TORSDOF 6
ENDMDL
MODEL 7
REMARK VINA RESULT:      -6.9      2.993      5.568
REMARK  6 active torsions:
REMARK  status: ('A' for Active; 'I' for Inactive)
REMARK    1  A    between atoms: O1_2  and  C2_3 
REMARK    2  A    between atoms: C6_7  and  N1_8 
REMARK    3  A    between atoms: N1_8  and  C7_9 
REMARK    4  A    between atoms: C14_18  and  C15_19 
REMARK    5  A    between atoms: C15_19  and  C16_21 
REMARK    6  A    between atoms: C17_22  and  C18_23 
ROOT
HETATM    1  C2  UNL     1      27.410   1.649  52.677  1.00  0.00     0.091 C 
HETATM    2  C3  UNL     1      26.505   1.151  53.496  1.00  0.00     0.043 C 
HETATM    3  C4  UNL     1      25.417   2.199  54.009  1.00  0.00     0.101 C 
HETATM    4  C5  UNL     1      24.864   1.790  52.607  1.00  0.00    -0.014 C 
HETATM    5  C6  UNL     1      24.166   0.677  52.668  1.00  0.00     0.035 C 
HETATM    6  C13 UNL     1      24.593  -0.297  53.773  1.00  0.00     0.177 C 
HETATM    7  N2  UNL     1      26.104  -0.158  53.857  1.00  0.00    -0.385 N 
HETATM    8  C14 UNL     1      25.431   2.490  51.475  1.00  0.00     0.025 C 
HETATM    9  C21 UNL     1      26.821   2.452  51.481  1.00  0.00     0.054 C 
HETATM   10  H13 UNL     1      27.098  -0.552  54.041  1.00  0.00     0.159 HD
ENDROOT
BRANCH   5  11
HETATM   11  N1  UNL     1      23.230   0.724  51.590  1.00  0.00    -0.358 N 
HETATM   12  H6  UNL     1      23.360   0.918  50.587  1.00  0.00     0.166 HD
BRANCH  11  13
HETATM   13  C7  UNL     1      22.009   0.373  52.235  1.00  0.00     0.033 A 
HETATM   14  C8  UNL     1      21.602  -0.085  53.456  1.00  0.00     0.029 A 
HETATM   15  C9  UNL     1      20.257  -0.292  53.680  1.00  0.00     0.004 A 
HETATM   16  C10 UNL     1      19.278  -0.054  52.706  1.00  0.00     0.019 A 
HETATM   17  C11 UNL     1      19.698   0.412  51.464  1.00  0.00     0.013 A 
HETATM   18 BR1  UNL     1      18.270   0.707  50.221  1.00  0.00    -0.051 Br
HETATM   19  C12 UNL     1      21.055   0.622  51.238  1.00  0.00     0.048 A 
ENDBRANCH  11  13
ENDBRANCH   5  11
BRANCH   8  20
HETATM   20  C15 UNL     1      24.534   2.959  50.533  1.00  0.00     0.182 C 
HETATM   21  O2  UNL     1      25.265   4.000  50.345  1.00  0.00    -0.288 OA
BRANCH  20  22
HETATM   22  C16 UNL     1      23.600   3.432  49.561  1.00  0.00     0.052 C 
HETATM   23  C17 UNL     1      23.162   2.558  48.672  1.00  0.00    -0.019 C 
BRANCH  23  24
HETATM   24  C18 UNL     1      22.188   2.959  47.633  1.00  0.00    -0.000 C 
HETATM   25  C19 UNL     1      20.769   2.579  47.887  1.00  0.00     0.013 C 
HETATM   26  C20 UNL     1      22.220   4.484  47.382  1.00  0.00     0.013 C 
ENDBRANCH  23  24
ENDBRANCH  20  22
ENDBRANCH   8  20
BRANCH   1  27
HETATM   27  O1  UNL     1      28.645   1.371  53.014  1.00  0.00    -0.354 OA
HETATM   28  C1  UNL     1      29.379   1.039  54.118  1.00  0.00     0.210 C 
ENDBRANCH   1  27
TORSDOF 6
ENDMDL
MODEL 8
REMARK VINA RESULT:      -6.9      3.599      6.456
REMARK  6 active torsions:
REMARK  status: ('A' for Active; 'I' for Inactive)
REMARK    1  A    between atoms: O1_2  and  C2_3 
REMARK    2  A    between atoms: C6_7  and  N1_8 
REMARK    3  A    between atoms: N1_8  and  C7_9 
REMARK    4  A    between atoms: C14_18  and  C15_19 
REMARK    5  A    between atoms: C15_19  and  C16_21 
REMARK    6  A    between atoms: C17_22  and  C18_23 
ROOT
HETATM    1  C2  UNL     1      19.162   0.036  51.922  1.00  0.00     0.091 C 
HETATM    2  C3  UNL     1      19.050   1.044  51.080  1.00  0.00     0.043 C 
HETATM    3  C4  UNL     1      19.600   2.438  51.628  1.00  0.00     0.101 C 
HETATM    4  C5  UNL     1      20.899   1.728  51.131  1.00  0.00    -0.014 C 
HETATM    5  C6  UNL     1      21.077   1.896  49.838  1.00  0.00     0.035 C 
HETATM    6  C13 UNL     1      19.790   2.066  49.022  1.00  0.00     0.177 C 
HETATM    7  N2  UNL     1      18.775   1.159  49.695  1.00  0.00    -0.385 N 
HETATM    8  C14 UNL     1      21.502   0.795  52.055  1.00  0.00     0.025 C 
HETATM    9  C21 UNL     1      20.586  -0.140  52.526  1.00  0.00     0.054 C 
HETATM   10  H13 UNL     1      17.913   0.500  49.680  1.00  0.00     0.159 HD
ENDROOT
BRANCH   5  11
HETATM   11  N1  UNL     1      22.484   1.802  49.606  1.00  0.00    -0.358 N 
HETATM   12  H6  UNL     1      23.116   0.989  49.590  1.00  0.00     0.166 HD
BRANCH  11  13
HETATM   13  C7  UNL     1      22.837   3.155  49.336  1.00  0.00     0.033 A 
HETATM   14  C8  UNL     1      22.201   4.337  49.078  1.00  0.00     0.029 A 
HETATM   15  C9  UNL     1      22.957   5.473  48.875  1.00  0.00     0.004 A 
HETATM   16  C10 UNL     1      24.357   5.474  48.920  1.00  0.00     0.019 A 
HETATM   17  C11 UNL     1      24.999   4.268  49.182  1.00  0.00     0.013 A 
HETATM   18 BR1  UNL     1      26.910   4.397  49.225  1.00  0.00    -0.051 Br
HETATM   19  C12 UNL     1      24.238   3.122  49.388  1.00  0.00     0.048 A 
ENDBRANCH  11  13
ENDBRANCH   5  11
BRANCH   8  20
HETATM   20  C15 UNL     1      22.872   0.895  52.221  1.00  0.00     0.182 C 
HETATM   21  O2  UNL     1      22.725   2.033  52.801  1.00  0.00    -0.288 OA
BRANCH  20  22
HETATM   22  C16 UNL     1      24.287   0.987  52.386  1.00  0.00     0.052 C 
HETATM   23  C17 UNL     1      24.872   0.042  53.104  1.00  0.00    -0.019 C 
BRANCH  23  24
HETATM   24  C18 UNL     1      26.335   0.055  53.321  1.00  0.00    -0.000 C 
HETATM   25  C19 UNL     1      26.785   0.192  54.736  1.00  0.00     0.013 C 
HETATM   26  C20 UNL     1      27.006  -1.213  52.745  1.00  0.00     0.013 C 
ENDBRANCH  23  24
ENDBRANCH  20  22
ENDBRANCH   8  20
BRANCH   1  27
HETATM   27  O1  UNL     1      18.055  -0.644  52.092  1.00  0.00    -0.354 OA
HETATM   28  C1  UNL     1      17.372  -1.303  53.076  1.00  0.00     0.210 C 
ENDBRANCH   1  27
TORSDOF 6
ENDMDL
MODEL 9
REMARK VINA RESULT:      -6.8      2.909      6.257
REMARK  6 active torsions:
REMARK  status: ('A' for Active; 'I' for Inactive)
REMARK    1  A    between atoms: O1_2  and  C2_3 
REMARK    2  A    between atoms: C6_7  and  N1_8 
REMARK    3  A    between atoms: N1_8  and  C7_9 
REMARK    4  A    between atoms: C14_18  and  C15_19 
REMARK    5  A    between atoms: C15_19  and  C16_21 
REMARK    6  A    between atoms: C17_22  and  C18_23 
ROOT
HETATM    1  C2  UNL     1      25.504   0.909  52.334  1.00  0.00     0.091 C 
HETATM    2  C3  UNL     1      24.286   1.412  52.357  1.00  0.00     0.043 C 
HETATM    3  C4  UNL     1      24.209   2.963  52.720  1.00  0.00     0.101 C 
HETATM    4  C5  UNL     1      24.551   2.984  51.196  1.00  0.00    -0.014 C 
HETATM    5  C6  UNL     1      23.471   2.861  50.456  1.00  0.00     0.035 C 
HETATM    6  C13 UNL     1      22.331   2.062  51.099  1.00  0.00     0.177 C 
HETATM    7  N2  UNL     1      23.019   0.971  51.901  1.00  0.00    -0.385 N 
HETATM    8  C14 UNL     1      25.950   2.834  50.861  1.00  0.00     0.025 C 
HETATM    9  C21 UNL     1      26.517   1.721  51.473  1.00  0.00     0.054 C 
HETATM   10  H13 UNL     1      23.070  -0.027  52.323  1.00  0.00     0.159 HD
ENDROOT
BRANCH   5  11
HETATM   11  N1  UNL     1      23.758   3.498  49.210  1.00  0.00    -0.358 N 
HETATM   12  H6  UNL     1      24.251   3.159  48.372  1.00  0.00     0.166 HD
BRANCH  11  13
HETATM   13  C7  UNL     1      23.130   4.767  49.369  1.00  0.00     0.033 A 
HETATM   14  C8  UNL     1      22.418   5.435  50.325  1.00  0.00     0.029 A 
HETATM   15  C9  UNL     1      21.985   6.717  50.064  1.00  0.00     0.004 A 
HETATM   16  C10 UNL     1      22.239   7.376  48.854  1.00  0.00     0.019 A 
HETATM   17  C11 UNL     1      22.963   6.692  47.882  1.00  0.00     0.013 A 
HETATM   18 BR1  UNL     1      23.253   7.696  46.277  1.00  0.00    -0.051 Br
HETATM   19  C12 UNL     1      23.402   5.398  48.146  1.00  0.00     0.048 A 
ENDBRANCH  11  13
ENDBRANCH   5  11
BRANCH   8  20
HETATM   20  C15 UNL     1      26.452   3.713  49.919  1.00  0.00     0.182 C 
HETATM   21  O2  UNL     1      26.979   2.732  49.276  1.00  0.00    -0.288 OA
BRANCH  20  22
HETATM   22  C16 UNL     1      26.966   4.630  48.952  1.00  0.00     0.052 C 
HETATM   23  C17 UNL     1      26.591   5.893  49.064  1.00  0.00    -0.019 C 
BRANCH  23  24
HETATM   24  C18 UNL     1      27.080   6.914  48.111  1.00  0.00    -0.000 C 
HETATM   25  C19 UNL     1      26.807   8.334  48.476  1.00  0.00     0.013 C 
HETATM   26  C20 UNL     1      28.601   6.783  47.869  1.00  0.00     0.013 C 
ENDBRANCH  23  24
ENDBRANCH  20  22
ENDBRANCH   8  20
BRANCH   1  27
HETATM   27  O1  UNL     1      25.642  -0.190  53.033  1.00  0.00    -0.354 OA
HETATM   28  C1  UNL     1      26.418  -1.315  53.072  1.00  0.00     0.210 C 
ENDBRANCH   1  27
TORSDOF 6
ENDMDL
