MODEL 1
REMARK VINA RESULT:      -8.9      0.000      0.000
REMARK  2 active torsions:
REMARK  status: ('A' for Active; 'I' for Inactive)
REMARK    1  A    between atoms: C1_2  and  O2_3 
REMARK    2  A    between atoms: C1_2  and  C2_4 
ROOT
HETATM    1  C2  UNL     1      25.522   2.636  51.062  1.00  0.00     0.022 C 
HETATM    2  C3  UNL     1      24.319   3.052  50.865  1.00  0.00     0.039 C 
HETATM    3  C4  UNL     1      22.931   3.340  50.746  1.00  0.00     0.050 C 
HETATM    4  C5  UNL     1      21.914   2.293  50.999  1.00  0.00    -0.036 A 
HETATM    5  C6  UNL     1      20.732   2.750  50.449  1.00  0.00     0.010 A 
HETATM    6  C7  UNL     1      19.506   2.118  50.405  1.00  0.00     0.020 A 
HETATM    7  C8  UNL     1      19.362   0.873  50.957  1.00  0.00     0.012 A 
HETATM    8 BR1  UNL     1      17.736  -0.081  50.951  1.00  0.00    -0.051 Br
HETATM    9  C9  UNL     1      20.564   0.402  51.522  1.00  0.00     0.043 A 
HETATM   10  C10 UNL     1      21.835   1.027  51.582  1.00  0.00     0.021 A 
HETATM   11  N1  UNL     1      22.661   0.101  52.264  1.00  0.00    -0.241 NA
HETATM   12  C11 UNL     1      23.298  -0.376  53.425  1.00  0.00     0.138 A 
HETATM   13  N2  UNL     1      22.878  -0.917  54.604  1.00  0.00    -0.227 NA
HETATM   14  C12 UNL     1      23.717  -1.262  55.596  1.00  0.00     0.235 A 
HETATM   15  N3  UNL     1      25.068  -1.104  55.523  1.00  0.00    -0.244 NA
HETATM   16  C13 UNL     1      25.600  -0.570  54.382  1.00  0.00     0.066 A 
HETATM   17  C14 UNL     1      24.693  -0.238  53.399  1.00  0.00     0.098 A 
HETATM   18  N4  UNL     1      25.359   0.383  52.315  1.00  0.00    -0.355 N 
HETATM   19  C15 UNL     1      26.699   0.724  52.089  1.00  0.00     0.011 C 
HETATM   20  C16 UNL     1      26.629   1.862  51.460  1.00  0.00     0.039 C 
HETATM   21  C17 UNL     1      27.383  -0.393  52.728  1.00  0.00     0.063 C 
HETATM   22  C18 UNL     1      27.073  -0.416  54.241  1.00  0.00     0.068 C 
HETATM   23  H8  UNL     1      22.405   0.855  52.989  1.00  0.00     0.135 HD
HETATM   24  H10 UNL     1      24.612   0.430  51.589  1.00  0.00     0.166 HD
ENDROOT
BRANCH   1  25
HETATM   25  C1  UNL     1      25.934   3.851  50.369  1.00  0.00     0.172 C 
HETATM   26  O1  UNL     1      26.555   3.628  49.324  1.00  0.00    -0.646 OA
BRANCH  25  27
HETATM   27  O2  UNL     1      25.905   5.232  50.417  1.00  0.00    -0.773 OA
HETATM   28  H1  UNL     1      26.457   5.785  51.075  1.00  0.00     0.167 HD
ENDBRANCH  25  27
ENDBRANCH   1  25
TORSDOF 2
ENDMDL
MODEL 2
REMARK VINA RESULT:      -8.7      2.743      4.973
REMARK  2 active torsions:
REMARK  status: ('A' for Active; 'I' for Inactive)
REMARK    1  A    between atoms: C1_2  and  O2_3 
REMARK    2  A    between atoms: C1_2  and  C2_4 
ROOT
HETATM    1  C2  UNL     1      25.267   1.128  53.119  1.00  0.00     0.022 C 
HETATM    2  C3  UNL     1      24.522   0.151  53.509  1.00  0.00     0.039 C 
HETATM    3  C4  UNL     1      23.560  -0.852  53.808  1.00  0.00     0.050 C 
HETATM    4  C5  UNL     1      22.145  -0.693  53.399  1.00  0.00    -0.036 A 
HETATM    5  C6  UNL     1      21.415  -1.603  54.139  1.00  0.00     0.010 A 
HETATM    6  C7  UNL     1      20.052  -1.816  54.133  1.00  0.00     0.020 A 
HETATM    7  C8  UNL     1      19.250  -1.068  53.314  1.00  0.00     0.012 A 
HETATM    8 BR1  UNL     1      17.377  -1.273  53.229  1.00  0.00    -0.051 Br
HETATM    9  C9  UNL     1      19.988  -0.138  52.556  1.00  0.00     0.043 A 
HETATM   10  C10 UNL     1      21.385   0.103  52.540  1.00  0.00     0.021 A 
HETATM   11  N1  UNL     1      21.563   1.138  51.591  1.00  0.00    -0.241 NA
HETATM   12  C11 UNL     1      21.885   1.600  50.301  1.00  0.00     0.138 A 
HETATM   13  N2  UNL     1      21.316   1.491  49.066  1.00  0.00    -0.227 NA
HETATM   14  C12 UNL     1      21.867   2.008  47.954  1.00  0.00     0.235 A 
HETATM   15  N3  UNL     1      23.046   2.690  47.950  1.00  0.00    -0.244 NA
HETATM   16  C13 UNL     1      23.703   2.861  49.137  1.00  0.00     0.066 A 
HETATM   17  C14 UNL     1      23.092   2.312  50.243  1.00  0.00     0.098 A 
HETATM   18  N4  UNL     1      23.912   2.479  51.384  1.00  0.00    -0.355 N 
HETATM   19  C15 UNL     1      25.178   3.050  51.572  1.00  0.00     0.011 C 
HETATM   20  C16 UNL     1      25.739   2.277  52.457  1.00  0.00     0.039 C 
HETATM   21  C17 UNL     1      25.126   4.162  50.630  1.00  0.00     0.063 C 
HETATM   22  C18 UNL     1      24.974   3.633  49.187  1.00  0.00     0.068 C 
HETATM   23  H8  UNL     1      21.849   0.229  51.090  1.00  0.00     0.135 HD
HETATM   24  H10 UNL     1      23.282   2.183  52.160  1.00  0.00     0.166 HD
ENDROOT
BRANCH   1  25
HETATM   25  C1  UNL     1      26.258   0.592  54.045  1.00  0.00     0.172 C 
HETATM   26  O1  UNL     1      26.606   1.404  54.909  1.00  0.00    -0.646 OA
BRANCH  25  27
HETATM   27  O2  UNL     1      27.006  -0.527  54.360  1.00  0.00    -0.773 OA
HETATM   28  H1  UNL     1      27.967  -0.485  54.702  1.00  0.00     0.167 HD
ENDBRANCH  25  27
ENDBRANCH   1  25
TORSDOF 2
ENDMDL
MODEL 3
REMARK VINA RESULT:      -8.6      4.313      7.428
REMARK  2 active torsions:
REMARK  status: ('A' for Active; 'I' for Inactive)
REMARK    1  A    between atoms: C1_2  and  O2_3 
REMARK    2  A    between atoms: C1_2  and  C2_4 
ROOT
HETATM    1  C2  UNL     1      19.182  -0.234  52.729  1.00  0.00     0.022 C 
HETATM    2  C3  UNL     1      20.070  -0.600  53.587  1.00  0.00     0.039 C 
HETATM    3  C4  UNL     1      21.173  -0.865  54.445  1.00  0.00     0.050 C 
HETATM    4  C5  UNL     1      22.531  -0.375  54.109  1.00  0.00    -0.036 A 
HETATM    5  C6  UNL     1      23.414  -1.091  54.895  1.00  0.00     0.010 A 
HETATM    6  C7  UNL     1      24.791  -1.015  54.924  1.00  0.00     0.020 A 
HETATM    7  C8  UNL     1      25.442  -0.140  54.096  1.00  0.00     0.012 A 
HETATM    8 BR1  UNL     1      27.318   0.044  54.052  1.00  0.00    -0.051 Br
HETATM    9  C9  UNL     1      24.547   0.594  53.294  1.00  0.00     0.043 A 
HETATM   10  C10 UNL     1      23.132   0.538  53.241  1.00  0.00     0.021 A 
HETATM   11  N1  UNL     1      22.767   1.495  52.263  1.00  0.00    -0.241 NA
HETATM   12  C11 UNL     1      22.319   2.773  51.882  1.00  0.00     0.138 A 
HETATM   13  N2  UNL     1      22.833   4.035  51.946  1.00  0.00    -0.227 NA
HETATM   14  C12 UNL     1      22.160   5.124  51.535  1.00  0.00     0.235 A 
HETATM   15  N3  UNL     1      20.902   5.077  51.017  1.00  0.00    -0.244 NA
HETATM   16  C13 UNL     1      20.290   3.859  50.905  1.00  0.00     0.066 A 
HETATM   17  C14 UNL     1      21.026   2.778  51.339  1.00  0.00     0.098 A 
HETATM   18  N4  UNL     1      20.251   1.598  51.254  1.00  0.00    -0.355 N 
HETATM   19  C15 UNL     1      18.931   1.351  50.853  1.00  0.00     0.011 C 
HETATM   20  C16 UNL     1      18.526   0.423  51.670  1.00  0.00     0.039 C 
HETATM   21  C17 UNL     1      18.784   2.314  49.768  1.00  0.00     0.063 C 
HETATM   22  C18 UNL     1      18.932   3.754  50.308  1.00  0.00     0.068 C 
HETATM   23  H8  UNL     1      22.580   1.962  53.215  1.00  0.00     0.135 HD
HETATM   24  H10 UNL     1      20.955   0.852  51.444  1.00  0.00     0.166 HD
ENDROOT
BRANCH   1  25
HETATM   25  C1  UNL     1      18.322  -1.222  53.369  1.00  0.00     0.172 C 
HETATM   26  O1  UNL     1      17.129  -0.896  53.377  1.00  0.00    -0.646 OA
BRANCH  25  27
HETATM   27  O2  UNL     1      18.307  -2.448  54.006  1.00  0.00    -0.773 OA
HETATM   28  H1  UNL     1      18.853  -2.656  54.844  1.00  0.00     0.167 HD
ENDBRANCH  25  27
ENDBRANCH   1  25
TORSDOF 2
ENDMDL
MODEL 4
REMARK VINA RESULT:      -8.5      4.010      7.049
REMARK  2 active torsions:
REMARK  status: ('A' for Active; 'I' for Inactive)
REMARK    1  A    between atoms: C1_2  and  O2_3 
REMARK    2  A    between atoms: C1_2  and  C2_4 
ROOT
HETATM    1  C2  UNL     1      21.445  -0.129  52.641  1.00  0.00     0.022 C 
HETATM    2  C3  UNL     1      22.363  -0.240  53.539  1.00  0.00     0.039 C 
HETATM    3  C4  UNL     1      23.495  -0.256  54.399  1.00  0.00     0.050 C 
HETATM    4  C5  UNL     1      24.840   0.100  53.891  1.00  0.00    -0.036 A 
HETATM    5  C6  UNL     1      25.749  -0.367  54.821  1.00  0.00     0.010 A 
HETATM    6  C7  UNL     1      27.127  -0.299  54.781  1.00  0.00     0.020 A 
HETATM    7  C8  UNL     1      27.749   0.291  53.714  1.00  0.00     0.012 A 
HETATM    8 BR1  UNL     1      29.622   0.434  53.556  1.00  0.00    -0.051 Br
HETATM    9  C9  UNL     1      26.827   0.770  52.762  1.00  0.00     0.043 A 
HETATM   10  C10 UNL     1      25.411   0.715  52.776  1.00  0.00     0.021 A 
HETATM   11  N1  UNL     1      25.013   1.351  51.575  1.00  0.00    -0.241 NA
HETATM   12  C11 UNL     1      24.553   2.468  50.853  1.00  0.00     0.138 A 
HETATM   13  N2  UNL     1      25.069   3.689  50.531  1.00  0.00    -0.227 NA
HETATM   14  C12 UNL     1      24.384   4.619  49.844  1.00  0.00     0.235 A 
HETATM   15  N3  UNL     1      23.108   4.437  49.404  1.00  0.00    -0.244 NA
HETATM   16  C13 UNL     1      22.492   3.246  49.671  1.00  0.00     0.066 A 
HETATM   17  C14 UNL     1      23.242   2.330  50.376  1.00  0.00     0.098 A 
HETATM   18  N4  UNL     1      22.463   1.183  50.662  1.00  0.00    -0.355 N 
HETATM   19  C15 UNL     1      21.130   0.845  50.394  1.00  0.00     0.011 C 
HETATM   20  C16 UNL     1      20.753   0.198  51.459  1.00  0.00     0.039 C 
HETATM   21  C17 UNL     1      20.946   1.454  49.082  1.00  0.00     0.063 C 
HETATM   22  C18 UNL     1      21.113   2.986  49.175  1.00  0.00     0.068 C 
HETATM   23  H8  UNL     1      24.859   2.077  52.355  1.00  0.00     0.135 HD
HETATM   24  H10 UNL     1      23.173   0.517  51.038  1.00  0.00     0.166 HD
ENDROOT
BRANCH   1  25
HETATM   25  C1  UNL     1      20.607  -0.880  53.568  1.00  0.00     0.172 C 
HETATM   26  O1  UNL     1      19.399  -0.769  53.331  1.00  0.00    -0.646 OA
BRANCH  25  27
HETATM   27  O2  UNL     1      20.626  -1.714  54.670  1.00  0.00    -0.773 OA
HETATM   28  H1  UNL     1      21.432  -1.813  55.289  1.00  0.00     0.167 HD
ENDBRANCH  25  27
ENDBRANCH   1  25
TORSDOF 2
ENDMDL
MODEL 5
REMARK VINA RESULT:      -8.4      3.088      5.207
REMARK  2 active torsions:
REMARK  status: ('A' for Active; 'I' for Inactive)
REMARK    1  A    between atoms: C1_2  and  O2_3 
REMARK    2  A    between atoms: C1_2  and  C2_4 
ROOT
HETATM    1  C2  UNL     1      23.920   0.061  53.655  1.00  0.00     0.022 C 
HETATM    2  C3  UNL     1      22.957  -0.777  53.829  1.00  0.00     0.039 C 
HETATM    3  C4  UNL     1      21.790  -1.588  53.883  1.00  0.00     0.050 C 
HETATM    4  C5  UNL     1      20.506  -1.108  53.322  1.00  0.00    -0.036 A 
HETATM    5  C6  UNL     1      19.518  -1.918  53.851  1.00  0.00     0.010 A 
HETATM    6  C7  UNL     1      18.155  -1.849  53.649  1.00  0.00     0.020 A 
HETATM    7  C8  UNL     1      17.635  -0.880  52.832  1.00  0.00     0.012 A 
HETATM    8 BR1  UNL     1      15.791  -0.693  52.490  1.00  0.00    -0.051 Br
HETATM    9  C9  UNL     1      18.637  -0.052  52.289  1.00  0.00     0.043 A 
HETATM   10  C10 UNL     1      20.042  -0.098  52.478  1.00  0.00     0.021 A 
HETATM   11  N1  UNL     1      20.548   0.964  51.690  1.00  0.00    -0.241 NA
HETATM   12  C11 UNL     1      21.136   1.470  50.515  1.00  0.00     0.138 A 
HETATM   13  N2  UNL     1      20.743   1.593  49.215  1.00  0.00    -0.227 NA
HETATM   14  C12 UNL     1      21.537   2.090  48.251  1.00  0.00     0.235 A 
HETATM   15  N3  UNL     1      22.811   2.518  48.476  1.00  0.00    -0.244 NA
HETATM   16  C13 UNL     1      23.308   2.440  49.748  1.00  0.00     0.066 A 
HETATM   17  C14 UNL     1      22.450   1.925  50.694  1.00  0.00     0.098 A 
HETATM   18  N4  UNL     1      23.111   1.815  51.940  1.00  0.00    -0.355 N 
HETATM   19  C15 UNL     1      24.420   2.098  52.352  1.00  0.00     0.011 C 
HETATM   20  C16 UNL     1      24.691   1.148  53.201  1.00  0.00     0.039 C 
HETATM   21  C17 UNL     1      24.716   3.280  51.552  1.00  0.00     0.063 C 
HETATM   22  C18 UNL     1      24.680   2.931  50.048  1.00  0.00     0.068 C 
HETATM   23  H8  UNL     1      20.728   0.067  51.123  1.00  0.00     0.135 HD
HETATM   24  H10 UNL     1      22.330   1.581  52.591  1.00  0.00     0.166 HD
ENDROOT
BRANCH   1  25
HETATM   25  C1  UNL     1      24.647  -0.748  54.627  1.00  0.00     0.172 C 
HETATM   26  O1  UNL     1      25.837  -0.909  54.333  1.00  0.00    -0.646 OA
BRANCH  25  27
HETATM   27  O2  UNL     1      24.529  -1.448  55.813  1.00  0.00    -0.773 OA
HETATM   28  H1  UNL     1      25.027  -2.318  56.006  1.00  0.00     0.167 HD
ENDBRANCH  25  27
ENDBRANCH   1  25
TORSDOF 2
ENDMDL
MODEL 6
REMARK VINA RESULT:      -8.3      1.161      1.459
REMARK  2 active torsions:
REMARK  status: ('A' for Active; 'I' for Inactive)
REMARK    1  A    between atoms: C1_2  and  O2_3 
REMARK    2  A    between atoms: C1_2  and  C2_4 
ROOT
HETATM    1  C2  UNL     1      24.174   2.550  51.170  1.00  0.00     0.022 C 
HETATM    2  C3  UNL     1      22.903   2.747  51.243  1.00  0.00     0.039 C 
HETATM    3  C4  UNL     1      21.495   2.790  51.432  1.00  0.00     0.050 C 
HETATM    4  C5  UNL     1      20.755   1.595  51.901  1.00  0.00    -0.036 A 
HETATM    5  C6  UNL     1      19.421   1.823  51.624  1.00  0.00     0.010 A 
HETATM    6  C7  UNL     1      18.344   0.990  51.850  1.00  0.00     0.020 A 
HETATM    7  C8  UNL     1      18.542  -0.239  52.419  1.00  0.00     0.012 A 
HETATM    8 BR1  UNL     1      17.145  -1.456  52.769  1.00  0.00    -0.051 Br
HETATM    9  C9  UNL     1      19.901  -0.478  52.705  1.00  0.00     0.043 A 
HETATM   10  C10 UNL     1      21.026   0.356  52.485  1.00  0.00     0.021 A 
HETATM   11  N1  UNL     1      22.129  -0.389  52.968  1.00  0.00    -0.241 NA
HETATM   12  C11 UNL     1      23.075  -0.708  53.960  1.00  0.00     0.138 A 
HETATM   13  N2  UNL     1      23.021  -1.268  55.201  1.00  0.00    -0.227 NA
HETATM   14  C12 UNL     1      24.102  -1.428  55.984  1.00  0.00     0.235 A 
HETATM   15  N3  UNL     1      25.357  -1.045  55.617  1.00  0.00    -0.244 NA
HETATM   16  C13 UNL     1      25.527  -0.471  54.387  1.00  0.00     0.066 A 
HETATM   17  C14 UNL     1      24.386  -0.335  53.628  1.00  0.00     0.098 A 
HETATM   18  N4  UNL     1      24.682   0.350  52.425  1.00  0.00    -0.355 N 
HETATM   19  C15 UNL     1      25.861   0.906  51.911  1.00  0.00     0.011 C 
HETATM   20  C16 UNL     1      25.459   1.991  51.314  1.00  0.00     0.039 C 
HETATM   21  C17 UNL     1      26.851  -0.054  52.382  1.00  0.00     0.063 C 
HETATM   22  C18 UNL     1      26.885  -0.074  53.926  1.00  0.00     0.068 C 
HETATM   23  H8  UNL     1      21.908   0.336  53.733  1.00  0.00     0.135 HD
HETATM   24  H10 UNL     1      23.799   0.242  51.881  1.00  0.00     0.166 HD
ENDROOT
BRANCH   1  25
HETATM   25  C1  UNL     1      24.208   3.791  50.405  1.00  0.00     0.172 C 
HETATM   26  O1  UNL     1      25.120   4.550  50.749  1.00  0.00    -0.646 OA
BRANCH  25  27
HETATM   27  O2  UNL     1      23.590   4.497  49.389  1.00  0.00    -0.773 OA
HETATM   28  H1  UNL     1      23.408   5.501  49.430  1.00  0.00     0.167 HD
ENDBRANCH  25  27
ENDBRANCH   1  25
TORSDOF 2
ENDMDL
MODEL 7
REMARK VINA RESULT:      -8.3      3.647      5.335
REMARK  2 active torsions:
REMARK  status: ('A' for Active; 'I' for Inactive)
REMARK    1  A    between atoms: C1_2  and  O2_3 
REMARK    2  A    between atoms: C1_2  and  C2_4 
ROOT
HETATM    1  C2  UNL     1      20.152   0.574  51.426  1.00  0.00     0.022 C 
HETATM    2  C3  UNL     1      20.533   1.215  50.375  1.00  0.00     0.039 C 
HETATM    3  C4  UNL     1      21.130   1.953  49.317  1.00  0.00     0.050 C 
HETATM    4  C5  UNL     1      22.352   2.758  49.548  1.00  0.00    -0.036 A 
HETATM    5  C6  UNL     1      22.460   3.627  48.479  1.00  0.00     0.010 A 
HETATM    6  C7  UNL     1      23.417   4.595  48.254  1.00  0.00     0.020 A 
HETATM    7  C8  UNL     1      24.424   4.780  49.163  1.00  0.00     0.012 A 
HETATM    8 BR1  UNL     1      25.780   6.074  48.957  1.00  0.00    -0.051 Br
HETATM    9  C9  UNL     1      24.321   3.896  50.255  1.00  0.00     0.043 A 
HETATM   10  C10 UNL     1      23.352   2.894  50.512  1.00  0.00     0.021 A 
HETATM   11  N1  UNL     1      23.746   2.317  51.744  1.00  0.00    -0.241 NA
HETATM   12  C11 UNL     1      24.383   1.316  52.500  1.00  0.00     0.138 A 
HETATM   13  N2  UNL     1      25.674   0.912  52.675  1.00  0.00    -0.227 NA
HETATM   14  C12 UNL     1      26.019  -0.133  53.447  1.00  0.00     0.235 A 
HETATM   15  N3  UNL     1      25.117  -0.893  54.128  1.00  0.00    -0.244 NA
HETATM   16  C13 UNL     1      23.790  -0.576  54.024  1.00  0.00     0.066 A 
HETATM   17  C14 UNL     1      23.495   0.505  53.222  1.00  0.00     0.098 A 
HETATM   18  N4  UNL     1      22.093   0.671  53.129  1.00  0.00    -0.355 N 
HETATM   19  C15 UNL     1      21.012  -0.046  53.657  1.00  0.00     0.011 C 
HETATM   20  C16 UNL     1      20.123  -0.013  52.706  1.00  0.00     0.039 C 
HETATM   21  C17 UNL     1      21.542  -0.435  54.958  1.00  0.00     0.063 C 
HETATM   22  C18 UNL     1      22.772  -1.352  54.781  1.00  0.00     0.068 C 
HETATM   23  H8  UNL     1      24.064   1.626  50.982  1.00  0.00     0.135 HD
HETATM   24  H10 UNL     1      22.007   1.594  52.649  1.00  0.00     0.166 HD
ENDROOT
BRANCH   1  25
HETATM   25  C1  UNL     1      18.906   0.355  50.702  1.00  0.00     0.172 C 
HETATM   26  O1  UNL     1      18.126  -0.399  51.293  1.00  0.00    -0.646 OA
BRANCH  25  27
HETATM   27  O2  UNL     1      18.209   0.674  49.552  1.00  0.00    -0.773 OA
HETATM   28  H1  UNL     1      17.935  -0.015  48.849  1.00  0.00     0.167 HD
ENDBRANCH  25  27
ENDBRANCH   1  25
TORSDOF 2
ENDMDL
MODEL 8
REMARK VINA RESULT:      -8.3      2.811      4.498
REMARK  2 active torsions:
REMARK  status: ('A' for Active; 'I' for Inactive)
REMARK    1  A    between atoms: C1_2  and  O2_3 
REMARK    2  A    between atoms: C1_2  and  C2_4 
ROOT
HETATM    1  C2  UNL     1      24.753   1.219  53.332  1.00  0.00     0.022 C 
HETATM    2  C3  UNL     1      24.801   2.260  52.574  1.00  0.00     0.039 C 
HETATM    3  C4  UNL     1      24.680   3.337  51.653  1.00  0.00     0.050 C 
HETATM    4  C5  UNL     1      23.751   3.251  50.502  1.00  0.00    -0.036 A 
HETATM    5  C6  UNL     1      24.129   4.243  49.616  1.00  0.00     0.010 A 
HETATM    6  C7  UNL     1      23.584   4.544  48.385  1.00  0.00     0.020 A 
HETATM    7  C8  UNL     1      22.530   3.811  47.909  1.00  0.00     0.012 A 
HETATM    8 BR1  UNL     1      21.713   4.134  46.240  1.00  0.00    -0.051 Br
HETATM    9  C9  UNL     1      22.140   2.800  48.808  1.00  0.00     0.043 A 
HETATM   10  C10 UNL     1      22.678   2.467  50.077  1.00  0.00     0.021 A 
HETATM   11  N1  UNL     1      21.894   1.377  50.528  1.00  0.00    -0.241 NA
HETATM   12  C11 UNL     1      20.843   0.834  51.290  1.00  0.00     0.138 A 
HETATM   13  N2  UNL     1      19.483   0.921  51.259  1.00  0.00    -0.227 NA
HETATM   14  C12 UNL     1      18.686   0.316  52.157  1.00  0.00     0.235 A 
HETATM   15  N3  UNL     1      19.157  -0.441  53.186  1.00  0.00    -0.244 NA
HETATM   16  C13 UNL     1      20.510  -0.598  53.313  1.00  0.00     0.066 A 
HETATM   17  C14 UNL     1      21.276   0.043  52.364  1.00  0.00     0.098 A 
HETATM   18  N4  UNL     1      22.651  -0.123  52.658  1.00  0.00    -0.355 N 
HETATM   19  C15 UNL     1      23.331  -0.765  53.701  1.00  0.00     0.011 C 
HETATM   20  C16 UNL     1      24.351   0.010  53.932  1.00  0.00     0.039 C 
HETATM   21  C17 UNL     1      22.465  -1.915  53.933  1.00  0.00     0.063 C 
HETATM   22  C18 UNL     1      21.068  -1.448  54.397  1.00  0.00     0.068 C 
HETATM   23  H8  UNL     1      21.529   2.241  51.058  1.00  0.00     0.135 HD
HETATM   24  H10 UNL     1      23.112   0.252  51.801  1.00  0.00     0.166 HD
ENDROOT
BRANCH   1  25
HETATM   25  C1  UNL     1      25.983   1.733  53.922  1.00  0.00     0.172 C 
HETATM   26  O1  UNL     1      26.461   0.983  54.780  1.00  0.00    -0.646 OA
BRANCH  25  27
HETATM   27  O2  UNL     1      26.880   2.785  53.903  1.00  0.00    -0.773 OA
HETATM   28  H1  UNL     1      27.874   2.683  54.115  1.00  0.00     0.167 HD
ENDBRANCH  25  27
ENDBRANCH   1  25
TORSDOF 2
ENDMDL
MODEL 9
REMARK VINA RESULT:      -8.1      3.719      5.518
REMARK  2 active torsions:
REMARK  status: ('A' for Active; 'I' for Inactive)
REMARK    1  A    between atoms: C1_2  and  O2_3 
REMARK    2  A    between atoms: C1_2  and  C2_4 
ROOT
HETATM    1  C2  UNL     1      21.829   1.716  50.234  1.00  0.00     0.022 C 
HETATM    2  C3  UNL     1      22.169   2.624  49.386  1.00  0.00     0.039 C 
HETATM    3  C4  UNL     1      22.711   3.652  48.567  1.00  0.00     0.050 C 
HETATM    4  C5  UNL     1      23.807   4.518  49.062  1.00  0.00    -0.036 A 
HETATM    5  C6  UNL     1      23.847   5.619  48.228  1.00  0.00     0.010 A 
HETATM    6  C7  UNL     1      24.680   6.717  48.298  1.00  0.00     0.020 A 
HETATM    7  C8  UNL     1      25.614   6.801  49.295  1.00  0.00     0.012 A 
HETATM    8 BR1  UNL     1      26.799   8.255  49.486  1.00  0.00    -0.051 Br
HETATM    9  C9  UNL     1      25.579   5.681  50.148  1.00  0.00     0.043 A 
HETATM   10  C10 UNL     1      24.738   4.540  50.102  1.00  0.00     0.021 A 
HETATM   11  N1  UNL     1      25.149   3.742  51.197  1.00  0.00    -0.241 NA
HETATM   12  C11 UNL     1      25.877   2.673  51.751  1.00  0.00     0.138 A 
HETATM   13  N2  UNL     1      27.200   2.392  51.924  1.00  0.00    -0.227 NA
HETATM   14  C12 UNL     1      27.644   1.243  52.463  1.00  0.00     0.235 A 
HETATM   15  N3  UNL     1      26.819   0.246  52.887  1.00  0.00    -0.244 NA
HETATM   16  C13 UNL     1      25.468   0.423  52.762  1.00  0.00     0.066 A 
HETATM   17  C14 UNL     1      25.071   1.619  52.206  1.00  0.00     0.098 A 
HETATM   18  N4  UNL     1      23.664   1.638  52.051  1.00  0.00    -0.355 N 
HETATM   19  C15 UNL     1      22.663   0.697  52.323  1.00  0.00     0.011 C 
HETATM   20  C16 UNL     1      21.820   0.847  51.343  1.00  0.00     0.039 C 
HETATM   21  C17 UNL     1      23.182   0.080  53.538  1.00  0.00     0.063 C 
HETATM   22  C18 UNL     1      24.527  -0.622  53.248  1.00  0.00     0.068 C 
HETATM   23  H8  UNL     1      25.587   3.290  50.324  1.00  0.00     0.135 HD
HETATM   24  H10 UNL     1      23.480   2.630  51.787  1.00  0.00     0.166 HD
ENDROOT
BRANCH   1  25
HETATM   25  C1  UNL     1      20.654   1.529  49.391  1.00  0.00     0.172 C 
HETATM   26  O1  UNL     1      19.758   0.881  49.942  1.00  0.00    -0.646 OA
BRANCH  25  27
HETATM   27  O2  UNL     1      20.113   1.804  48.149  1.00  0.00    -0.773 OA
HETATM   28  H1  UNL     1      19.317   2.428  48.006  1.00  0.00     0.167 HD
ENDBRANCH  25  27
ENDBRANCH   1  25
TORSDOF 2
ENDMDL
