MODEL 1
REMARK VINA RESULT:      -9.0      0.000      0.000
REMARK  5 active torsions:
REMARK  status: ('A' for Active; 'I' for Inactive)
REMARK    1  A    between atoms: C4_4  and  C5_5 
REMARK       I    between atoms: C5_5  and  N1_7 
REMARK    2  A    between atoms: N1_7  and  C6_8 
REMARK    3  A    between atoms: C11_13  and  N2_14 
REMARK    4  A    between atoms: N2_14  and  C12_15 
REMARK    5  A    between atoms: C15_19  and  C16_20 
ROOT
HETATM    1  C1  UNL     1      27.645   7.916  47.488  1.00  0.00     0.017 C 
HETATM    2  C2  UNL     1      27.115   6.987  48.046  1.00  0.00    -0.089 C 
HETATM    3  C3  UNL     1      26.491   5.866  48.704  1.00  0.00     0.069 C 
HETATM    4  C4  UNL     1      27.130   4.708  48.955  1.00  0.00     0.083 C 
ENDROOT
BRANCH   4   5
HETATM    5  C5  UNL     1      26.396   3.650  49.623  1.00  0.00     0.246 C 
HETATM    6  O1  UNL     1      26.702   2.746  50.414  1.00  0.00    -0.268 OA
HETATM    7  N1  UNL     1      25.031   3.669  49.283  1.00  0.00    -0.324 N 
HETATM    8  H4  UNL     1      24.541   4.343  48.634  1.00  0.00     0.169 HD
BRANCH   7   9
HETATM    9  C6  UNL     1      23.832   2.964  49.567  1.00  0.00     0.037 A 
HETATM   10  C7  UNL     1      22.973   2.462  48.584  1.00  0.00     0.030 A 
HETATM   11  C8  UNL     1      21.814   1.772  48.856  1.00  0.00     0.011 A 
HETATM   12  C9  UNL     1      21.517   1.586  50.189  1.00  0.00    -0.035 A 
HETATM   13  C10 UNL     1      20.265   0.834  50.529  1.00  0.00     0.050 C 
HETATM   14  C11 UNL     1      22.285   2.035  51.240  1.00  0.00     0.057 A 
HETATM   15  C21 UNL     1      23.433   2.718  50.884  1.00  0.00     0.060 A 
BRANCH  14  16
HETATM   16  N2  UNL     1      21.903   1.786  52.564  1.00  0.00    -0.188 N 
HETATM   17  H10 UNL     1      21.240   2.422  53.046  1.00  0.00     0.184 HD
BRANCH  16  18
HETATM   18  C12 UNL     1      22.333   0.709  53.387  1.00  0.00     0.727 A 
HETATM   19  N3  UNL     1      21.578  -0.121  54.142  1.00  0.00    -0.075 NA
HETATM   20  C13 UNL     1      22.191  -1.072  54.867  1.00  0.00     0.139 A 
HETATM   21  C14 UNL     1      23.563  -1.219  54.857  1.00  0.00     0.053 A 
HETATM   22  C15 UNL     1      24.305  -0.358  54.077  1.00  0.00     0.089 A 
HETATM   23  N5  UNL     1      23.669   0.584  53.361  1.00  0.00    -0.062 NA
BRANCH  22  24
HETATM   24  C16 UNL     1      25.757  -0.455  54.041  1.00  0.00     0.011 A 
HETATM   25  C17 UNL     1      26.383  -1.186  53.054  1.00  0.00     0.017 A 
HETATM   26  C18 UNL     1      27.768  -1.342  52.924  1.00  0.00     0.020 A 
HETATM   27  C19 UNL     1      28.530  -0.694  53.882  1.00  0.00     0.116 A 
HETATM   28  N4  UNL     1      27.954   0.037  54.874  1.00  0.00    -0.272 NA
HETATM   29  C20 UNL     1      26.600   0.147  54.944  1.00  0.00     0.130 A 
ENDBRANCH  22  24
ENDBRANCH  16  18
ENDBRANCH  14  16
ENDBRANCH   7   9
ENDBRANCH   4   5
TORSDOF 5
ENDMDL
MODEL 2
REMARK VINA RESULT:      -8.8      3.653      5.680
REMARK  5 active torsions:
REMARK  status: ('A' for Active; 'I' for Inactive)
REMARK    1  A    between atoms: C4_4  and  C5_5 
REMARK       I    between atoms: C5_5  and  N1_7 
REMARK    2  A    between atoms: N1_7  and  C6_8 
REMARK    3  A    between atoms: C11_13  and  N2_14 
REMARK    4  A    between atoms: N2_14  and  C12_15 
REMARK    5  A    between atoms: C15_19  and  C16_20 
ROOT
HETATM    1  C1  UNL     1      34.895   3.978  45.319  1.00  0.00     0.017 C 
HETATM    2  C2  UNL     1      33.990   4.347  46.025  1.00  0.00    -0.089 C 
HETATM    3  C3  UNL     1      32.913   4.779  46.881  1.00  0.00     0.069 C 
HETATM    4  C4  UNL     1      33.055   4.971  48.206  1.00  0.00     0.083 C 
ENDROOT
BRANCH   4   5
HETATM    5  C5  UNL     1      31.899   5.406  48.964  1.00  0.00     0.246 C 
HETATM    6  O1  UNL     1      31.712   5.760  50.138  1.00  0.00    -0.268 OA
HETATM    7  N1  UNL     1      30.734   5.424  48.175  1.00  0.00    -0.324 N 
HETATM    8  H4  UNL     1      30.649   5.167  47.153  1.00  0.00     0.169 HD
BRANCH   7   9
HETATM    9  C6  UNL     1      29.354   5.733  48.283  1.00  0.00     0.037 A 
HETATM   10  C7  UNL     1      28.823   7.009  48.074  1.00  0.00     0.030 A 
HETATM   11  C8  UNL     1      27.484   7.311  48.172  1.00  0.00     0.011 A 
HETATM   12  C9  UNL     1      26.648   6.265  48.498  1.00  0.00    -0.035 A 
HETATM   13  C10 UNL     1      25.180   6.549  48.608  1.00  0.00     0.050 C 
HETATM   14  C11 UNL     1      27.057   4.970  48.726  1.00  0.00     0.057 A 
HETATM   15  C21 UNL     1      28.416   4.748  48.609  1.00  0.00     0.060 A 
BRANCH  14  16
HETATM   16  N2  UNL     1      26.127   3.971  49.042  1.00  0.00    -0.188 N 
HETATM   17  H10 UNL     1      25.658   3.434  48.288  1.00  0.00     0.184 HD
BRANCH  16  18
HETATM   18  C12 UNL     1      25.714   3.573  50.343  1.00  0.00     0.727 A 
HETATM   19  N3  UNL     1      24.599   3.939  51.016  1.00  0.00    -0.075 NA
HETATM   20  C13 UNL     1      24.404   3.457  52.254  1.00  0.00     0.139 A 
HETATM   21  C14 UNL     1      25.310   2.604  52.851  1.00  0.00     0.053 A 
HETATM   22  C15 UNL     1      26.435   2.249  52.140  1.00  0.00     0.089 A 
HETATM   23  N5  UNL     1      26.608   2.743  50.902  1.00  0.00    -0.062 NA
BRANCH  22  24
HETATM   24  C16 UNL     1      27.434   1.366  52.725  1.00  0.00     0.011 A 
HETATM   25  C17 UNL     1      27.303  -0.003  52.619  1.00  0.00     0.017 A 
HETATM   26  C18 UNL     1      28.203  -0.939  53.139  1.00  0.00     0.020 A 
HETATM   27  C19 UNL     1      29.295  -0.407  53.804  1.00  0.00     0.116 A 
HETATM   28  N4  UNL     1      29.464   0.936  53.932  1.00  0.00    -0.272 NA
HETATM   29  C20 UNL     1      28.550   1.794  53.403  1.00  0.00     0.130 A 
ENDBRANCH  22  24
ENDBRANCH  16  18
ENDBRANCH  14  16
ENDBRANCH   7   9
ENDBRANCH   4   5
TORSDOF 5
ENDMDL
MODEL 3
REMARK VINA RESULT:      -8.5      1.508      1.966
REMARK  5 active torsions:
REMARK  status: ('A' for Active; 'I' for Inactive)
REMARK    1  A    between atoms: C4_4  and  C5_5 
REMARK       I    between atoms: C5_5  and  N1_7 
REMARK    2  A    between atoms: N1_7  and  C6_8 
REMARK    3  A    between atoms: C11_13  and  N2_14 
REMARK    4  A    between atoms: N2_14  and  C12_15 
REMARK    5  A    between atoms: C15_19  and  C16_20 
ROOT
HETATM    1  C1  UNL     1      29.616   8.085  47.150  1.00  0.00     0.017 C 
HETATM    2  C2  UNL     1      28.830   7.308  47.633  1.00  0.00    -0.089 C 
HETATM    3  C3  UNL     1      27.898   6.367  48.202  1.00  0.00     0.069 C 
HETATM    4  C4  UNL     1      28.236   5.109  48.546  1.00  0.00     0.083 C 
ENDROOT
BRANCH   4   5
HETATM    5  C5  UNL     1      27.211   4.253  49.110  1.00  0.00     0.246 C 
HETATM    6  O1  UNL     1      27.084   3.028  49.256  1.00  0.00    -0.268 OA
HETATM    7  N1  UNL     1      26.119   4.997  49.595  1.00  0.00    -0.324 N 
HETATM    8  H4  UNL     1      26.003   6.047  49.583  1.00  0.00     0.169 HD
BRANCH   7   9
HETATM    9  C6  UNL     1      24.867   4.798  50.231  1.00  0.00     0.037 A 
HETATM   10  C7  UNL     1      24.117   5.824  50.814  1.00  0.00     0.030 A 
HETATM   11  C8  UNL     1      22.899   5.635  51.426  1.00  0.00     0.011 A 
HETATM   12  C9  UNL     1      22.424   4.341  51.444  1.00  0.00    -0.035 A 
HETATM   13  C10 UNL     1      21.096   4.092  52.096  1.00  0.00     0.050 C 
HETATM   14  C11 UNL     1      23.073   3.254  50.904  1.00  0.00     0.057 A 
HETATM   15  C21 UNL     1      24.290   3.526  50.308  1.00  0.00     0.060 A 
BRANCH  14  16
HETATM   16  N2  UNL     1      22.501   1.976  50.965  1.00  0.00    -0.188 N 
HETATM   17  H10 UNL     1      21.867   1.650  50.211  1.00  0.00     0.184 HD
BRANCH  16  18
HETATM   18  C12 UNL     1      22.685   1.008  51.989  1.00  0.00     0.727 A 
HETATM   19  N3  UNL     1      21.745   0.271  52.623  1.00  0.00    -0.075 NA
HETATM   20  C13 UNL     1      22.133  -0.583  53.585  1.00  0.00     0.139 A 
HETATM   21  C14 UNL     1      23.461  -0.723  53.937  1.00  0.00     0.053 A 
HETATM   22  C15 UNL     1      24.394   0.042  53.273  1.00  0.00     0.089 A 
HETATM   23  N5  UNL     1      23.982   0.888  52.314  1.00  0.00    -0.062 NA
BRANCH  22  24
HETATM   24  C16 UNL     1      25.807  -0.051  53.614  1.00  0.00     0.011 A 
HETATM   25  C17 UNL     1      26.660  -0.820  52.851  1.00  0.00     0.017 A 
HETATM   26  C18 UNL     1      28.030  -0.975  53.087  1.00  0.00     0.020 A 
HETATM   27  C19 UNL     1      28.526  -0.286  54.181  1.00  0.00     0.116 A 
HETATM   28  N4  UNL     1      27.721   0.483  54.961  1.00  0.00    -0.272 NA
HETATM   29  C20 UNL     1      26.395   0.591  54.677  1.00  0.00     0.130 A 
ENDBRANCH  22  24
ENDBRANCH  16  18
ENDBRANCH  14  16
ENDBRANCH   7   9
ENDBRANCH   4   5
TORSDOF 5
ENDMDL
MODEL 4
REMARK VINA RESULT:      -8.5      3.428      5.923
REMARK  5 active torsions:
REMARK  status: ('A' for Active; 'I' for Inactive)
REMARK    1  A    between atoms: C4_4  and  C5_5 
REMARK       I    between atoms: C5_5  and  N1_7 
REMARK    2  A    between atoms: N1_7  and  C6_8 
REMARK    3  A    between atoms: C11_13  and  N2_14 
REMARK    4  A    between atoms: N2_14  and  C12_15 
REMARK    5  A    between atoms: C15_19  and  C16_20 
ROOT
HETATM    1  C1  UNL     1      34.272   4.424  44.647  1.00  0.00     0.017 C 
HETATM    2  C2  UNL     1      33.421   4.705  45.455  1.00  0.00    -0.089 C 
HETATM    3  C3  UNL     1      32.410   5.030  46.430  1.00  0.00     0.069 C 
HETATM    4  C4  UNL     1      32.644   5.051  47.756  1.00  0.00     0.083 C 
ENDROOT
BRANCH   4   5
HETATM    5  C5  UNL     1      31.547   5.392  48.641  1.00  0.00     0.246 C 
HETATM    6  O1  UNL     1      31.459   5.690  49.841  1.00  0.00    -0.268 OA
HETATM    7  N1  UNL     1      30.311   5.374  47.969  1.00  0.00    -0.324 N 
HETATM    8  H4  UNL     1      30.138   5.152  46.950  1.00  0.00     0.169 HD
BRANCH   7   9
HETATM    9  C6  UNL     1      28.934   5.602  48.224  1.00  0.00     0.037 A 
HETATM   10  C7  UNL     1      28.303   6.837  48.048  1.00  0.00     0.030 A 
HETATM   11  C8  UNL     1      26.966   7.060  48.287  1.00  0.00     0.011 A 
HETATM   12  C9  UNL     1      26.240   5.974  48.727  1.00  0.00    -0.035 A 
HETATM   13  C10 UNL     1      24.778   6.171  48.994  1.00  0.00     0.050 C 
HETATM   14  C11 UNL     1      26.752   4.713  48.936  1.00  0.00     0.057 A 
HETATM   15  C21 UNL     1      28.102   4.571  48.672  1.00  0.00     0.060 A 
BRANCH  14  16
HETATM   16  N2  UNL     1      25.928   3.668  49.374  1.00  0.00    -0.188 N 
HETATM   17  H10 UNL     1      25.115   3.368  48.804  1.00  0.00     0.184 HD
BRANCH  16  18
HETATM   18  C12 UNL     1      26.066   2.922  50.576  1.00  0.00     0.727 A 
HETATM   19  N3  UNL     1      27.177   2.742  51.327  1.00  0.00    -0.075 NA
HETATM   20  C13 UNL     1      27.096   1.977  52.428  1.00  0.00     0.139 A 
HETATM   21  C14 UNL     1      25.913   1.376  52.807  1.00  0.00     0.053 A 
HETATM   22  C15 UNL     1      24.799   1.578  52.022  1.00  0.00     0.089 A 
HETATM   23  N5  UNL     1      24.905   2.348  50.926  1.00  0.00    -0.062 NA
BRANCH  22  24
HETATM   24  C16 UNL     1      23.528   0.955  52.364  1.00  0.00     0.011 A 
HETATM   25  C17 UNL     1      23.461   0.013  53.369  1.00  0.00     0.017 A 
HETATM   26  C18 UNL     1      22.295  -0.643  53.779  1.00  0.00     0.020 A 
HETATM   27  C19 UNL     1      21.144  -0.288  53.096  1.00  0.00     0.116 A 
HETATM   28  N4  UNL     1      21.164   0.635  52.098  1.00  0.00    -0.272 NA
HETATM   29  C20 UNL     1      22.333   1.236  51.747  1.00  0.00     0.130 A 
ENDBRANCH  22  24
ENDBRANCH  16  18
ENDBRANCH  14  16
ENDBRANCH   7   9
ENDBRANCH   4   5
TORSDOF 5
ENDMDL
MODEL 5
REMARK VINA RESULT:      -8.4      2.165      6.604
REMARK  5 active torsions:
REMARK  status: ('A' for Active; 'I' for Inactive)
REMARK    1  A    between atoms: C4_4  and  C5_5 
REMARK       I    between atoms: C5_5  and  N1_7 
REMARK    2  A    between atoms: N1_7  and  C6_8 
REMARK    3  A    between atoms: C11_13  and  N2_14 
REMARK    4  A    between atoms: N2_14  and  C12_15 
REMARK    5  A    between atoms: C15_19  and  C16_20 
ROOT
HETATM    1  C1  UNL     1      30.718  -0.433  53.535  1.00  0.00     0.017 C 
HETATM    2  C2  UNL     1      29.530  -0.615  53.637  1.00  0.00    -0.089 C 
HETATM    3  C3  UNL     1      28.111  -0.827  53.774  1.00  0.00     0.069 C 
HETATM    4  C4  UNL     1      27.307  -0.009  54.479  1.00  0.00     0.083 C 
ENDROOT
BRANCH   4   5
HETATM    5  C5  UNL     1      25.894  -0.325  54.545  1.00  0.00     0.246 C 
HETATM    6  O1  UNL     1      25.183  -0.975  55.327  1.00  0.00    -0.268 OA
HETATM    7  N1  UNL     1      25.182   0.240  53.470  1.00  0.00    -0.324 N 
HETATM    8  H4  UNL     1      25.570   0.832  52.685  1.00  0.00     0.169 HD
BRANCH   7   9
HETATM    9  C6  UNL     1      23.858   0.319  52.968  1.00  0.00     0.037 A 
HETATM   10  C7  UNL     1      22.819  -0.523  53.374  1.00  0.00     0.030 A 
HETATM   11  C8  UNL     1      21.531  -0.444  52.893  1.00  0.00     0.011 A 
HETATM   12  C9  UNL     1      21.293   0.538  51.956  1.00  0.00    -0.035 A 
HETATM   13  C10 UNL     1      19.902   0.662  51.410  1.00  0.00     0.050 C 
HETATM   14  C11 UNL     1      22.236   1.422  51.481  1.00  0.00     0.057 A 
HETATM   15  C21 UNL     1      23.503   1.278  52.013  1.00  0.00     0.060 A 
BRANCH  14  16
HETATM   16  N2  UNL     1      21.892   2.394  50.533  1.00  0.00    -0.188 N 
HETATM   17  H10 UNL     1      21.284   2.150  49.729  1.00  0.00     0.184 HD
BRANCH  16  18
HETATM   18  C12 UNL     1      22.296   3.757  50.526  1.00  0.00     0.727 A 
HETATM   19  N3  UNL     1      21.581   4.844  50.898  1.00  0.00    -0.075 NA
HETATM   20  C13 UNL     1      22.149   6.057  50.796  1.00  0.00     0.139 A 
HETATM   21  C14 UNL     1      23.436   6.217  50.324  1.00  0.00     0.053 A 
HETATM   22  C15 UNL     1      24.138   5.091  49.954  1.00  0.00     0.089 A 
HETATM   23  N5  UNL     1      23.549   3.889  50.066  1.00  0.00    -0.062 NA
BRANCH  22  24
HETATM   24  C16 UNL     1      25.494   5.201  49.433  1.00  0.00     0.011 A 
HETATM   25  C17 UNL     1      25.963   6.407  48.956  1.00  0.00     0.017 A 
HETATM   26  C18 UNL     1      27.244   6.623  48.439  1.00  0.00     0.020 A 
HETATM   27  C19 UNL     1      28.073   5.514  48.424  1.00  0.00     0.116 A 
HETATM   28  N4  UNL     1      27.652   4.305  48.884  1.00  0.00    -0.272 NA
HETATM   29  C20 UNL     1      26.391   4.162  49.374  1.00  0.00     0.130 A 
ENDBRANCH  22  24
ENDBRANCH  16  18
ENDBRANCH  14  16
ENDBRANCH   7   9
ENDBRANCH   4   5
TORSDOF 5
ENDMDL
MODEL 6
REMARK VINA RESULT:      -8.3      2.438      3.036
REMARK  5 active torsions:
REMARK  status: ('A' for Active; 'I' for Inactive)
REMARK    1  A    between atoms: C4_4  and  C5_5 
REMARK       I    between atoms: C5_5  and  N1_7 
REMARK    2  A    between atoms: N1_7  and  C6_8 
REMARK    3  A    between atoms: C11_13  and  N2_14 
REMARK    4  A    between atoms: N2_14  and  C12_15 
REMARK    5  A    between atoms: C15_19  and  C16_20 
ROOT
HETATM    1  C1  UNL     1      32.721   4.827  47.600  1.00  0.00     0.017 C 
HETATM    2  C2  UNL     1      31.644   5.286  47.889  1.00  0.00    -0.089 C 
HETATM    3  C3  UNL     1      30.349   5.824  48.224  1.00  0.00     0.069 C 
HETATM    4  C4  UNL     1      29.219   5.093  48.208  1.00  0.00     0.083 C 
ENDROOT
BRANCH   4   5
HETATM    5  C5  UNL     1      27.974   5.745  48.564  1.00  0.00     0.246 C 
HETATM    6  O1  UNL     1      27.555   6.911  48.505  1.00  0.00    -0.268 OA
HETATM    7  N1  UNL     1      27.043   4.835  49.096  1.00  0.00    -0.324 N 
HETATM    8  H4  UNL     1      27.172   3.796  49.241  1.00  0.00     0.169 HD
BRANCH   7   9
HETATM    9  C6  UNL     1      25.718   4.810  49.606  1.00  0.00     0.037 A 
HETATM   10  C7  UNL     1      24.620   5.371  48.947  1.00  0.00     0.030 A 
HETATM   11  C8  UNL     1      23.333   5.342  49.436  1.00  0.00     0.011 A 
HETATM   12  C9  UNL     1      23.160   4.714  50.650  1.00  0.00    -0.035 A 
HETATM   13  C10 UNL     1      21.772   4.655  51.216  1.00  0.00     0.050 C 
HETATM   14  C11 UNL     1      24.164   4.129  51.388  1.00  0.00     0.057 A 
HETATM   15  C21 UNL     1      25.427   4.199  50.830  1.00  0.00     0.060 A 
BRANCH  14  16
HETATM   16  N2  UNL     1      23.884   3.504  52.610  1.00  0.00    -0.188 N 
HETATM   17  H10 UNL     1      23.641   4.070  53.444  1.00  0.00     0.184 HD
BRANCH  16  18
HETATM   18  C12 UNL     1      23.892   2.107  52.874  1.00  0.00     0.727 A 
HETATM   19  N3  UNL     1      22.835   1.272  52.996  1.00  0.00    -0.075 NA
HETATM   20  C13 UNL     1      23.063  -0.024  53.267  1.00  0.00     0.139 A 
HETATM   21  C14 UNL     1      24.342  -0.518  53.421  1.00  0.00     0.053 A 
HETATM   22  C15 UNL     1      25.398   0.357  53.290  1.00  0.00     0.089 A 
HETATM   23  N5  UNL     1      25.145   1.649  53.018  1.00  0.00    -0.062 NA
BRANCH  22  24
HETATM   24  C16 UNL     1      26.769  -0.104  53.459  1.00  0.00     0.011 A 
HETATM   25  C17 UNL     1      27.715   0.717  54.034  1.00  0.00     0.017 A 
HETATM   26  C18 UNL     1      29.055   0.375  54.247  1.00  0.00     0.020 A 
HETATM   27  C19 UNL     1      29.414  -0.897  53.834  1.00  0.00     0.116 A 
HETATM   28  N4  UNL     1      28.514  -1.741  53.262  1.00  0.00    -0.272 NA
HETATM   29  C20 UNL     1      27.225  -1.344  53.083  1.00  0.00     0.130 A 
ENDBRANCH  22  24
ENDBRANCH  16  18
ENDBRANCH  14  16
ENDBRANCH   7   9
ENDBRANCH   4   5
TORSDOF 5
ENDMDL
MODEL 7
REMARK VINA RESULT:      -8.0      1.919      6.364
REMARK  5 active torsions:
REMARK  status: ('A' for Active; 'I' for Inactive)
REMARK    1  A    between atoms: C4_4  and  C5_5 
REMARK       I    between atoms: C5_5  and  N1_7 
REMARK    2  A    between atoms: N1_7  and  C6_8 
REMARK    3  A    between atoms: C11_13  and  N2_14 
REMARK    4  A    between atoms: N2_14  and  C12_15 
REMARK    5  A    between atoms: C15_19  and  C16_20 
ROOT
HETATM    1  C1  UNL     1      29.987  -0.964  53.783  1.00  0.00     0.017 C 
HETATM    2  C2  UNL     1      28.948  -0.422  53.498  1.00  0.00    -0.089 C 
HETATM    3  C3  UNL     1      27.698   0.215  53.167  1.00  0.00     0.069 C 
HETATM    4  C4  UNL     1      26.667   0.311  54.029  1.00  0.00     0.083 C 
ENDROOT
BRANCH   4   5
HETATM    5  C5  UNL     1      25.459   0.974  53.582  1.00  0.00     0.246 C 
HETATM    6  O1  UNL     1      25.180   2.131  53.229  1.00  0.00    -0.268 OA
HETATM    7  N1  UNL     1      24.363   0.092  53.547  1.00  0.00    -0.324 N 
HETATM    8  H4  UNL     1      24.358  -0.934  53.799  1.00  0.00     0.169 HD
BRANCH   7   9
HETATM    9  C6  UNL     1      22.982   0.089  53.221  1.00  0.00     0.037 A 
HETATM   10  C7  UNL     1      21.971  -0.272  54.116  1.00  0.00     0.030 A 
HETATM   11  C8  UNL     1      20.630  -0.270  53.805  1.00  0.00     0.011 A 
HETATM   12  C9  UNL     1      20.306   0.117  52.523  1.00  0.00    -0.035 A 
HETATM   13  C10 UNL     1      18.855   0.139  52.144  1.00  0.00     0.050 C 
HETATM   14  C11 UNL     1      21.214   0.492  51.557  1.00  0.00     0.057 A 
HETATM   15  C21 UNL     1      22.539   0.463  51.948  1.00  0.00     0.060 A 
BRANCH  14  16
HETATM   16  N2  UNL     1      20.783   0.880  50.282  1.00  0.00    -0.188 N 
HETATM   17  H10 UNL     1      20.300   0.202  49.663  1.00  0.00     0.184 HD
BRANCH  16  18
HETATM   18  C12 UNL     1      20.933   2.162  49.686  1.00  0.00     0.727 A 
HETATM   19  N3  UNL     1      19.976   2.953  49.149  1.00  0.00    -0.075 NA
HETATM   20  C13 UNL     1      20.336   4.132  48.616  1.00  0.00     0.139 A 
HETATM   21  C14 UNL     1      21.652   4.551  48.605  1.00  0.00     0.053 A 
HETATM   22  C15 UNL     1      22.603   3.723  49.159  1.00  0.00     0.089 A 
HETATM   23  N5  UNL     1      22.218   2.549  49.687  1.00  0.00    -0.062 NA
BRANCH  22  24
HETATM   24  C16 UNL     1      24.008   4.105  49.160  1.00  0.00     0.011 A 
HETATM   25  C17 UNL     1      24.384   5.383  48.804  1.00  0.00     0.017 A 
HETATM   26  C18 UNL     1      25.701   5.854  48.774  1.00  0.00     0.020 A 
HETATM   27  C19 UNL     1      26.669   4.934  49.138  1.00  0.00     0.116 A 
HETATM   28  N4  UNL     1      26.344   3.663  49.496  1.00  0.00    -0.272 NA
HETATM   29  C20 UNL     1      25.042   3.267  49.503  1.00  0.00     0.130 A 
ENDBRANCH  22  24
ENDBRANCH  16  18
ENDBRANCH  14  16
ENDBRANCH   7   9
ENDBRANCH   4   5
TORSDOF 5
ENDMDL
MODEL 8
REMARK VINA RESULT:      -7.7      3.067      6.596
REMARK  5 active torsions:
REMARK  status: ('A' for Active; 'I' for Inactive)
REMARK    1  A    between atoms: C4_4  and  C5_5 
REMARK       I    between atoms: C5_5  and  N1_7 
REMARK    2  A    between atoms: N1_7  and  C6_8 
REMARK    3  A    between atoms: C11_13  and  N2_14 
REMARK    4  A    between atoms: N2_14  and  C12_15 
REMARK    5  A    between atoms: C15_19  and  C16_20 
ROOT
HETATM    1  C1  UNL     1      29.082   5.522  48.180  1.00  0.00     0.017 C 
HETATM    2  C2  UNL     1      28.023   5.105  48.577  1.00  0.00    -0.089 C 
HETATM    3  C3  UNL     1      26.761   4.592  49.049  1.00  0.00     0.069 C 
HETATM    4  C4  UNL     1      26.645   3.445  49.745  1.00  0.00     0.083 C 
ENDROOT
BRANCH   4   5
HETATM    5  C5  UNL     1      25.322   3.029  50.167  1.00  0.00     0.246 C 
HETATM    6  O1  UNL     1      24.169   3.273  49.781  1.00  0.00    -0.268 OA
HETATM    7  N1  UNL     1      25.377   2.150  51.264  1.00  0.00    -0.324 N 
HETATM    8  H4  UNL     1      26.241   1.798  51.761  1.00  0.00     0.169 HD
BRANCH   7   9
HETATM    9  C6  UNL     1      24.508   1.413  52.110  1.00  0.00     0.037 A 
HETATM   10  C7  UNL     1      24.922   0.345  52.912  1.00  0.00     0.030 A 
HETATM   11  C8  UNL     1      24.083  -0.367  53.739  1.00  0.00     0.011 A 
HETATM   12  C9  UNL     1      22.762   0.026  53.746  1.00  0.00    -0.035 A 
HETATM   13  C10 UNL     1      21.815  -0.720  54.637  1.00  0.00     0.050 C 
HETATM   14  C11 UNL     1      22.241   1.059  53.000  1.00  0.00     0.057 A 
HETATM   15  C21 UNL     1      23.148   1.725  52.196  1.00  0.00     0.060 A 
BRANCH  14  16
HETATM   16  N2  UNL     1      20.882   1.390  53.085  1.00  0.00    -0.188 N 
HETATM   17  H10 UNL     1      20.453   1.608  54.004  1.00  0.00     0.184 HD
BRANCH  16  18
HETATM   18  C12 UNL     1      19.956   1.469  52.010  1.00  0.00     0.727 A 
HETATM   19  N3  UNL     1      19.944   2.343  50.977  1.00  0.00    -0.075 NA
HETATM   20  C13 UNL     1      18.959   2.255  50.068  1.00  0.00     0.139 A 
HETATM   21  C14 UNL     1      17.967   1.300  50.163  1.00  0.00     0.053 A 
HETATM   22  C15 UNL     1      18.008   0.424  51.226  1.00  0.00     0.089 A 
HETATM   23  N5  UNL     1      19.003   0.531  52.122  1.00  0.00    -0.062 NA
BRANCH  22  24
HETATM   24  C16 UNL     1      16.978  -0.593  51.387  1.00  0.00     0.011 A 
HETATM   25  C17 UNL     1      17.027  -1.473  52.448  1.00  0.00     0.017 A 
HETATM   26  C18 UNL     1      16.092  -2.482  52.699  1.00  0.00     0.020 A 
HETATM   27  C19 UNL     1      15.053  -2.568  51.787  1.00  0.00     0.116 A 
HETATM   28  N4  UNL     1      14.965  -1.722  50.727  1.00  0.00    -0.272 NA
HETATM   29  C20 UNL     1      15.910  -0.761  50.539  1.00  0.00     0.130 A 
ENDBRANCH  22  24
ENDBRANCH  16  18
ENDBRANCH  14  16
ENDBRANCH   7   9
ENDBRANCH   4   5
TORSDOF 5
ENDMDL
MODEL 9
REMARK VINA RESULT:      -7.6      3.279      7.616
REMARK  5 active torsions:
REMARK  status: ('A' for Active; 'I' for Inactive)
REMARK    1  A    between atoms: C4_4  and  C5_5 
REMARK       I    between atoms: C5_5  and  N1_7 
REMARK    2  A    between atoms: N1_7  and  C6_8 
REMARK    3  A    between atoms: C11_13  and  N2_14 
REMARK    4  A    between atoms: N2_14  and  C12_15 
REMARK    5  A    between atoms: C15_19  and  C16_20 
ROOT
HETATM    1  C1  UNL     1      29.965  -1.778  53.575  1.00  0.00     0.017 C 
HETATM    2  C2  UNL     1      28.901  -1.229  53.433  1.00  0.00    -0.089 C 
HETATM    3  C3  UNL     1      27.624  -0.578  53.278  1.00  0.00     0.069 C 
HETATM    4  C4  UNL     1      27.002   0.075  54.279  1.00  0.00     0.083 C 
ENDROOT
BRANCH   4   5
HETATM    5  C5  UNL     1      25.720   0.692  54.003  1.00  0.00     0.246 C 
HETATM    6  O1  UNL     1      25.336   1.857  53.822  1.00  0.00    -0.268 OA
HETATM    7  N1  UNL     1      24.688  -0.262  53.929  1.00  0.00    -0.324 N 
HETATM    8  H4  UNL     1      24.773  -1.309  54.046  1.00  0.00     0.169 HD
BRANCH   7   9
HETATM    9  C6  UNL     1      23.290  -0.333  53.698  1.00  0.00     0.037 A 
HETATM   10  C7  UNL     1      22.379  -0.892  54.600  1.00  0.00     0.030 A 
HETATM   11  C8  UNL     1      21.022  -0.956  54.383  1.00  0.00     0.011 A 
HETATM   12  C9  UNL     1      20.573  -0.427  53.192  1.00  0.00    -0.035 A 
HETATM   13  C10 UNL     1      19.099  -0.471  52.918  1.00  0.00     0.050 C 
HETATM   14  C11 UNL     1      21.374   0.146  52.230  1.00  0.00     0.057 A 
HETATM   15  C21 UNL     1      22.724   0.173  52.523  1.00  0.00     0.060 A 
BRANCH  14  16
HETATM   16  N2  UNL     1      20.820   0.667  51.053  1.00  0.00    -0.188 N 
HETATM   17  H10 UNL     1      20.443   0.030  50.326  1.00  0.00     0.184 HD
BRANCH  16  18
HETATM   18  C12 UNL     1      20.701   2.039  50.702  1.00  0.00     0.727 A 
HETATM   19  N3  UNL     1      20.474   3.095  51.517  1.00  0.00    -0.075 NA
HETATM   20  C13 UNL     1      20.378   4.320  50.975  1.00  0.00     0.139 A 
HETATM   21  C14 UNL     1      20.507   4.524  49.616  1.00  0.00     0.053 A 
HETATM   22  C15 UNL     1      20.738   3.429  48.813  1.00  0.00     0.089 A 
HETATM   23  N5  UNL     1      20.831   2.213  49.378  1.00  0.00    -0.062 NA
BRANCH  22  24
HETATM   24  C16 UNL     1      20.865   3.580  47.370  1.00  0.00     0.011 A 
HETATM   25  C17 UNL     1      19.781   3.972  46.612  1.00  0.00     0.017 A 
HETATM   26  C18 UNL     1      19.794   4.151  45.225  1.00  0.00     0.020 A 
HETATM   27  C19 UNL     1      21.008   3.906  44.606  1.00  0.00     0.116 A 
HETATM   28  N4  UNL     1      22.102   3.518  45.314  1.00  0.00    -0.272 NA
HETATM   29  C20 UNL     1      22.022   3.361  46.663  1.00  0.00     0.130 A 
ENDBRANCH  22  24
ENDBRANCH  16  18
ENDBRANCH  14  16
ENDBRANCH   7   9
ENDBRANCH   4   5
TORSDOF 5
ENDMDL
