MODEL 1
REMARK VINA RESULT:      -7.6      0.000      0.000
REMARK  4 active torsions:
REMARK  status: ('A' for Active; 'I' for Inactive)
REMARK    1  A    between atoms: C2_2  and  O1_3 
REMARK    2  A    between atoms: O1_3  and  C3_4 
REMARK       I    between atoms: C3_4  and  N1_6 
REMARK    3  A    between atoms: N1_6  and  C4_7 
REMARK    4  A    between atoms: C13_19  and  O3_20 
ROOT
HETATM    1  C4  UNL     1      25.943   1.537  52.994  1.00  0.00     0.036 C 
HETATM    2  C5  UNL     1      26.896   1.621  52.105  1.00  0.00     0.026 C 
HETATM    3  C6  UNL     1      26.341   2.724  51.217  1.00  0.00    -0.018 C 
HETATM    4  C7  UNL     1      26.693   3.409  50.084  1.00  0.00     0.027 C 
HETATM    5  C8  UNL     1      26.696   4.352  48.936  1.00  0.00     0.097 C 
HETATM    6  S1  UNL     1      25.185   5.585  49.119  1.00  0.00    -0.081 SA
HETATM    7  N2  UNL     1      25.526   6.856  50.010  1.00  0.00    -0.220 NA
HETATM    8  C9  UNL     1      24.883   7.224  51.169  1.00  0.00     0.241 A 
HETATM    9  N3  UNL     1      23.932   6.462  51.551  1.00  0.00    -0.244 NA
HETATM   10  C10 UNL     1      23.500   5.325  50.898  1.00  0.00     0.062 A 
HETATM   11  C11 UNL     1      22.542   4.569  51.584  1.00  0.00     0.064 A 
HETATM   12  C12 UNL     1      22.307   3.443  50.840  1.00  0.00     0.086 A 
HETATM   13  C13 UNL     1      22.871   3.077  49.631  1.00  0.00     0.138 A 
HETATM   14  C15 UNL     1      23.811   3.667  48.824  1.00  0.00     0.068 A 
HETATM   15  C16 UNL     1      23.747   4.620  49.848  1.00  0.00     0.108 A 
HETATM   16  O4  UNL     1      21.395   2.306  51.173  1.00  0.00    -0.348 OA
HETATM   17  C17 UNL     1      22.232   1.140  51.342  1.00  0.00     0.203 C 
HETATM   18  C18 UNL     1      23.134   1.325  52.503  1.00  0.00     0.002 C 
HETATM   19  C19 UNL     1      24.468   1.422  52.694  1.00  0.00     0.027 C 
ENDROOT
BRANCH   1  20
HETATM   20  N1  UNL     1      25.278   1.067  54.147  1.00  0.00    -0.303 N 
HETATM   21  C3  UNL     1      25.700  -0.325  54.298  1.00  0.00     0.365 C 
HETATM   22  O2  UNL     1      26.492  -1.035  53.591  1.00  0.00    -0.238 OA
HETATM   23  H6  UNL     1      24.679   1.072  54.981  1.00  0.00     0.171 HD
BRANCH  21  24
HETATM   24  O1  UNL     1      25.422  -1.334  55.202  1.00  0.00    -0.304 OA
BRANCH  24  25
HETATM   25  C2  UNL     1      24.266  -1.297  56.008  1.00  0.00     0.176 C 
HETATM   26  C1  UNL     1      23.059  -1.342  55.109  1.00  0.00     0.034 C 
ENDBRANCH  24  25
ENDBRANCH  21  24
ENDBRANCH   1  20
BRANCH  13  27
HETATM   27  O3  UNL     1      22.615   1.971  48.868  1.00  0.00    -0.376 OA
HETATM   28  C14 UNL     1      22.345   2.013  47.501  1.00  0.00     0.203 C 
ENDBRANCH  13  27
TORSDOF 4
ENDMDL
MODEL 2
REMARK VINA RESULT:      -7.3      2.742      4.568
REMARK  4 active torsions:
REMARK  status: ('A' for Active; 'I' for Inactive)
REMARK    1  A    between atoms: C2_2  and  O1_3 
REMARK    2  A    between atoms: O1_3  and  C3_4 
REMARK       I    between atoms: C3_4  and  N1_6 
REMARK    3  A    between atoms: N1_6  and  C4_7 
REMARK    4  A    between atoms: C13_19  and  O3_20 
ROOT
HETATM    1  C4  UNL     1      25.176   0.370  52.543  1.00  0.00     0.036 C 
HETATM    2  C5  UNL     1      24.278   0.576  53.467  1.00  0.00     0.026 C 
HETATM    3  C6  UNL     1      23.254   1.377  52.676  1.00  0.00    -0.018 C 
HETATM    4  C7  UNL     1      22.042   1.982  52.876  1.00  0.00     0.027 C 
HETATM    5  C8  UNL     1      20.775   2.732  52.670  1.00  0.00     0.097 C 
HETATM    6  S1  UNL     1      20.575   3.134  50.763  1.00  0.00    -0.081 SA
HETATM    7  N2  UNL     1      19.872   1.961  49.953  1.00  0.00    -0.220 NA
HETATM    8  C9  UNL     1      20.416   1.276  48.893  1.00  0.00     0.241 A 
HETATM    9  N3  UNL     1      21.595   1.622  48.544  1.00  0.00    -0.244 NA
HETATM   10  C10 UNL     1      22.347   2.620  49.130  1.00  0.00     0.062 A 
HETATM   11  C11 UNL     1      23.667   2.719  48.676  1.00  0.00     0.064 A 
HETATM   12  C12 UNL     1      24.283   3.685  49.428  1.00  0.00     0.086 A 
HETATM   13  C13 UNL     1      23.747   4.454  50.446  1.00  0.00     0.138 A 
HETATM   14  C15 UNL     1      22.505   4.498  51.027  1.00  0.00     0.068 A 
HETATM   15  C16 UNL     1      22.286   3.496  50.074  1.00  0.00     0.108 A 
HETATM   16  O4  UNL     1      25.708   4.127  49.352  1.00  0.00    -0.348 OA
HETATM   17  C17 UNL     1      26.318   3.781  50.615  1.00  0.00     0.203 C 
HETATM   18  C18 UNL     1      26.330   2.309  50.787  1.00  0.00     0.002 C 
HETATM   19  C19 UNL     1      25.765   1.423  51.637  1.00  0.00     0.027 C 
ENDROOT
BRANCH   1  20
HETATM   20  N1  UNL     1      26.369  -0.130  51.978  1.00  0.00    -0.303 N 
HETATM   21  C3  UNL     1      27.051  -0.829  53.067  1.00  0.00     0.365 C 
HETATM   22  O2  UNL     1      26.711  -1.000  54.287  1.00  0.00    -0.238 OA
HETATM   23  H6  UNL     1      27.088  -0.336  51.274  1.00  0.00     0.171 HD
BRANCH  21  24
HETATM   24  O1  UNL     1      28.241  -1.525  53.184  1.00  0.00    -0.304 OA
BRANCH  24  25
HETATM   25  C2  UNL     1      29.339  -0.983  53.882  1.00  0.00     0.176 C 
HETATM   26  C1  UNL     1      29.459   0.474  53.524  1.00  0.00     0.034 C 
ENDBRANCH  24  25
ENDBRANCH  21  24
ENDBRANCH   1  20
BRANCH  13  27
HETATM   27  O3  UNL     1      24.347   5.443  51.177  1.00  0.00    -0.376 OA
HETATM   28  C14 UNL     1      24.065   6.799  51.032  1.00  0.00     0.203 C 
ENDBRANCH  13  27
TORSDOF 4
ENDMDL
MODEL 3
REMARK VINA RESULT:      -7.1      2.267      2.800
REMARK  4 active torsions:
REMARK  status: ('A' for Active; 'I' for Inactive)
REMARK    1  A    between atoms: C2_2  and  O1_3 
REMARK    2  A    between atoms: O1_3  and  C3_4 
REMARK       I    between atoms: C3_4  and  N1_6 
REMARK    3  A    between atoms: N1_6  and  C4_7 
REMARK    4  A    between atoms: C13_19  and  O3_20 
ROOT
HETATM    1  C4  UNL     1      25.937   2.434  51.794  1.00  0.00     0.036 C 
HETATM    2  C5  UNL     1      26.230   2.722  50.555  1.00  0.00     0.026 C 
HETATM    3  C6  UNL     1      24.954   3.436  50.134  1.00  0.00    -0.018 C 
HETATM    4  C7  UNL     1      24.431   4.042  49.022  1.00  0.00     0.027 C 
HETATM    5  C8  UNL     1      23.529   4.765  48.088  1.00  0.00     0.097 C 
HETATM    6  S1  UNL     1      21.969   5.411  49.080  1.00  0.00    -0.081 SA
HETATM    7  N2  UNL     1      22.208   6.830  49.757  1.00  0.00    -0.220 NA
HETATM    8  C9  UNL     1      22.127   7.104  51.102  1.00  0.00     0.241 A 
HETATM    9  N3  UNL     1      21.838   6.119  51.861  1.00  0.00    -0.244 NA
HETATM   10  C10 UNL     1      21.593   4.826  51.443  1.00  0.00     0.062 A 
HETATM   11  C11 UNL     1      21.444   3.884  52.468  1.00  0.00     0.064 A 
HETATM   12  C12 UNL     1      21.307   2.657  51.875  1.00  0.00     0.086 A 
HETATM   13  C13 UNL     1      21.300   2.351  50.525  1.00  0.00     0.138 A 
HETATM   14  C15 UNL     1      21.437   3.115  49.395  1.00  0.00     0.068 A 
HETATM   15  C16 UNL     1      21.536   4.115  50.370  1.00  0.00     0.108 A 
HETATM   16  O4  UNL     1      21.162   1.331  52.548  1.00  0.00    -0.348 OA
HETATM   17  C17 UNL     1      22.334   0.560  52.203  1.00  0.00     0.203 C 
HETATM   18  C18 UNL     1      23.547   1.200  52.765  1.00  0.00     0.002 C 
HETATM   19  C19 UNL     1      24.663   1.777  52.267  1.00  0.00     0.027 C 
ENDROOT
BRANCH   1  20
HETATM   20  N1  UNL     1      26.143   1.923  53.094  1.00  0.00    -0.303 N 
HETATM   21  C3  UNL     1      27.580   2.048  53.336  1.00  0.00     0.365 C 
HETATM   22  O2  UNL     1      28.512   2.508  52.593  1.00  0.00    -0.238 OA
HETATM   23  H6  UNL     1      25.931   1.517  54.012  1.00  0.00     0.171 HD
BRANCH  21  24
HETATM   24  O1  UNL     1      28.420   1.738  54.390  1.00  0.00    -0.304 OA
BRANCH  24  25
HETATM   25  C2  UNL     1      28.532   0.418  54.872  1.00  0.00     0.176 C 
HETATM   26  C1  UNL     1      29.346  -0.380  53.891  1.00  0.00     0.034 C 
ENDBRANCH  24  25
ENDBRANCH  21  24
ENDBRANCH   1  20
BRANCH  13  27
HETATM   27  O3  UNL     1      21.130   1.132  49.927  1.00  0.00    -0.376 OA
HETATM   28  C14 UNL     1      21.525   0.845  48.622  1.00  0.00     0.203 C 
ENDBRANCH  13  27
TORSDOF 4
ENDMDL
MODEL 4
REMARK VINA RESULT:      -6.9      8.568     11.556
REMARK  4 active torsions:
REMARK  status: ('A' for Active; 'I' for Inactive)
REMARK    1  A    between atoms: C2_2  and  O1_3 
REMARK    2  A    between atoms: O1_3  and  C3_4 
REMARK       I    between atoms: C3_4  and  N1_6 
REMARK    3  A    between atoms: N1_6  and  C4_7 
REMARK    4  A    between atoms: C13_19  and  O3_20 
ROOT
HETATM    1  C4  UNL     1      29.643   7.157  47.818  1.00  0.00     0.036 C 
HETATM    2  C5  UNL     1      29.466   5.867  47.914  1.00  0.00     0.026 C 
HETATM    3  C6  UNL     1      30.874   5.377  47.610  1.00  0.00    -0.018 C 
HETATM    4  C7  UNL     1      31.551   4.192  47.502  1.00  0.00     0.027 C 
HETATM    5  C8  UNL     1      32.617   3.176  47.303  1.00  0.00     0.097 C 
HETATM    6  S1  UNL     1      34.341   4.089  47.121  1.00  0.00    -0.081 SA
HETATM    7  N2  UNL     1      35.042   4.377  48.518  1.00  0.00    -0.220 NA
HETATM    8  C9  UNL     1      35.388   5.614  49.006  1.00  0.00     0.241 A 
HETATM    9  N3  UNL     1      35.110   6.611  48.259  1.00  0.00    -0.244 NA
HETATM   10  C10 UNL     1      34.511   6.545  47.017  1.00  0.00     0.062 A 
HETATM   11  C11 UNL     1      34.169   7.778  46.450  1.00  0.00     0.064 A 
HETATM   12  C12 UNL     1      33.506   7.517  45.280  1.00  0.00     0.086 A 
HETATM   13  C13 UNL     1      33.212   6.289  44.714  1.00  0.00     0.138 A 
HETATM   14  C15 UNL     1      33.449   4.998  45.112  1.00  0.00     0.068 A 
HETATM   15  C16 UNL     1      34.044   5.687  46.177  1.00  0.00     0.108 A 
HETATM   16  O4  UNL     1      32.905   8.505  44.334  1.00  0.00    -0.348 OA
HETATM   17  C17 UNL     1      31.478   8.276  44.348  1.00  0.00     0.203 C 
HETATM   18  C18 UNL     1      30.928   8.573  45.692  1.00  0.00     0.002 C 
HETATM   19  C19 UNL     1      30.324   7.869  46.674  1.00  0.00     0.027 C 
ENDROOT
BRANCH   1  20
HETATM   20  N1  UNL     1      29.293   8.524  47.858  1.00  0.00    -0.303 N 
HETATM   21  C3  UNL     1      30.108   9.102  48.928  1.00  0.00     0.365 C 
HETATM   22  O2  UNL     1      30.969   8.561  49.701  1.00  0.00    -0.238 OA
HETATM   23  H6  UNL     1      28.831   9.407  47.610  1.00  0.00     0.171 HD
BRANCH  21  24
HETATM   24  O1  UNL     1      30.246  10.365  49.472  1.00  0.00    -0.304 OA
BRANCH  24  25
HETATM   25  C2  UNL     1      30.321  11.511  48.653  1.00  0.00     0.176 C 
HETATM   26  C1  UNL     1      31.632  11.483  47.916  1.00  0.00     0.034 C 
ENDBRANCH  24  25
ENDBRANCH  21  24
ENDBRANCH   1  20
BRANCH  13  27
HETATM   27  O3  UNL     1      32.579   6.023  43.531  1.00  0.00    -0.376 OA
HETATM   28  C14 UNL     1      33.167   5.334  42.472  1.00  0.00     0.203 C 
ENDBRANCH  13  27
TORSDOF 4
ENDMDL
MODEL 5
REMARK VINA RESULT:      -6.8      3.415      4.808
REMARK  4 active torsions:
REMARK  status: ('A' for Active; 'I' for Inactive)
REMARK    1  A    between atoms: C2_2  and  O1_3 
REMARK    2  A    between atoms: O1_3  and  C3_4 
REMARK       I    between atoms: C3_4  and  N1_6 
REMARK    3  A    between atoms: N1_6  and  C4_7 
REMARK    4  A    between atoms: C13_19  and  O3_20 
ROOT
HETATM    1  C4  UNL     1      26.276   4.076  49.733  1.00  0.00     0.036 C 
HETATM    2  C5  UNL     1      27.320   4.047  48.950  1.00  0.00     0.026 C 
HETATM    3  C6  UNL     1      27.418   5.518  48.576  1.00  0.00    -0.018 C 
HETATM    4  C7  UNL     1      28.205   6.336  47.809  1.00  0.00     0.027 C 
HETATM    5  C8  UNL     1      28.786   7.524  47.132  1.00  0.00     0.097 C 
HETATM    6  S1  UNL     1      27.889   9.136  47.794  1.00  0.00    -0.081 SA
HETATM    7  N2  UNL     1      28.552   9.716  49.117  1.00  0.00    -0.220 NA
HETATM    8  C9  UNL     1      27.921   9.884  50.327  1.00  0.00     0.241 A 
HETATM    9  N3  UNL     1      26.694   9.534  50.375  1.00  0.00    -0.244 NA
HETATM   10  C10 UNL     1      25.962   9.020  49.324  1.00  0.00     0.062 A 
HETATM   11  C11 UNL     1      24.679   8.568  49.653  1.00  0.00     0.064 A 
HETATM   12  C12 UNL     1      24.143   8.009  48.523  1.00  0.00     0.086 A 
HETATM   13  C13 UNL     1      24.713   7.896  47.267  1.00  0.00     0.138 A 
HETATM   14  C15 UNL     1      25.935   8.261  46.760  1.00  0.00     0.068 A 
HETATM   15  C16 UNL     1      26.082   8.707  48.080  1.00  0.00     0.108 A 
HETATM   16  O4  UNL     1      22.810   7.352  48.376  1.00  0.00    -0.348 OA
HETATM   17  C17 UNL     1      23.065   5.963  48.065  1.00  0.00     0.203 C 
HETATM   18  C18 UNL     1      23.749   5.305  49.203  1.00  0.00     0.002 C 
HETATM   19  C19 UNL     1      24.955   4.733  49.415  1.00  0.00     0.027 C 
ENDROOT
BRANCH   1  20
HETATM   20  N1  UNL     1      25.290   3.565  50.605  1.00  0.00    -0.303 N 
HETATM   21  C3  UNL     1      26.013   2.719  51.556  1.00  0.00     0.365 C 
HETATM   22  O2  UNL     1      27.258   2.450  51.648  1.00  0.00    -0.238 OA
HETATM   23  H6  UNL     1      24.367   3.404  51.025  1.00  0.00     0.171 HD
BRANCH  21  24
HETATM   24  O1  UNL     1      25.649   1.943  52.640  1.00  0.00    -0.304 OA
BRANCH  24  25
HETATM   25  C2  UNL     1      24.835   0.802  52.483  1.00  0.00     0.176 C 
HETATM   26  C1  UNL     1      25.575  -0.389  53.030  1.00  0.00     0.034 C 
ENDBRANCH  24  25
ENDBRANCH  21  24
ENDBRANCH   1  20
BRANCH  13  27
HETATM   27  O3  UNL     1      24.171   7.369  46.126  1.00  0.00    -0.376 OA
HETATM   28  C14 UNL     1      24.170   8.017  44.893  1.00  0.00     0.203 C 
ENDBRANCH  13  27
TORSDOF 4
ENDMDL
MODEL 6
REMARK VINA RESULT:      -6.6      4.367      6.118
REMARK  4 active torsions:
REMARK  status: ('A' for Active; 'I' for Inactive)
REMARK    1  A    between atoms: C2_2  and  O1_3 
REMARK    2  A    between atoms: O1_3  and  C3_4 
REMARK       I    between atoms: C3_4  and  N1_6 
REMARK    3  A    between atoms: N1_6  and  C4_7 
REMARK    4  A    between atoms: C13_19  and  O3_20 
ROOT
HETATM    1  C4  UNL     1      26.806   5.264  49.324  1.00  0.00     0.036 C 
HETATM    2  C5  UNL     1      27.866   5.095  48.581  1.00  0.00     0.026 C 
HETATM    3  C6  UNL     1      28.004   6.489  47.986  1.00  0.00    -0.018 C 
HETATM    4  C7  UNL     1      28.826   7.163  47.122  1.00  0.00     0.027 C 
HETATM    5  C8  UNL     1      29.446   8.222  46.284  1.00  0.00     0.097 C 
HETATM    6  S1  UNL     1      28.572   9.932  46.668  1.00  0.00    -0.081 SA
HETATM    7  N2  UNL     1      29.219  10.698  47.901  1.00  0.00    -0.220 NA
HETATM    8  C9  UNL     1      28.566  11.063  49.055  1.00  0.00     0.241 A 
HETATM    9  N3  UNL     1      27.331  10.747  49.126  1.00  0.00    -0.244 NA
HETATM   10  C10 UNL     1      26.610  10.090  48.149  1.00  0.00     0.062 A 
HETATM   11  C11 UNL     1      25.310   9.719  48.513  1.00  0.00     0.064 A 
HETATM   12  C12 UNL     1      24.787   9.002  47.469  1.00  0.00     0.086 A 
HETATM   13  C13 UNL     1      25.381   8.684  46.260  1.00  0.00     0.138 A 
HETATM   14  C15 UNL     1      26.620   8.944  45.734  1.00  0.00     0.068 A 
HETATM   15  C16 UNL     1      26.750   9.586  46.972  1.00  0.00     0.108 A 
HETATM   16  O4  UNL     1      23.443   8.353  47.394  1.00  0.00    -0.348 OA
HETATM   17  C17 UNL     1      23.674   6.929  47.307  1.00  0.00     0.203 C 
HETATM   18  C18 UNL     1      24.319   6.443  48.549  1.00  0.00     0.002 C 
HETATM   19  C19 UNL     1      25.508   5.888  48.876  1.00  0.00     0.027 C 
ENDROOT
BRANCH   1  20
HETATM   20  N1  UNL     1      25.791   4.912  50.240  1.00  0.00    -0.303 N 
HETATM   21  C3  UNL     1      26.008   3.496  50.535  1.00  0.00     0.365 C 
HETATM   22  O2  UNL     1      26.896   2.684  50.105  1.00  0.00    -0.238 OA
HETATM   23  H6  UNL     1      24.979   5.011  50.861  1.00  0.00     0.171 HD
BRANCH  21  24
HETATM   24  O1  UNL     1      25.379   2.561  51.336  1.00  0.00    -0.304 OA
BRANCH  24  25
HETATM   25  C2  UNL     1      26.119   1.673  52.144  1.00  0.00     0.176 C 
HETATM   26  C1  UNL     1      26.036   2.145  53.570  1.00  0.00     0.034 C 
ENDBRANCH  24  25
ENDBRANCH  21  24
ENDBRANCH   1  20
BRANCH  13  27
HETATM   27  O3  UNL     1      24.851   7.998  45.202  1.00  0.00    -0.376 OA
HETATM   28  C14 UNL     1      25.150   8.271  43.869  1.00  0.00     0.203 C 
ENDBRANCH  13  27
TORSDOF 4
ENDMDL
MODEL 7
REMARK VINA RESULT:      -6.6      7.825     10.970
REMARK  4 active torsions:
REMARK  status: ('A' for Active; 'I' for Inactive)
REMARK    1  A    between atoms: C2_2  and  O1_3 
REMARK    2  A    between atoms: O1_3  and  C3_4 
REMARK       I    between atoms: C3_4  and  N1_6 
REMARK    3  A    between atoms: N1_6  and  C4_7 
REMARK    4  A    between atoms: C13_19  and  O3_20 
ROOT
HETATM    1  C4  UNL     1      29.682   9.020  48.904  1.00  0.00     0.036 C 
HETATM    2  C5  UNL     1      30.169  10.231  48.889  1.00  0.00     0.026 C 
HETATM    3  C6  UNL     1      31.200  10.095  47.779  1.00  0.00    -0.018 C 
HETATM    4  C7  UNL     1      32.132  10.867  47.138  1.00  0.00     0.027 C 
HETATM    5  C8  UNL     1      33.204  11.335  46.221  1.00  0.00     0.097 C 
HETATM    6  S1  UNL     1      33.577   9.930  44.908  1.00  0.00    -0.081 SA
HETATM    7  N2  UNL     1      32.625  10.000  43.637  1.00  0.00    -0.220 NA
HETATM    8  C9  UNL     1      31.776   9.007  43.211  1.00  0.00     0.241 A 
HETATM    9  N3  UNL     1      31.759   7.941  43.914  1.00  0.00    -0.244 NA
HETATM   10  C10 UNL     1      32.521   7.708  45.041  1.00  0.00     0.062 A 
HETATM   11  C11 UNL     1      32.223   6.527  45.731  1.00  0.00     0.064 A 
HETATM   12  C12 UNL     1      33.000   6.511  46.859  1.00  0.00     0.086 A 
HETATM   13  C13 UNL     1      33.926   7.449  47.280  1.00  0.00     0.138 A 
HETATM   14  C15 UNL     1      34.343   8.647  46.758  1.00  0.00     0.068 A 
HETATM   15  C16 UNL     1      33.411   8.274  45.781  1.00  0.00     0.108 A 
HETATM   16  O4  UNL     1      33.014   5.478  47.939  1.00  0.00    -0.348 OA
HETATM   17  C17 UNL     1      32.554   6.131  49.143  1.00  0.00     0.203 C 
HETATM   18  C18 UNL     1      31.147   6.566  48.980  1.00  0.00     0.002 C 
HETATM   19  C19 UNL     1      30.490   7.747  48.949  1.00  0.00     0.027 C 
ENDROOT
BRANCH   1  20
HETATM   20  N1  UNL     1      28.843   7.961  49.313  1.00  0.00    -0.303 N 
HETATM   21  C3  UNL     1      27.860   7.808  48.239  1.00  0.00     0.365 C 
HETATM   22  O2  UNL     1      27.722   8.447  47.142  1.00  0.00    -0.238 OA
HETATM   23  H6  UNL     1      28.468   7.198  49.888  1.00  0.00     0.171 HD
BRANCH  21  24
HETATM   24  O1  UNL     1      26.781   6.972  48.019  1.00  0.00    -0.304 OA
BRANCH  24  25
HETATM   25  C2  UNL     1      26.479   5.919  48.907  1.00  0.00     0.176 C 
HETATM   26  C1  UNL     1      27.472   4.810  48.686  1.00  0.00     0.034 C 
ENDBRANCH  24  25
ENDBRANCH  21  24
ENDBRANCH   1  20
BRANCH  13  27
HETATM   27  O3  UNL     1      34.728   7.421  48.388  1.00  0.00    -0.376 OA
HETATM   28  C14 UNL     1      35.982   8.024  48.457  1.00  0.00     0.203 C 
ENDBRANCH  13  27
TORSDOF 4
ENDMDL
MODEL 8
REMARK VINA RESULT:      -6.6      2.429      3.106
REMARK  4 active torsions:
REMARK  status: ('A' for Active; 'I' for Inactive)
REMARK    1  A    between atoms: C2_2  and  O1_3 
REMARK    2  A    between atoms: O1_3  and  C3_4 
REMARK       I    between atoms: C3_4  and  N1_6 
REMARK    3  A    between atoms: N1_6  and  C4_7 
REMARK    4  A    between atoms: C13_19  and  O3_20 
ROOT
HETATM    1  C4  UNL     1      25.410   3.343  50.665  1.00  0.00     0.036 C 
HETATM    2  C5  UNL     1      26.134   4.085  49.871  1.00  0.00     0.026 C 
HETATM    3  C6  UNL     1      25.065   5.019  49.324  1.00  0.00    -0.018 C 
HETATM    4  C7  UNL     1      24.965   6.071  48.453  1.00  0.00     0.027 C 
HETATM    5  C8  UNL     1      24.438   7.190  47.630  1.00  0.00     0.097 C 
HETATM    6  S1  UNL     1      22.567   7.512  48.114  1.00  0.00    -0.081 SA
HETATM    7  N2  UNL     1      22.407   8.502  49.348  1.00  0.00    -0.220 NA
HETATM    8  C9  UNL     1      21.790   8.209  50.541  1.00  0.00     0.241 A 
HETATM    9  N3  UNL     1      21.313   7.030  50.653  1.00  0.00    -0.244 NA
HETATM   10  C10 UNL     1      21.357   6.048  49.683  1.00  0.00     0.062 A 
HETATM   11  C11 UNL     1      20.902   4.787  50.087  1.00  0.00     0.064 A 
HETATM   12  C12 UNL     1      21.108   3.928  49.041  1.00  0.00     0.086 A 
HETATM   13  C13 UNL     1      21.648   4.201  47.796  1.00  0.00     0.138 A 
HETATM   14  C15 UNL     1      22.148   5.346  47.228  1.00  0.00     0.068 A 
HETATM   15  C16 UNL     1      21.778   5.846  48.483  1.00  0.00     0.108 A 
HETATM   16  O4  UNL     1      20.824   2.461  48.998  1.00  0.00    -0.348 OA
HETATM   17  C17 UNL     1      22.099   1.797  48.847  1.00  0.00     0.203 C 
HETATM   18  C18 UNL     1      22.943   2.040  50.041  1.00  0.00     0.002 C 
HETATM   19  C19 UNL     1      24.112   2.667  50.296  1.00  0.00     0.027 C 
ENDROOT
BRANCH   1  20
HETATM   20  N1  UNL     1      25.140   2.329  51.609  1.00  0.00    -0.303 N 
HETATM   21  C3  UNL     1      26.434   2.003  52.210  1.00  0.00     0.365 C 
HETATM   22  O2  UNL     1      27.597   2.482  51.988  1.00  0.00    -0.238 OA
HETATM   23  H6  UNL     1      24.606   1.657  52.173  1.00  0.00     0.171 HD
BRANCH  21  24
HETATM   24  O1  UNL     1      26.861   1.113  53.178  1.00  0.00    -0.304 OA
BRANCH  24  25
HETATM   25  C2  UNL     1      26.207  -0.120  53.378  1.00  0.00     0.176 C 
HETATM   26  C1  UNL     1      26.773  -1.121  52.407  1.00  0.00     0.034 C 
ENDBRANCH  24  25
ENDBRANCH  21  24
ENDBRANCH   1  20
BRANCH  13  27
HETATM   27  O3  UNL     1      21.825   3.355  46.736  1.00  0.00    -0.376 OA
HETATM   28  C14 UNL     1      21.871   3.771  45.407  1.00  0.00     0.203 C 
ENDBRANCH  13  27
TORSDOF 4
ENDMDL
MODEL 9
REMARK VINA RESULT:      -6.5     21.596     24.196
REMARK  4 active torsions:
REMARK  status: ('A' for Active; 'I' for Inactive)
REMARK    1  A    between atoms: C2_2  and  O1_3 
REMARK    2  A    between atoms: O1_3  and  C3_4 
REMARK       I    between atoms: C3_4  and  N1_6 
REMARK    3  A    between atoms: N1_6  and  C4_7 
REMARK    4  A    between atoms: C13_19  and  O3_20 
ROOT
HETATM    1  C4  UNL     1      38.067  -0.074  70.932  1.00  0.00     0.036 C 
HETATM    2  C5  UNL     1      38.555  -0.929  71.791  1.00  0.00     0.026 C 
HETATM    3  C6  UNL     1      39.718  -1.489  70.985  1.00  0.00    -0.018 C 
HETATM    4  C7  UNL     1      40.720  -2.410  71.128  1.00  0.00     0.027 C 
HETATM    5  C8  UNL     1      41.905  -3.273  70.880  1.00  0.00     0.097 C 
HETATM    6  S1  UNL     1      42.735  -2.745  69.187  1.00  0.00    -0.081 SA
HETATM    7  N2  UNL     1      43.782  -1.560  69.351  1.00  0.00    -0.220 NA
HETATM    8  C9  UNL     1      43.715  -0.334  68.734  1.00  0.00     0.241 A 
HETATM    9  N3  UNL     1      42.713  -0.145  67.966  1.00  0.00    -0.244 NA
HETATM   10  C10 UNL     1      41.715  -1.063  67.703  1.00  0.00     0.062 A 
HETATM   11  C11 UNL     1      40.640  -0.579  66.949  1.00  0.00     0.064 A 
HETATM   12  C12 UNL     1      39.714  -1.585  66.871  1.00  0.00     0.086 A 
HETATM   13  C13 UNL     1      39.781  -2.859  67.407  1.00  0.00     0.138 A 
HETATM   14  C15 UNL     1      40.725  -3.503  68.166  1.00  0.00     0.068 A 
HETATM   15  C16 UNL     1      41.358  -2.265  68.001  1.00  0.00     0.108 A 
HETATM   16  O4  UNL     1      38.377  -1.542  66.206  1.00  0.00    -0.348 OA
HETATM   17  C17 UNL     1      37.390  -1.699  67.250  1.00  0.00     0.203 C 
HETATM   18  C18 UNL     1      37.447  -0.548  68.182  1.00  0.00     0.002 C 
HETATM   19  C19 UNL     1      37.749  -0.365  69.486  1.00  0.00     0.027 C 
ENDROOT
BRANCH   1  20
HETATM   20  N1  UNL     1      37.203   0.930  70.445  1.00  0.00    -0.303 N 
HETATM   21  C3  UNL     1      37.914   2.191  70.658  1.00  0.00     0.365 C 
HETATM   22  O2  UNL     1      39.065   2.421  71.164  1.00  0.00    -0.238 OA
HETATM   23  H6  UNL     1      36.377   1.363  70.016  1.00  0.00     0.171 HD
BRANCH  21  24
HETATM   24  O1  UNL     1      37.632   3.521  70.411  1.00  0.00    -0.304 OA
BRANCH  24  25
HETATM   25  C2  UNL     1      38.205   4.548  71.189  1.00  0.00     0.176 C 
HETATM   26  C1  UNL     1      37.282   5.736  71.162  1.00  0.00     0.034 C 
ENDBRANCH  24  25
ENDBRANCH  21  24
ENDBRANCH   1  20
BRANCH  13  27
HETATM   27  O3  UNL     1      38.875  -3.879  67.305  1.00  0.00    -0.376 OA
HETATM   28  C14 UNL     1      39.172  -5.135  66.780  1.00  0.00     0.203 C 
ENDBRANCH  13  27
TORSDOF 4
ENDMDL
