MODEL 1
REMARK VINA RESULT:      -9.0      0.000      0.000
REMARK  5 active torsions:
REMARK  status: ('A' for Active; 'I' for Inactive)
REMARK    1  A    between atoms: C2_2  and  O1_3 
REMARK    2  A    between atoms: O1_3  and  C3_4 
REMARK    3  A    between atoms: C7_9  and  N2_10 
REMARK    4  A    between atoms: C8_11  and  N3_12 
REMARK    5  A    between atoms: N3_12  and  C9_13 
ROOT
HETATM    1  C3  UNL     1      21.143   1.845  49.195  1.00  0.00     0.143 C 
HETATM    2  C4  UNL     1      21.487   1.649  50.427  1.00  0.00     0.128 C 
HETATM    3  C5  UNL     1      22.039   1.208  51.725  1.00  0.00     0.040 C 
HETATM    4  N1  UNL     1      21.343   0.209  52.052  1.00  0.00    -0.266 NA
HETATM    5  C6  UNL     1      21.424  -0.624  53.210  1.00  0.00     0.142 C 
HETATM    6  C7  UNL     1      22.521  -0.780  53.929  1.00  0.00     0.050 C 
HETATM    7  C8  UNL     1      23.871  -0.182  53.770  1.00  0.00     0.052 C 
HETATM    8  C15 UNL     1      24.085   0.979  53.076  1.00  0.00     0.022 C 
HETATM    9  C16 UNL     1      23.156   1.904  52.344  1.00  0.00     0.047 A 
HETATM   10  C17 UNL     1      23.813   3.058  52.600  1.00  0.00     0.049 A 
HETATM   11  C18 UNL     1      23.276   4.330  52.078  1.00  0.00    -0.045 A 
HETATM   12  O2  UNL     1      22.668   3.274  51.893  1.00  0.00     0.000 OA
HETATM   13  C19 UNL     1      22.761   5.546  51.576  1.00  0.00     0.006 C 
HETATM   14  C20 UNL     1      21.609   5.557  50.972  1.00  0.00    -0.005 C 
HETATM   15  C21 UNL     1      20.334   5.243  50.369  1.00  0.00     0.169 C 
HETATM   16  N4  UNL     1      19.860   3.918  50.524  1.00  0.00    -0.327 N 
HETATM   17  C22 UNL     1      19.469   3.596  51.884  1.00  0.00     0.171 C 
HETATM   18  N5  UNL     1      20.382   2.904  49.804  1.00  0.00    -0.285 N 
HETATM   19  H24 UNL     1      19.416   3.187  49.482  1.00  0.00     0.188 HD
ENDROOT
BRANCH   7  20
HETATM   20  N3  UNL     1      25.052  -0.796  54.337  1.00  0.00    -0.355 N 
HETATM   21  H10 UNL     1      24.942  -1.592  55.002  1.00  0.00     0.166 HD
BRANCH  20  22
HETATM   22  C9  UNL     1      26.458  -0.593  54.228  1.00  0.00     0.032 A 
HETATM   23  C10 UNL     1      27.025  -1.319  53.211  1.00  0.00     0.032 A 
HETATM   24  C11 UNL     1      28.372  -1.212  52.999  1.00  0.00     0.044 A 
HETATM   25  C12 UNL     1      29.145  -0.389  53.794  1.00  0.00     0.116 A 
HETATM   26  F1  UNL     1      30.475  -0.288  53.578  1.00  0.00    -0.206 F 
HETATM   27  C13 UNL     1      28.500   0.316  54.806  1.00  0.00     0.044 A 
HETATM   28  C14 UNL     1      27.143   0.254  55.073  1.00  0.00     0.032 A 
ENDBRANCH  20  22
ENDBRANCH   7  20
BRANCH   6  29
HETATM   29  N2  UNL     1      22.548  -1.636  55.092  1.00  0.00    -0.300 NA
HETATM   30  H8  UNL     1      22.687  -2.651  54.937  1.00  0.00     0.124 HD
HETATM   31  H9  UNL     1      22.693  -2.649  54.844  1.00  0.00     0.124 HD
ENDBRANCH   6  29
BRANCH   1  32
HETATM   32  O1  UNL     1      20.908   1.884  47.857  1.00  0.00    -0.338 OA
BRANCH  32  33
HETATM   33  C2  UNL     1      20.596   3.081  47.155  1.00  0.00     0.172 C 
HETATM   34  C1  UNL     1      21.877   3.572  46.556  1.00  0.00     0.034 C 
ENDBRANCH  32  33
ENDBRANCH   1  32
TORSDOF 5
ENDMDL
MODEL 2
REMARK VINA RESULT:      -8.5      2.021      2.318
REMARK  5 active torsions:
REMARK  status: ('A' for Active; 'I' for Inactive)
REMARK    1  A    between atoms: C2_2  and  O1_3 
REMARK    2  A    between atoms: O1_3  and  C3_4 
REMARK    3  A    between atoms: C7_9  and  N2_10 
REMARK    4  A    between atoms: C8_11  and  N3_12 
REMARK    5  A    between atoms: N3_12  and  C9_13 
ROOT
HETATM    1  C3  UNL     1      22.310   3.019  47.751  1.00  0.00     0.143 C 
HETATM    2  C4  UNL     1      22.664   2.867  48.987  1.00  0.00     0.128 C 
HETATM    3  C5  UNL     1      23.097   2.415  50.325  1.00  0.00     0.040 C 
HETATM    4  N1  UNL     1      22.066   1.915  50.850  1.00  0.00    -0.266 NA
HETATM    5  C6  UNL     1      21.890   1.319  52.137  1.00  0.00     0.142 C 
HETATM    6  C7  UNL     1      22.870   0.777  52.837  1.00  0.00     0.050 C 
HETATM    7  C8  UNL     1      24.318   0.647  52.529  1.00  0.00     0.052 C 
HETATM    8  C15 UNL     1      24.954   1.459  51.629  1.00  0.00     0.022 C 
HETATM    9  C16 UNL     1      24.471   2.592  50.772  1.00  0.00     0.047 A 
HETATM   10  C17 UNL     1      25.603   3.331  50.794  1.00  0.00     0.049 A 
HETATM   11  C18 UNL     1      25.646   4.614  50.066  1.00  0.00    -0.045 A 
HETATM   12  O2  UNL     1      24.609   3.949  50.096  1.00  0.00     0.000 OA
HETATM   13  C19 UNL     1      25.686   5.843  49.369  1.00  0.00     0.006 C 
HETATM   14  C20 UNL     1      24.604   6.301  48.810  1.00  0.00    -0.005 C 
HETATM   15  C21 UNL     1      23.267   6.533  48.315  1.00  0.00     0.169 C 
HETATM   16  N4  UNL     1      22.264   5.620  48.723  1.00  0.00    -0.327 N 
HETATM   17  C22 UNL     1      21.925   5.719  50.130  1.00  0.00     0.171 C 
HETATM   18  N5  UNL     1      22.185   4.386  48.182  1.00  0.00    -0.285 N 
HETATM   19  H24 UNL     1      21.423   5.037  47.844  1.00  0.00     0.188 HD
ENDROOT
BRANCH   7  20
HETATM   20  N3  UNL     1      25.147  -0.356  53.160  1.00  0.00    -0.355 N 
HETATM   21  H10 UNL     1      24.706  -1.237  53.506  1.00  0.00     0.166 HD
BRANCH  20  22
HETATM   22  C9  UNL     1      26.531  -0.485  53.471  1.00  0.00     0.032 A 
HETATM   23  C10 UNL     1      27.148  -1.483  52.758  1.00  0.00     0.032 A 
HETATM   24  C11 UNL     1      28.481  -1.708  52.964  1.00  0.00     0.044 A 
HETATM   25  C12 UNL     1      29.191  -0.947  53.871  1.00  0.00     0.116 A 
HETATM   26  F1  UNL     1      30.508  -1.176  54.068  1.00  0.00    -0.206 F 
HETATM   27  C13 UNL     1      28.498   0.046  54.557  1.00  0.00     0.044 A 
HETATM   28  C14 UNL     1      27.153   0.327  54.396  1.00  0.00     0.032 A 
ENDBRANCH  20  22
ENDBRANCH   7  20
BRANCH   6  29
HETATM   29  N2  UNL     1      22.637   0.187  54.134  1.00  0.00    -0.300 NA
HETATM   30  H8  UNL     1      22.365   0.822  54.908  1.00  0.00     0.124 HD
HETATM   31  H9  UNL     1      22.367   0.902  54.859  1.00  0.00     0.124 HD
ENDBRANCH   6  29
BRANCH   1  32
HETATM   32  O1  UNL     1      21.970   2.967  46.436  1.00  0.00    -0.338 OA
BRANCH  32  33
HETATM   33  C2  UNL     1      21.942   4.111  45.593  1.00  0.00     0.172 C 
HETATM   34  C1  UNL     1      20.793   3.921  44.651  1.00  0.00     0.034 C 
ENDBRANCH  32  33
ENDBRANCH   1  32
TORSDOF 5
ENDMDL
MODEL 3
REMARK VINA RESULT:      -8.5      4.509      5.520
REMARK  5 active torsions:
REMARK  status: ('A' for Active; 'I' for Inactive)
REMARK    1  A    between atoms: C2_2  and  O1_3 
REMARK    2  A    between atoms: O1_3  and  C3_4 
REMARK    3  A    between atoms: C7_9  and  N2_10 
REMARK    4  A    between atoms: C8_11  and  N3_12 
REMARK    5  A    between atoms: N3_12  and  C9_13 
ROOT
HETATM    1  C3  UNL     1      23.781   6.877  47.356  1.00  0.00     0.143 C 
HETATM    2  C4  UNL     1      24.351   6.334  48.384  1.00  0.00     0.128 C 
HETATM    3  C5  UNL     1      24.841   5.484  49.489  1.00  0.00     0.040 C 
HETATM    4  N1  UNL     1      23.941   5.546  50.370  1.00  0.00    -0.266 NA
HETATM    5  C6  UNL     1      23.873   4.922  51.654  1.00  0.00     0.142 C 
HETATM    6  C7  UNL     1      24.519   3.815  51.970  1.00  0.00     0.050 C 
HETATM    7  C8  UNL     1      25.438   2.971  51.163  1.00  0.00     0.052 C 
HETATM    8  C15 UNL     1      26.101   3.448  50.063  1.00  0.00     0.022 C 
HETATM    9  C16 UNL     1      26.118   4.794  49.399  1.00  0.00     0.047 A 
HETATM   10  C17 UNL     1      27.404   4.772  48.981  1.00  0.00     0.049 A 
HETATM   11  C18 UNL     1      27.947   5.928  48.241  1.00  0.00    -0.045 A 
HETATM   12  O2  UNL     1      26.791   5.949  48.670  1.00  0.00     0.000 OA
HETATM   13  C19 UNL     1      28.464   7.036  47.533  1.00  0.00     0.006 C 
HETATM   14  C20 UNL     1      27.736   8.105  47.388  1.00  0.00    -0.005 C 
HETATM   15  C21 UNL     1      26.706   9.117  47.404  1.00  0.00     0.169 C 
HETATM   16  N4  UNL     1      25.554   8.848  48.182  1.00  0.00    -0.327 N 
HETATM   17  C22 UNL     1      25.802   8.859  49.612  1.00  0.00     0.171 C 
HETATM   18  N5  UNL     1      24.612   7.983  47.752  1.00  0.00    -0.285 N 
HETATM   19  H24 UNL     1      24.306   8.993  47.691  1.00  0.00     0.188 HD
ENDROOT
BRANCH   7  20
HETATM   20  N3  UNL     1      25.683   1.583  51.486  1.00  0.00    -0.355 N 
HETATM   21  H10 UNL     1      25.003   0.858  51.168  1.00  0.00     0.166 HD
BRANCH  20  22
HETATM   22  C9  UNL     1      26.695   0.864  52.186  1.00  0.00     0.032 A 
HETATM   23  C10 UNL     1      27.641   1.683  52.748  1.00  0.00     0.032 A 
HETATM   24  C11 UNL     1      28.668   1.115  53.450  1.00  0.00     0.044 A 
HETATM   25  C12 UNL     1      28.751  -0.256  53.589  1.00  0.00     0.116 A 
HETATM   26  F1  UNL     1      29.768  -0.809  54.285  1.00  0.00    -0.206 F 
HETATM   27  C13 UNL     1      27.755  -1.023  52.991  1.00  0.00     0.044 A 
HETATM   28  C14 UNL     1      26.689  -0.512  52.269  1.00  0.00     0.032 A 
ENDBRANCH  20  22
ENDBRANCH   7  20
BRANCH   6  29
HETATM   29  N2  UNL     1      24.415   3.226  53.284  1.00  0.00    -0.300 NA
HETATM   30  H8  UNL     1      23.589   3.477  53.858  1.00  0.00     0.124 HD
HETATM   31  H9  UNL     1      23.548   3.535  53.796  1.00  0.00     0.124 HD
ENDBRANCH   6  29
BRANCH   1  32
HETATM   32  O1  UNL     1      23.079   7.260  46.257  1.00  0.00    -0.338 OA
BRANCH  32  33
HETATM   33  C2  UNL     1      23.481   8.328  45.409  1.00  0.00     0.172 C 
HETATM   34  C1  UNL     1      24.080   7.703  44.188  1.00  0.00     0.034 C 
ENDBRANCH  32  33
ENDBRANCH   1  32
TORSDOF 5
ENDMDL
MODEL 4
REMARK VINA RESULT:      -8.4      4.096      6.810
REMARK  5 active torsions:
REMARK  status: ('A' for Active; 'I' for Inactive)
REMARK    1  A    between atoms: C2_2  and  O1_3 
REMARK    2  A    between atoms: O1_3  and  C3_4 
REMARK    3  A    between atoms: C7_9  and  N2_10 
REMARK    4  A    between atoms: C8_11  and  N3_12 
REMARK    5  A    between atoms: N3_12  and  C9_13 
ROOT
HETATM    1  C3  UNL     1      23.712   1.103  53.030  1.00  0.00     0.143 C 
HETATM    2  C4  UNL     1      23.515   2.200  52.371  1.00  0.00     0.128 C 
HETATM    3  C5  UNL     1      23.577   3.480  51.634  1.00  0.00     0.040 C 
HETATM    4  N1  UNL     1      23.696   4.363  52.526  1.00  0.00    -0.266 NA
HETATM    5  C6  UNL     1      23.805   5.782  52.399  1.00  0.00     0.142 C 
HETATM    6  C7  UNL     1      24.251   6.393  51.317  1.00  0.00     0.050 C 
HETATM    7  C8  UNL     1      24.719   5.838  50.020  1.00  0.00     0.052 C 
HETATM    8  C15 UNL     1      24.363   4.590  49.582  1.00  0.00     0.022 C 
HETATM    9  C16 UNL     1      23.503   3.517  50.182  1.00  0.00     0.047 A 
HETATM   10  C17 UNL     1      23.002   3.022  49.027  1.00  0.00     0.049 A 
HETATM   11  C18 UNL     1      22.049   1.895  49.074  1.00  0.00    -0.045 A 
HETATM   12  O2  UNL     1      22.481   2.389  50.117  1.00  0.00     0.000 OA
HETATM   13  C19 UNL     1      21.138   0.816  49.121  1.00  0.00     0.006 C 
HETATM   14  C20 UNL     1      20.708   0.386  50.271  1.00  0.00    -0.005 C 
HETATM   15  C21 UNL     1      20.423   0.151  51.667  1.00  0.00     0.169 C 
HETATM   16  N4  UNL     1      20.970   1.070  52.596  1.00  0.00    -0.327 N 
HETATM   17  C22 UNL     1      20.364   2.387  52.536  1.00  0.00     0.171 C 
HETATM   18  N5  UNL     1      22.279   1.035  52.920  1.00  0.00    -0.285 N 
HETATM   19  H24 UNL     1      21.652   0.667  53.687  1.00  0.00     0.188 HD
ENDROOT
BRANCH   7  20
HETATM   20  N3  UNL     1      25.591   6.583  49.139  1.00  0.00    -0.355 N 
HETATM   21  H10 UNL     1      25.205   7.396  48.610  1.00  0.00     0.166 HD
BRANCH  20  22
HETATM   22  C9  UNL     1      26.961   6.505  48.756  1.00  0.00     0.032 A 
HETATM   23  C10 UNL     1      27.543   7.737  48.597  1.00  0.00     0.032 A 
HETATM   24  C11 UNL     1      28.859   7.800  48.231  1.00  0.00     0.044 A 
HETATM   25  C12 UNL     1      29.587   6.645  48.025  1.00  0.00     0.116 A 
HETATM   26  F1  UNL     1      30.887   6.715  47.664  1.00  0.00    -0.206 F 
HETATM   27  C13 UNL     1      28.929   5.431  48.204  1.00  0.00     0.044 A 
HETATM   28  C14 UNL     1      27.602   5.298  48.575  1.00  0.00     0.032 A 
ENDBRANCH  20  22
ENDBRANCH   7  20
BRANCH   6  29
HETATM   29  N2  UNL     1      24.341   7.832  51.241  1.00  0.00    -0.300 NA
HETATM   30  H8  UNL     1      24.023   8.287  50.366  1.00  0.00     0.124 HD
HETATM   31  H9  UNL     1      23.998   8.210  50.319  1.00  0.00     0.124 HD
ENDBRANCH   6  29
BRANCH   1  32
HETATM   32  O1  UNL     1      24.127   0.004  53.712  1.00  0.00    -0.338 OA
BRANCH  32  33
HETATM   33  C2  UNL     1      25.496  -0.280  53.974  1.00  0.00     0.172 C 
HETATM   34  C1  UNL     1      26.153  -0.482  52.644  1.00  0.00     0.034 C 
ENDBRANCH  32  33
ENDBRANCH   1  32
TORSDOF 5
ENDMDL
MODEL 5
REMARK VINA RESULT:      -8.3      5.769      7.237
REMARK  5 active torsions:
REMARK  status: ('A' for Active; 'I' for Inactive)
REMARK    1  A    between atoms: C2_2  and  O1_3 
REMARK    2  A    between atoms: O1_3  and  C3_4 
REMARK    3  A    between atoms: C7_9  and  N2_10 
REMARK    4  A    between atoms: C8_11  and  N3_12 
REMARK    5  A    between atoms: N3_12  and  C9_13 
ROOT
HETATM    1  C3  UNL     1      25.561   8.689  46.888  1.00  0.00     0.143 C 
HETATM    2  C4  UNL     1      25.681   7.940  47.937  1.00  0.00     0.128 C 
HETATM    3  C5  UNL     1      25.574   6.962  49.040  1.00  0.00     0.040 C 
HETATM    4  N1  UNL     1      24.730   7.458  49.834  1.00  0.00    -0.266 NA
HETATM    5  C6  UNL     1      24.229   6.951  51.072  1.00  0.00     0.142 C 
HETATM    6  C7  UNL     1      24.218   5.670  51.392  1.00  0.00     0.050 C 
HETATM    7  C8  UNL     1      24.690   4.482  50.634  1.00  0.00     0.052 C 
HETATM    8  C15 UNL     1      25.615   4.572  49.628  1.00  0.00     0.022 C 
HETATM    9  C16 UNL     1      26.356   5.735  49.037  1.00  0.00     0.047 A 
HETATM   10  C17 UNL     1      27.505   5.086  48.742  1.00  0.00     0.049 A 
HETATM   11  C18 UNL     1      28.617   5.827  48.116  1.00  0.00    -0.045 A 
HETATM   12  O2  UNL     1      27.579   6.412  48.434  1.00  0.00     0.000 OA
HETATM   13  C19 UNL     1      29.680   6.539  47.516  1.00  0.00     0.006 C 
HETATM   14  C20 UNL     1      29.584   7.827  47.357  1.00  0.00    -0.005 C 
HETATM   15  C21 UNL     1      29.182   9.214  47.326  1.00  0.00     0.169 C 
HETATM   16  N4  UNL     1      27.969   9.544  47.976  1.00  0.00    -0.327 N 
HETATM   17  C22 UNL     1      28.036   9.437  49.422  1.00  0.00     0.171 C 
HETATM   18  N5  UNL     1      26.777   9.249  47.417  1.00  0.00    -0.285 N 
HETATM   19  H24 UNL     1      27.010  10.279  47.377  1.00  0.00     0.188 HD
ENDROOT
BRANCH   7  20
HETATM   20  N3  UNL     1      24.193   3.152  50.909  1.00  0.00    -0.355 N 
HETATM   21  H10 UNL     1      23.262   2.869  50.533  1.00  0.00     0.166 HD
BRANCH  20  22
HETATM   22  C9  UNL     1      24.670   2.014  51.622  1.00  0.00     0.032 A 
HETATM   23  C10 UNL     1      23.688   1.391  52.351  1.00  0.00     0.032 A 
HETATM   24  C11 UNL     1      24.017   0.282  53.081  1.00  0.00     0.044 A 
HETATM   25  C12 UNL     1      25.310  -0.199  53.085  1.00  0.00     0.116 A 
HETATM   26  F1  UNL     1      25.627  -1.296  53.808  1.00  0.00    -0.206 F 
HETATM   27  C13 UNL     1      26.252   0.486  52.321  1.00  0.00     0.044 A 
HETATM   28  C14 UNL     1      25.987   1.610  51.560  1.00  0.00     0.032 A 
ENDBRANCH  20  22
ENDBRANCH   7  20
BRANCH   6  29
HETATM   29  N2  UNL     1      23.700   5.210  52.659  1.00  0.00    -0.300 NA
HETATM   30  H8  UNL     1      23.841   5.821  53.485  1.00  0.00     0.124 HD
HETATM   31  H9  UNL     1      23.888   5.890  53.442  1.00  0.00     0.124 HD
ENDBRANCH   6  29
BRANCH   1  32
HETATM   32  O1  UNL     1      25.256   9.364  45.749  1.00  0.00    -0.338 OA
BRANCH  32  33
HETATM   33  C2  UNL     1      26.223   9.708  44.765  1.00  0.00     0.172 C 
HETATM   34  C1  UNL     1      26.493   8.465  43.976  1.00  0.00     0.034 C 
ENDBRANCH  32  33
ENDBRANCH   1  32
TORSDOF 5
ENDMDL
MODEL 6
REMARK VINA RESULT:      -7.7      3.700      5.686
REMARK  5 active torsions:
REMARK  status: ('A' for Active; 'I' for Inactive)
REMARK    1  A    between atoms: C2_2  and  O1_3 
REMARK    2  A    between atoms: O1_3  and  C3_4 
REMARK    3  A    between atoms: C7_9  and  N2_10 
REMARK    4  A    between atoms: C8_11  and  N3_12 
REMARK    5  A    between atoms: N3_12  and  C9_13 
ROOT
HETATM    1  C3  UNL     1      25.560   6.391  48.965  1.00  0.00     0.143 C 
HETATM    2  C4  UNL     1      24.478   5.694  49.101  1.00  0.00     0.128 C 
HETATM    3  C5  UNL     1      23.397   4.749  49.451  1.00  0.00     0.040 C 
HETATM    4  N1  UNL     1      23.662   3.698  48.807  1.00  0.00    -0.266 NA
HETATM    5  C6  UNL     1      22.963   2.453  48.760  1.00  0.00     0.142 C 
HETATM    6  C7  UNL     1      22.167   2.018  49.720  1.00  0.00     0.050 C 
HETATM    7  C8  UNL     1      21.786   2.643  51.013  1.00  0.00     0.052 C 
HETATM    8  C15 UNL     1      21.878   3.991  51.234  1.00  0.00     0.022 C 
HETATM    9  C16 UNL     1      22.333   5.129  50.367  1.00  0.00     0.047 A 
HETATM   10  C17 UNL     1      21.494   6.072  50.853  1.00  0.00     0.049 A 
HETATM   11  C18 UNL     1      21.540   7.439  50.299  1.00  0.00    -0.045 A 
HETATM   12  O2  UNL     1      22.264   6.555  49.838  1.00  0.00     0.000 OA
HETATM   13  C19 UNL     1      21.586   8.747  49.767  1.00  0.00     0.006 C 
HETATM   14  C20 UNL     1      22.351   9.001  48.746  1.00  0.00    -0.005 C 
HETATM   15  C21 UNL     1      23.274   8.959  47.636  1.00  0.00     0.169 C 
HETATM   16  N4  UNL     1      23.782   7.688  47.272  1.00  0.00    -0.327 N 
HETATM   17  C22 UNL     1      22.788   6.814  46.676  1.00  0.00     0.171 C 
HETATM   18  N5  UNL     1      24.735   7.082  48.009  1.00  0.00    -0.285 N 
HETATM   19  H24 UNL     1      25.100   7.465  47.094  1.00  0.00     0.188 HD
ENDROOT
BRANCH   7  20
HETATM   20  N3  UNL     1      21.298   1.859  52.127  1.00  0.00    -0.355 N 
HETATM   21  H10 UNL     1      20.309   1.977  52.437  1.00  0.00     0.166 HD
BRANCH  20  22
HETATM   22  C9  UNL     1      21.850   0.878  53.001  1.00  0.00     0.032 A 
HETATM   23  C10 UNL     1      20.930   0.374  53.885  1.00  0.00     0.032 A 
HETATM   24  C11 UNL     1      21.333  -0.579  54.780  1.00  0.00     0.044 A 
HETATM   25  C12 UNL     1      22.640  -1.022  54.793  1.00  0.00     0.116 A 
HETATM   26  F1  UNL     1      23.030  -1.964  55.679  1.00  0.00    -0.206 F 
HETATM   27  C13 UNL     1      23.516  -0.464  53.866  1.00  0.00     0.044 A 
HETATM   28  C14 UNL     1      23.174   0.500  52.934  1.00  0.00     0.032 A 
ENDBRANCH  20  22
ENDBRANCH   7  20
BRANCH   6  29
HETATM   29  N2  UNL     1      21.484   0.750  49.621  1.00  0.00    -0.300 NA
HETATM   30  H8  UNL     1      21.040   0.514  48.715  1.00  0.00     0.124 HD
HETATM   31  H9  UNL     1      21.063   0.592  48.668  1.00  0.00     0.124 HD
ENDBRANCH   6  29
BRANCH   1  32
HETATM   32  O1  UNL     1      26.779   6.993  48.971  1.00  0.00    -0.338 OA
BRANCH  32  33
HETATM   33  C2  UNL     1      27.875   6.540  48.187  1.00  0.00     0.172 C 
HETATM   34  C1  UNL     1      28.052   5.086  48.498  1.00  0.00     0.034 C 
ENDBRANCH  32  33
ENDBRANCH   1  32
TORSDOF 5
ENDMDL
MODEL 7
REMARK VINA RESULT:      -7.7      7.624      9.199
REMARK  5 active torsions:
REMARK  status: ('A' for Active; 'I' for Inactive)
REMARK    1  A    between atoms: C2_2  and  O1_3 
REMARK    2  A    between atoms: O1_3  and  C3_4 
REMARK    3  A    between atoms: C7_9  and  N2_10 
REMARK    4  A    between atoms: C8_11  and  N3_12 
REMARK    5  A    between atoms: N3_12  and  C9_13 
ROOT
HETATM    1  C3  UNL     1      28.610   9.355  46.213  1.00  0.00     0.143 C 
HETATM    2  C4  UNL     1      28.322   8.591  47.218  1.00  0.00     0.128 C 
HETATM    3  C5  UNL     1      27.757   7.653  48.211  1.00  0.00     0.040 C 
HETATM    4  N1  UNL     1      26.873   8.316  48.818  1.00  0.00    -0.266 NA
HETATM    5  C6  UNL     1      26.002   7.922  49.880  1.00  0.00     0.142 C 
HETATM    6  C7  UNL     1      25.648   6.672  50.117  1.00  0.00     0.050 C 
HETATM    7  C8  UNL     1      26.026   5.415  49.421  1.00  0.00     0.052 C 
HETATM    8  C15 UNL     1      27.158   5.307  48.658  1.00  0.00     0.022 C 
HETATM    9  C16 UNL     1      28.243   6.287  48.318  1.00  0.00     0.047 A 
HETATM   10  C17 UNL     1      29.268   5.406  48.256  1.00  0.00     0.049 A 
HETATM   11  C18 UNL     1      30.625   5.893  47.942  1.00  0.00    -0.045 A 
HETATM   12  O2  UNL     1      29.688   6.686  48.047  1.00  0.00     0.000 OA
HETATM   13  C19 UNL     1      31.924   6.361  47.641  1.00  0.00     0.006 C 
HETATM   14  C20 UNL     1      32.140   7.640  47.536  1.00  0.00    -0.005 C 
HETATM   15  C21 UNL     1      32.055   9.081  47.492  1.00  0.00     0.169 C 
HETATM   16  N4  UNL     1      30.819   9.662  47.867  1.00  0.00    -0.327 N 
HETATM   17  C22 UNL     1      30.522   9.535  49.281  1.00  0.00     0.171 C 
HETATM   18  N5  UNL     1      29.757   9.635  47.035  1.00  0.00    -0.285 N 
HETATM   19  H24 UNL     1      30.203  10.591  47.107  1.00  0.00     0.188 HD
ENDROOT
BRANCH   7  20
HETATM   20  N3  UNL     1      25.211   4.222  49.500  1.00  0.00    -0.355 N 
HETATM   21  H10 UNL     1      24.480   4.056  48.775  1.00  0.00     0.166 HD
BRANCH  20  22
HETATM   22  C9  UNL     1      25.124   3.105  50.381  1.00  0.00     0.032 A 
HETATM   23  C10 UNL     1      26.353   2.628  50.761  1.00  0.00     0.032 A 
HETATM   24  C11 UNL     1      26.408   1.556  51.609  1.00  0.00     0.044 A 
HETATM   25  C12 UNL     1      25.248   0.966  52.071  1.00  0.00     0.116 A 
HETATM   26  F1  UNL     1      25.311  -0.093  52.908  1.00  0.00    -0.206 F 
HETATM   27  C13 UNL     1      24.039   1.504  51.641  1.00  0.00     0.044 A 
HETATM   28  C14 UNL     1      23.913   2.587  50.788  1.00  0.00     0.032 A 
ENDBRANCH  20  22
ENDBRANCH   7  20
BRANCH   6  29
HETATM   29  N2  UNL     1      24.763   6.328  51.204  1.00  0.00    -0.300 NA
HETATM   30  H8  UNL     1      24.810   5.360  51.573  1.00  0.00     0.124 HD
HETATM   31  H9  UNL     1      24.876   5.328  51.515  1.00  0.00     0.124 HD
ENDBRANCH   6  29
BRANCH   1  32
HETATM   32  O1  UNL     1      28.728  10.086  45.073  1.00  0.00    -0.338 OA
BRANCH  32  33
HETATM   33  C2  UNL     1      28.184  11.391  44.924  1.00  0.00     0.172 C 
HETATM   34  C1  UNL     1      29.335  12.304  44.634  1.00  0.00     0.034 C 
ENDBRANCH  32  33
ENDBRANCH   1  32
TORSDOF 5
ENDMDL
MODEL 8
REMARK VINA RESULT:      -7.4      3.734      5.694
REMARK  5 active torsions:
REMARK  status: ('A' for Active; 'I' for Inactive)
REMARK    1  A    between atoms: C2_2  and  O1_3 
REMARK    2  A    between atoms: O1_3  and  C3_4 
REMARK    3  A    between atoms: C7_9  and  N2_10 
REMARK    4  A    between atoms: C8_11  and  N3_12 
REMARK    5  A    between atoms: N3_12  and  C9_13 
ROOT
HETATM    1  C3  UNL     1      21.345   7.247  48.582  1.00  0.00     0.143 C 
HETATM    2  C4  UNL     1      22.353   6.440  48.489  1.00  0.00     0.128 C 
HETATM    3  C5  UNL     1      23.556   5.599  48.655  1.00  0.00     0.040 C 
HETATM    4  N1  UNL     1      24.528   6.386  48.495  1.00  0.00    -0.266 NA
HETATM    5  C6  UNL     1      25.933   6.129  48.546  1.00  0.00     0.142 C 
HETATM    6  C7  UNL     1      26.474   5.124  49.210  1.00  0.00     0.050 C 
HETATM    7  C8  UNL     1      25.840   4.051  50.019  1.00  0.00     0.052 C 
HETATM    8  C15 UNL     1      24.530   3.685  49.859  1.00  0.00     0.022 C 
HETATM    9  C16 UNL     1      23.448   4.177  48.943  1.00  0.00     0.047 A 
HETATM   10  C17 UNL     1      22.803   3.000  48.777  1.00  0.00     0.049 A 
HETATM   11  C18 UNL     1      21.608   2.943  47.914  1.00  0.00    -0.045 A 
HETATM   12  O2  UNL     1      22.235   3.997  48.041  1.00  0.00     0.000 OA
HETATM   13  C19 UNL     1      20.463   2.891  47.087  1.00  0.00     0.006 C 
HETATM   14  C20 UNL     1      20.109   3.945  46.410  1.00  0.00    -0.005 C 
HETATM   15  C21 UNL     1      19.985   5.248  45.801  1.00  0.00     0.169 C 
HETATM   16  N4  UNL     1      21.032   6.171  46.042  1.00  0.00    -0.327 N 
HETATM   17  C22 UNL     1      22.280   5.817  45.391  1.00  0.00     0.171 C 
HETATM   18  N5  UNL     1      21.143   6.803  47.228  1.00  0.00    -0.285 N 
HETATM   19  H24 UNL     1      20.796   7.433  46.454  1.00  0.00     0.188 HD
ENDROOT
BRANCH   7  20
HETATM   20  N3  UNL     1      26.571   3.327  51.036  1.00  0.00    -0.355 N 
HETATM   21  H10 UNL     1      27.545   3.620  51.268  1.00  0.00     0.166 HD
BRANCH  20  22
HETATM   22  C9  UNL     1      26.301   2.218  51.889  1.00  0.00     0.032 A 
HETATM   23  C10 UNL     1      26.820   1.040  51.413  1.00  0.00     0.032 A 
HETATM   24  C11 UNL     1      26.632  -0.102  52.141  1.00  0.00     0.044 A 
HETATM   25  C12 UNL     1      25.932  -0.070  53.330  1.00  0.00     0.116 A 
HETATM   26  F1  UNL     1      25.750  -1.203  54.044  1.00  0.00    -0.206 F 
HETATM   27  C13 UNL     1      25.434   1.161  53.749  1.00  0.00     0.044 A 
HETATM   28  C14 UNL     1      25.591   2.352  53.062  1.00  0.00     0.032 A 
ENDBRANCH  20  22
ENDBRANCH   7  20
BRANCH   6  29
HETATM   29  N2  UNL     1      27.901   4.909  49.228  1.00  0.00    -0.300 NA
HETATM   30  H8  UNL     1      28.486   5.614  49.714  1.00  0.00     0.124 HD
HETATM   31  H9  UNL     1      28.417   5.672  49.741  1.00  0.00     0.124 HD
ENDBRANCH   6  29
BRANCH   1  32
HETATM   32  O1  UNL     1      20.356   8.130  48.880  1.00  0.00    -0.338 OA
BRANCH  32  33
HETATM   33  C2  UNL     1      20.562   9.294  49.671  1.00  0.00     0.172 C 
HETATM   34  C1  UNL     1      21.080  10.353  48.748  1.00  0.00     0.034 C 
ENDBRANCH  32  33
ENDBRANCH   1  32
TORSDOF 5
ENDMDL
MODEL 9
REMARK VINA RESULT:      -7.4      9.120     11.449
REMARK  5 active torsions:
REMARK  status: ('A' for Active; 'I' for Inactive)
REMARK    1  A    between atoms: C2_2  and  O1_3 
REMARK    2  A    between atoms: O1_3  and  C3_4 
REMARK    3  A    between atoms: C7_9  and  N2_10 
REMARK    4  A    between atoms: C8_11  and  N3_12 
REMARK    5  A    between atoms: N3_12  and  C9_13 
ROOT
HETATM    1  C3  UNL     1      31.861   8.759  45.713  1.00  0.00     0.143 C 
HETATM    2  C4  UNL     1      31.157   8.482  46.764  1.00  0.00     0.128 C 
HETATM    3  C5  UNL     1      30.136   8.285  47.814  1.00  0.00     0.040 C 
HETATM    4  N1  UNL     1      30.029   9.407  48.379  1.00  0.00    -0.266 NA
HETATM    5  C6  UNL     1      29.190   9.810  49.463  1.00  0.00     0.142 C 
HETATM    6  C7  UNL     1      28.056   9.212  49.778  1.00  0.00     0.050 C 
HETATM    7  C8  UNL     1      27.380   8.040  49.162  1.00  0.00     0.052 C 
HETATM    8  C15 UNL     1      28.053   7.115  48.408  1.00  0.00     0.022 C 
HETATM    9  C16 UNL     1      29.494   6.994  48.006  1.00  0.00     0.047 A 
HETATM   10  C17 UNL     1      29.566   5.644  48.000  1.00  0.00     0.049 A 
HETATM   11  C18 UNL     1      30.842   4.987  47.656  1.00  0.00    -0.045 A 
HETATM   12  O2  UNL     1      30.769   6.216  47.711  1.00  0.00     0.000 OA
HETATM   13  C19 UNL     1      32.065   4.360  47.326  1.00  0.00     0.006 C 
HETATM   14  C20 UNL     1      33.130   5.084  47.141  1.00  0.00    -0.005 C 
HETATM   15  C21 UNL     1      34.107   6.139  47.007  1.00  0.00     0.169 C 
HETATM   16  N4  UNL     1      33.687   7.448  47.344  1.00  0.00    -0.327 N 
HETATM   17  C22 UNL     1      33.454   7.636  48.764  1.00  0.00     0.171 C 
HETATM   18  N5  UNL     1      32.895   8.160  46.516  1.00  0.00    -0.285 N 
HETATM   19  H24 UNL     1      33.895   8.501  46.528  1.00  0.00     0.188 HD
ENDROOT
BRANCH   7  20
HETATM   20  N3  UNL     1      25.961   7.807  49.316  1.00  0.00    -0.355 N 
HETATM   21  H10 UNL     1      25.293   8.580  49.107  1.00  0.00     0.166 HD
BRANCH  20  22
HETATM   22  C9  UNL     1      25.147   6.708  49.716  1.00  0.00     0.032 A 
HETATM   23  C10 UNL     1      24.582   6.883  50.954  1.00  0.00     0.032 A 
HETATM   24  C11 UNL     1      23.776   5.898  51.453  1.00  0.00     0.044 A 
HETATM   25  C12 UNL     1      23.536   4.750  50.726  1.00  0.00     0.116 A 
HETATM   26  F1  UNL     1      22.738   3.781  51.226  1.00  0.00    -0.206 F 
HETATM   27  C13 UNL     1      24.145   4.642  49.478  1.00  0.00     0.044 A 
HETATM   28  C14 UNL     1      24.969   5.600  48.915  1.00  0.00     0.032 A 
ENDBRANCH  20  22
ENDBRANCH   7  20
BRANCH   6  29
HETATM   29  N2  UNL     1      27.245   9.660  50.885  1.00  0.00    -0.300 NA
HETATM   30  H8  UNL     1      26.675  10.515  50.746  1.00  0.00     0.124 HD
HETATM   31  H9  UNL     1      26.700  10.533  50.658  1.00  0.00     0.124 HD
ENDBRANCH   6  29
BRANCH   1  32
HETATM   32  O1  UNL     1      32.418   9.128  44.530  1.00  0.00    -0.338 OA
BRANCH  32  33
HETATM   33  C2  UNL     1      32.796  10.466  44.231  1.00  0.00     0.172 C 
HETATM   34  C1  UNL     1      33.904  10.384  43.227  1.00  0.00     0.034 C 
ENDBRANCH  32  33
ENDBRANCH   1  32
TORSDOF 5
ENDMDL
