MODEL 1
REMARK VINA RESULT:      -8.3      0.000      0.000
REMARK  7 active torsions:
REMARK  status: ('A' for Active; 'I' for Inactive)
REMARK    1  A    between atoms: O1_2  and  S1_3 
REMARK    2  A    between atoms: S1_3  and  C2_4 
REMARK    3  A    between atoms: C2_4  and  C14_20 
REMARK    4  A    between atoms: C3_5  and  C4_6 
REMARK    5  A    between atoms: C4_6  and  C5_7 
REMARK    6  A    between atoms: C5_7  and  C6_8 
REMARK    7  A    between atoms: C7_9  and  C8_10 
ROOT
HETATM    1  C2  UNL     1      23.767   3.822  50.702  1.00  0.00     0.057 C 
HETATM    2  C3  UNL     1      24.375   3.295  51.750  1.00  0.00    -0.003 C 
ENDROOT
BRANCH   1   3
HETATM    3  S1  UNL     1      22.167   3.094  50.381  1.00  0.00     0.030 SA
BRANCH   3   4
HETATM    4  O1  UNL     1      22.409   1.708  49.396  1.00  0.00    -0.320 OA
HETATM    5  C1  UNL     1      21.301   1.432  48.609  1.00  0.00     0.220 C 
ENDBRANCH   3   4
ENDBRANCH   1   3
BRANCH   1   6
HETATM    6  C14 UNL     1      24.216   4.873  49.818  1.00  0.00     0.085 C 
HETATM    7  C15 UNL     1      25.326   5.556  50.032  1.00  0.00     0.049 C 
HETATM    8  C16 UNL     1      26.157   6.651  49.461  1.00  0.00     0.272 C 
HETATM    9  C17 UNL     1      26.071   7.915  50.280  1.00  0.00     0.207 C 
HETATM   10  N3  UNL     1      26.044   6.844  48.065  1.00  0.00     0.101 N 
HETATM   11  O2  UNL     1      26.454   8.966  49.419  1.00  0.00    -0.387 OA
HETATM   12  C18 UNL     1      27.582   8.557  48.712  1.00  0.00     0.198 C 
HETATM   13  C19 UNL     1      27.278   7.532  47.645  1.00  0.00     0.299 C 
HETATM   14  C20 UNL     1      24.977   7.581  47.525  1.00  0.00     0.275 C 
HETATM   15  C21 UNL     1      23.613   7.320  48.048  1.00  0.00     0.057 C 
HETATM   16  C22 UNL     1      23.216   5.913  47.632  1.00  0.00     0.177 C 
HETATM   17  O3  UNL     1      23.353   5.063  48.751  1.00  0.00    -0.350 OA
ENDBRANCH   1   6
BRANCH   2  18
HETATM   18  C4  UNL     1      24.095   2.264  52.736  1.00  0.00     0.033 C 
BRANCH  18  19
HETATM   19  C5  UNL     1      24.527   0.869  52.393  1.00  0.00     0.045 C 
BRANCH  19  20
HETATM   20  C6  UNL     1      24.070  -0.046  53.507  1.00  0.00    -0.019 A 
HETATM   21  C7  UNL     1      24.911  -0.397  54.540  1.00  0.00     0.020 A 
HETATM   22  C10 UNL     1      24.359  -1.193  55.495  1.00  0.00     0.019 A 
HETATM   23  C11 UNL     1      23.075  -1.680  55.543  1.00  0.00     0.045 A 
HETATM   24  C12 UNL     1      22.255  -1.305  54.482  1.00  0.00     0.138 A 
HETATM   25  F1  UNL     1      20.981  -1.782  54.521  1.00  0.00    -0.204 F 
HETATM   26  C13 UNL     1      22.744  -0.486  53.458  1.00  0.00     0.079 A 
HETATM   27 CL1  UNL     1      21.623  -0.093  52.201  1.00  0.00    -0.080 Cl
BRANCH  21  28
HETATM   28  C8  UNL     1      26.294   0.032  54.581  1.00  0.00     0.162 A 
HETATM   29  N1  UNL     1      27.046   1.022  54.912  1.00  0.00    -0.222 NA
HETATM   30  C9  UNL     1      28.226   0.367  54.529  1.00  0.00     0.237 A 
HETATM   31  N2  UNL     1      27.494  -0.629  54.194  1.00  0.00    -0.222 NA
ENDBRANCH  21  28
ENDBRANCH  19  20
ENDBRANCH  18  19
ENDBRANCH   2  18
TORSDOF 7
ENDMDL
MODEL 2
REMARK VINA RESULT:      -8.3      3.110      4.445
REMARK  7 active torsions:
REMARK  status: ('A' for Active; 'I' for Inactive)
REMARK    1  A    between atoms: O1_2  and  S1_3 
REMARK    2  A    between atoms: S1_3  and  C2_4 
REMARK    3  A    between atoms: C2_4  and  C14_20 
REMARK    4  A    between atoms: C3_5  and  C4_6 
REMARK    5  A    between atoms: C4_6  and  C5_7 
REMARK    6  A    between atoms: C5_7  and  C6_8 
REMARK    7  A    between atoms: C7_9  and  C8_10 
ROOT
HETATM    1  C2  UNL     1      26.862   5.289  48.926  1.00  0.00     0.057 C 
HETATM    2  C3  UNL     1      26.784   4.036  49.334  1.00  0.00    -0.003 C 
ENDROOT
BRANCH   1   3
HETATM    3  S1  UNL     1      25.299   6.152  49.008  1.00  0.00     0.030 SA
BRANCH   3   4
HETATM    4  O1  UNL     1      25.270   7.046  50.475  1.00  0.00    -0.320 OA
HETATM    5  C1  UNL     1      23.991   7.472  50.797  1.00  0.00     0.220 C 
ENDBRANCH   3   4
ENDBRANCH   1   3
BRANCH   1   6
HETATM    6  C14 UNL     1      28.008   6.023  48.441  1.00  0.00     0.085 C 
HETATM    7  C15 UNL     1      29.198   5.468  48.298  1.00  0.00     0.049 C 
HETATM    8  C16 UNL     1      30.591   5.775  47.869  1.00  0.00     0.272 C 
HETATM    9  C17 UNL     1      31.546   5.824  49.036  1.00  0.00     0.207 C 
HETATM   10  N3  UNL     1      30.730   6.837  46.947  1.00  0.00     0.101 N 
HETATM   11  O2  UNL     1      32.654   6.584  48.602  1.00  0.00    -0.387 OA
HETATM   12  C18 UNL     1      32.993   6.161  47.319  1.00  0.00     0.198 C 
HETATM   13  C19 UNL     1      32.017   6.620  46.262  1.00  0.00     0.299 C 
HETATM   14  C20 UNL     1      30.735   8.172  47.384  1.00  0.00     0.275 C 
HETATM   15  C21 UNL     1      29.719   8.583  48.384  1.00  0.00     0.057 C 
HETATM   16  C22 UNL     1      28.355   8.516  47.717  1.00  0.00     0.177 C 
HETATM   17  O3  UNL     1      27.702   7.343  48.155  1.00  0.00    -0.350 OA
ENDBRANCH   1   6
BRANCH   2  18
HETATM   18  C4  UNL     1      25.754   3.145  49.844  1.00  0.00     0.033 C 
BRANCH  18  19
HETATM   19  C5  UNL     1      25.176   3.482  51.186  1.00  0.00     0.045 C 
BRANCH  19  20
HETATM   20  C6  UNL     1      24.687   2.197  51.817  1.00  0.00    -0.019 A 
HETATM   21  C7  UNL     1      25.478   1.474  52.683  1.00  0.00     0.020 A 
HETATM   22  C10 UNL     1      24.899   0.361  53.207  1.00  0.00     0.019 A 
HETATM   23  C11 UNL     1      23.633  -0.117  52.972  1.00  0.00     0.045 A 
HETATM   24  C12 UNL     1      22.864   0.639  52.092  1.00  0.00     0.138 A 
HETATM   25  F1  UNL     1      21.608   0.173  51.853  1.00  0.00    -0.204 F 
HETATM   26  C13 UNL     1      23.383   1.800  51.508  1.00  0.00     0.079 A 
HETATM   27 CL1  UNL     1      22.324   2.648  50.435  1.00  0.00    -0.080 Cl
BRANCH  21  28
HETATM   28  C8  UNL     1      26.840   1.864  52.983  1.00  0.00     0.162 A 
HETATM   29  N1  UNL     1      28.012   1.961  52.461  1.00  0.00    -0.222 NA
HETATM   30  C9  UNL     1      28.593   2.449  53.641  1.00  0.00     0.237 A 
HETATM   31  N2  UNL     1      27.434   2.358  54.179  1.00  0.00    -0.222 NA
ENDBRANCH  21  28
ENDBRANCH  19  20
ENDBRANCH  18  19
ENDBRANCH   2  18
TORSDOF 7
ENDMDL
MODEL 3
REMARK VINA RESULT:      -8.1      2.332      3.619
REMARK  7 active torsions:
REMARK  status: ('A' for Active; 'I' for Inactive)
REMARK    1  A    between atoms: O1_2  and  S1_3 
REMARK    2  A    between atoms: S1_3  and  C2_4 
REMARK    3  A    between atoms: C2_4  and  C14_20 
REMARK    4  A    between atoms: C3_5  and  C4_6 
REMARK    5  A    between atoms: C4_6  and  C5_7 
REMARK    6  A    between atoms: C5_7  and  C6_8 
REMARK    7  A    between atoms: C7_9  and  C8_10 
ROOT
HETATM    1  C2  UNL     1      25.799   5.380  49.280  1.00  0.00     0.057 C 
HETATM    2  C3  UNL     1      25.901   4.229  49.919  1.00  0.00    -0.003 C 
ENDROOT
BRANCH   1   3
HETATM    3  S1  UNL     1      24.109   5.835  48.920  1.00  0.00     0.030 SA
BRANCH   3   4
HETATM    4  O1  UNL     1      23.374   6.325  50.393  1.00  0.00    -0.320 OA
HETATM    5  C1  UNL     1      23.286   7.706  50.493  1.00  0.00     0.220 C 
ENDBRANCH   3   4
ENDBRANCH   1   3
BRANCH   1   6
HETATM    6  C14 UNL     1      26.843   6.283  48.851  1.00  0.00     0.085 C 
HETATM    7  C15 UNL     1      27.965   5.861  48.297  1.00  0.00     0.049 C 
HETATM    8  C16 UNL     1      29.250   6.353  47.729  1.00  0.00     0.272 C 
HETATM    9  C17 UNL     1      30.422   6.053  48.631  1.00  0.00     0.207 C 
HETATM   10  N3  UNL     1      29.227   7.668  47.208  1.00  0.00     0.101 N 
HETATM   11  O2  UNL     1      31.438   6.962  48.265  1.00  0.00    -0.387 OA
HETATM   12  C18 UNL     1      31.501   7.007  46.875  1.00  0.00     0.198 C 
HETATM   13  C19 UNL     1      30.344   7.748  46.249  1.00  0.00     0.299 C 
HETATM   14  C20 UNL     1      29.354   8.779  48.057  1.00  0.00     0.275 C 
HETATM   15  C21 UNL     1      28.572   8.788  49.318  1.00  0.00     0.057 C 
HETATM   16  C22 UNL     1      27.100   8.888  48.952  1.00  0.00     0.177 C 
HETATM   17  O3  UNL     1      26.519   7.608  49.092  1.00  0.00    -0.350 OA
ENDBRANCH   1   6
BRANCH   2  18
HETATM   18  C4  UNL     1      24.997   3.208  50.423  1.00  0.00     0.033 C 
BRANCH  18  19
HETATM   19  C5  UNL     1      24.594   3.318  51.864  1.00  0.00     0.045 C 
BRANCH  19  20
HETATM   20  C6  UNL     1      24.375   1.917  52.392  1.00  0.00    -0.019 A 
HETATM   21  C7  UNL     1      25.389   1.211  53.001  1.00  0.00     0.020 A 
HETATM   22  C10 UNL     1      25.043  -0.020  53.464  1.00  0.00     0.019 A 
HETATM   23  C11 UNL     1      23.814  -0.630  53.392  1.00  0.00     0.045 A 
HETATM   24  C12 UNL     1      22.816   0.113  52.769  1.00  0.00     0.138 A 
HETATM   25  F1  UNL     1      21.594  -0.483  52.693  1.00  0.00    -0.204 F 
HETATM   26  C13 UNL     1      23.086   1.391  52.265  1.00  0.00     0.079 A 
HETATM   27 CL1  UNL     1      21.758   2.207  51.517  1.00  0.00    -0.080 Cl
BRANCH  21  28
HETATM   28  C8  UNL     1      26.733   1.740  53.109  1.00  0.00     0.162 A 
HETATM   29  N1  UNL     1      27.763   2.059  52.407  1.00  0.00    -0.222 NA
HETATM   30  C9  UNL     1      28.506   2.466  53.524  1.00  0.00     0.237 A 
HETATM   31  N2  UNL     1      27.492   2.154  54.240  1.00  0.00    -0.222 NA
ENDBRANCH  21  28
ENDBRANCH  19  20
ENDBRANCH  18  19
ENDBRANCH   2  18
TORSDOF 7
ENDMDL
MODEL 4
REMARK VINA RESULT:      -7.9      2.259      3.407
REMARK  7 active torsions:
REMARK  status: ('A' for Active; 'I' for Inactive)
REMARK    1  A    between atoms: O1_2  and  S1_3 
REMARK    2  A    between atoms: S1_3  and  C2_4 
REMARK    3  A    between atoms: C2_4  and  C14_20 
REMARK    4  A    between atoms: C3_5  and  C4_6 
REMARK    5  A    between atoms: C4_6  and  C5_7 
REMARK    6  A    between atoms: C5_7  and  C6_8 
REMARK    7  A    between atoms: C7_9  and  C8_10 
ROOT
HETATM    1  C2  UNL     1      25.753   5.251  49.338  1.00  0.00     0.057 C 
HETATM    2  C3  UNL     1      25.732   4.112  50.005  1.00  0.00    -0.003 C 
ENDROOT
BRANCH   1   3
HETATM    3  S1  UNL     1      24.136   5.764  48.776  1.00  0.00     0.030 SA
BRANCH   3   4
HETATM    4  O1  UNL     1      23.208   6.181  50.160  1.00  0.00    -0.320 OA
HETATM    5  C1  UNL     1      23.836   7.145  50.934  1.00  0.00     0.220 C 
ENDBRANCH   3   4
ENDBRANCH   1   3
BRANCH   1   6
HETATM    6  C14 UNL     1      26.875   6.103  49.018  1.00  0.00     0.085 C 
HETATM    7  C15 UNL     1      26.817   7.420  49.111  1.00  0.00     0.049 C 
HETATM    8  C16 UNL     1      27.637   8.647  48.911  1.00  0.00     0.272 C 
HETATM    9  C17 UNL     1      27.201   9.429  47.696  1.00  0.00     0.207 C 
HETATM   10  N3  UNL     1      29.035   8.478  49.034  1.00  0.00     0.101 N 
HETATM   11  O2  UNL     1      28.303  10.231  47.333  1.00  0.00    -0.387 OA
HETATM   12  C18 UNL     1      28.828  10.798  48.492  1.00  0.00     0.198 C 
HETATM   13  C19 UNL     1      29.582   9.810  49.350  1.00  0.00     0.299 C 
HETATM   14  C20 UNL     1      29.796   7.981  47.963  1.00  0.00     0.275 C 
HETATM   15  C21 UNL     1      29.272   6.810  47.218  1.00  0.00     0.057 C 
HETATM   16  C22 UNL     1      29.298   5.613  48.154  1.00  0.00     0.177 C 
HETATM   17  O3  UNL     1      27.984   5.379  48.615  1.00  0.00    -0.350 OA
ENDBRANCH   1   6
BRANCH   2  18
HETATM   18  C4  UNL     1      24.734   3.139  50.418  1.00  0.00     0.033 C 
BRANCH  18  19
HETATM   19  C5  UNL     1      24.210   3.265  51.818  1.00  0.00     0.045 C 
BRANCH  19  20
HETATM   20  C6  UNL     1      23.920   1.872  52.332  1.00  0.00    -0.019 A 
HETATM   21  C7  UNL     1      24.861   1.154  53.036  1.00  0.00     0.020 A 
HETATM   22  C10 UNL     1      24.454  -0.068  53.472  1.00  0.00     0.019 A 
HETATM   23  C11 UNL     1      23.227  -0.659  53.291  1.00  0.00     0.045 A 
HETATM   24  C12 UNL     1      22.302   0.096  52.574  1.00  0.00     0.138 A 
HETATM   25  F1  UNL     1      21.084  -0.481  52.389  1.00  0.00    -0.204 F 
HETATM   26  C13 UNL     1      22.640   1.365  52.090  1.00  0.00     0.079 A 
HETATM   27 CL1  UNL     1      21.400   2.198  51.218  1.00  0.00    -0.080 Cl
BRANCH  21  28
HETATM   28  C8  UNL     1      26.199   1.662  53.264  1.00  0.00     0.162 A 
HETATM   29  N1  UNL     1      26.922   2.278  54.131  1.00  0.00    -0.222 NA
HETATM   30  C9  UNL     1      28.067   2.254  53.322  1.00  0.00     0.237 A 
HETATM   31  N2  UNL     1      27.363   1.641  52.446  1.00  0.00    -0.222 NA
ENDBRANCH  21  28
ENDBRANCH  19  20
ENDBRANCH  18  19
ENDBRANCH   2  18
TORSDOF 7
ENDMDL
MODEL 5
REMARK VINA RESULT:      -7.7      1.590      2.195
REMARK  7 active torsions:
REMARK  status: ('A' for Active; 'I' for Inactive)
REMARK    1  A    between atoms: O1_2  and  S1_3 
REMARK    2  A    between atoms: S1_3  and  C2_4 
REMARK    3  A    between atoms: C2_4  and  C14_20 
REMARK    4  A    between atoms: C3_5  and  C4_6 
REMARK    5  A    between atoms: C4_6  and  C5_7 
REMARK    6  A    between atoms: C5_7  and  C6_8 
REMARK    7  A    between atoms: C7_9  and  C8_10 
ROOT
HETATM    1  C2  UNL     1      24.123   4.660  50.866  1.00  0.00     0.057 C 
HETATM    2  C3  UNL     1      24.313   3.587  51.611  1.00  0.00    -0.003 C 
ENDROOT
BRANCH   1   3
HETATM    3  S1  UNL     1      22.397   4.998  50.552  1.00  0.00     0.030 SA
BRANCH   3   4
HETATM    4  O1  UNL     1      22.198   5.176  48.855  1.00  0.00    -0.320 OA
HETATM    5  C1  UNL     1      21.655   6.408  48.523  1.00  0.00     0.220 C 
ENDBRANCH   3   4
ENDBRANCH   1   3
BRANCH   1   6
HETATM    6  C14 UNL     1      25.098   5.562  50.296  1.00  0.00     0.085 C 
HETATM    7  C15 UNL     1      24.970   6.876  50.355  1.00  0.00     0.049 C 
HETATM    8  C16 UNL     1      25.647   8.138  49.952  1.00  0.00     0.272 C 
HETATM    9  C17 UNL     1      24.923   8.837  48.827  1.00  0.00     0.207 C 
HETATM   10  N3  UNL     1      27.050   8.059  49.791  1.00  0.00     0.101 N 
HETATM   11  O2  UNL     1      25.872   9.686  48.219  1.00  0.00    -0.387 OA
HETATM   12  C18 UNL     1      26.581  10.335  49.227  1.00  0.00     0.198 C 
HETATM   13  C19 UNL     1      27.558   9.434  49.944  1.00  0.00     0.299 C 
HETATM   14  C20 UNL     1      27.610   7.560  48.604  1.00  0.00     0.275 C 
HETATM   15  C21 UNL     1      27.027   6.327  48.021  1.00  0.00     0.057 C 
HETATM   16  C22 UNL     1      27.323   5.178  48.970  1.00  0.00     0.177 C 
HETATM   17  O3  UNL     1      26.148   4.887  49.698  1.00  0.00    -0.350 OA
ENDBRANCH   1   6
BRANCH   2  18
HETATM   18  C4  UNL     1      23.487   2.582  52.261  1.00  0.00     0.033 C 
BRANCH  18  19
HETATM   19  C5  UNL     1      23.689   1.161  51.827  1.00  0.00     0.045 C 
BRANCH  19  20
HETATM   20  C6  UNL     1      23.028   0.264  52.851  1.00  0.00    -0.019 A 
HETATM   21  C7  UNL     1      23.748  -0.308  53.877  1.00  0.00     0.020 A 
HETATM   22  C10 UNL     1      23.021  -1.058  54.748  1.00  0.00     0.019 A 
HETATM   23  C11 UNL     1      21.670  -1.308  54.718  1.00  0.00     0.045 A 
HETATM   24  C12 UNL     1      20.978  -0.715  53.666  1.00  0.00     0.138 A 
HETATM   25  F1  UNL     1      19.639  -0.956  53.628  1.00  0.00    -0.204 F 
HETATM   26  C13 UNL     1      21.649   0.076  52.726  1.00  0.00     0.079 A 
HETATM   27 CL1  UNL     1      20.672   0.755  51.471  1.00  0.00    -0.080 Cl
BRANCH  21  28
HETATM   28  C8  UNL     1      25.182  -0.140  53.994  1.00  0.00     0.162 A 
HETATM   29  N1  UNL     1      26.093   0.751  54.169  1.00  0.00    -0.222 NA
HETATM   30  C9  UNL     1      27.138  -0.183  54.117  1.00  0.00     0.237 A 
HETATM   31  N2  UNL     1      26.245  -1.084  53.941  1.00  0.00    -0.222 NA
ENDBRANCH  21  28
ENDBRANCH  19  20
ENDBRANCH  18  19
ENDBRANCH   2  18
TORSDOF 7
ENDMDL
MODEL 6
REMARK VINA RESULT:      -7.6      3.795      5.855
REMARK  7 active torsions:
REMARK  status: ('A' for Active; 'I' for Inactive)
REMARK    1  A    between atoms: O1_2  and  S1_3 
REMARK    2  A    between atoms: S1_3  and  C2_4 
REMARK    3  A    between atoms: C2_4  and  C14_20 
REMARK    4  A    between atoms: C3_5  and  C4_6 
REMARK    5  A    between atoms: C4_6  and  C5_7 
REMARK    6  A    between atoms: C5_7  and  C6_8 
REMARK    7  A    between atoms: C7_9  and  C8_10 
ROOT
HETATM    1  C2  UNL     1      27.262   5.493  48.635  1.00  0.00     0.057 C 
HETATM    2  C3  UNL     1      26.956   4.287  49.075  1.00  0.00    -0.003 C 
ENDROOT
BRANCH   1   3
HETATM    3  S1  UNL     1      25.893   6.639  48.716  1.00  0.00     0.030 SA
BRANCH   3   4
HETATM    4  O1  UNL     1      26.001   7.480  50.209  1.00  0.00    -0.320 OA
HETATM    5  C1  UNL     1      26.696   8.674  50.082  1.00  0.00     0.220 C 
ENDBRANCH   3   4
ENDBRANCH   1   3
BRANCH   1   6
HETATM    6  C14 UNL     1      28.519   5.986  48.117  1.00  0.00     0.085 C 
HETATM    7  C15 UNL     1      29.676   5.414  48.398  1.00  0.00     0.049 C 
HETATM    8  C16 UNL     1      31.136   5.531  48.133  1.00  0.00     0.272 C 
HETATM    9  C17 UNL     1      31.896   6.014  49.344  1.00  0.00     0.207 C 
HETATM   10  N3  UNL     1      31.491   6.166  46.921  1.00  0.00     0.101 N 
HETATM   11  O2  UNL     1      33.107   6.550  48.856  1.00  0.00    -0.387 OA
HETATM   12  C18 UNL     1      33.616   5.673  47.902  1.00  0.00     0.198 C 
HETATM   13  C19 UNL     1      32.853   5.702  46.598  1.00  0.00     0.299 C 
HETATM   14  C20 UNL     1      31.518   7.567  46.825  1.00  0.00     0.275 C 
HETATM   15  C21 UNL     1      30.387   8.329  47.409  1.00  0.00     0.057 C 
HETATM   16  C22 UNL     1      29.145   8.020  46.591  1.00  0.00     0.177 C 
HETATM   17  O3  UNL     1      28.352   7.102  47.314  1.00  0.00    -0.350 OA
ENDBRANCH   1   6
BRANCH   2  18
HETATM   18  C4  UNL     1      25.785   3.618  49.620  1.00  0.00     0.033 C 
BRANCH  18  19
HETATM   19  C5  UNL     1      25.432   3.933  51.043  1.00  0.00     0.045 C 
BRANCH  19  20
HETATM   20  C6  UNL     1      24.629   2.773  51.589  1.00  0.00    -0.019 A 
HETATM   21  C7  UNL     1      23.252   2.803  51.623  1.00  0.00     0.020 A 
HETATM   22  C10 UNL     1      22.657   1.678  52.102  1.00  0.00     0.019 A 
HETATM   23  C11 UNL     1      23.267   0.531  52.551  1.00  0.00     0.045 A 
HETATM   24  C12 UNL     1      24.658   0.538  52.503  1.00  0.00     0.138 A 
HETATM   25  F1  UNL     1      25.271  -0.594  52.946  1.00  0.00    -0.204 F 
HETATM   26  C13 UNL     1      25.350   1.656  52.022  1.00  0.00     0.079 A 
HETATM   27 CL1  UNL     1      27.075   1.534  52.014  1.00  0.00    -0.080 Cl
BRANCH  21  28
HETATM   28  C8  UNL     1      22.502   3.969  51.204  1.00  0.00     0.162 A 
HETATM   29  N1  UNL     1      21.941   4.507  50.178  1.00  0.00    -0.222 NA
HETATM   30  C9  UNL     1      21.508   5.631  50.896  1.00  0.00     0.237 A 
HETATM   31  N2  UNL     1      22.061   5.113  51.928  1.00  0.00    -0.222 NA
ENDBRANCH  21  28
ENDBRANCH  19  20
ENDBRANCH  18  19
ENDBRANCH   2  18
TORSDOF 7
ENDMDL
MODEL 7
REMARK VINA RESULT:      -7.4      5.246      9.828
REMARK  7 active torsions:
REMARK  status: ('A' for Active; 'I' for Inactive)
REMARK    1  A    between atoms: O1_2  and  S1_3 
REMARK    2  A    between atoms: S1_3  and  C2_4 
REMARK    3  A    between atoms: C2_4  and  C14_20 
REMARK    4  A    between atoms: C3_5  and  C4_6 
REMARK    5  A    between atoms: C4_6  and  C5_7 
REMARK    6  A    between atoms: C5_7  and  C6_8 
REMARK    7  A    between atoms: C7_9  and  C8_10 
ROOT
HETATM    1  C2  UNL     1      26.890   5.111  49.024  1.00  0.00     0.057 C 
HETATM    2  C3  UNL     1      28.131   4.989  48.592  1.00  0.00    -0.003 C 
ENDROOT
BRANCH   1   3
HETATM    3  S1  UNL     1      26.182   6.716  48.683  1.00  0.00     0.030 SA
BRANCH   3   4
HETATM    4  O1  UNL     1      26.168   7.606  50.152  1.00  0.00    -0.320 OA
HETATM    5  C1  UNL     1      26.931   8.761  50.066  1.00  0.00     0.220 C 
ENDBRANCH   3   4
ENDBRANCH   1   3
BRANCH   1   6
HETATM    6  C14 UNL     1      26.062   4.146  49.712  1.00  0.00     0.085 C 
HETATM    7  C15 UNL     1      24.742   4.191  49.681  1.00  0.00     0.049 C 
HETATM    8  C16 UNL     1      23.533   3.485  50.185  1.00  0.00     0.272 C 
HETATM    9  C17 UNL     1      22.820   4.273  51.256  1.00  0.00     0.207 C 
HETATM   10  N3  UNL     1      23.700   2.111  50.476  1.00  0.00     0.101 N 
HETATM   11  O2  UNL     1      22.044   3.340  51.977  1.00  0.00    -0.387 OA
HETATM   12  C18 UNL     1      21.415   2.501  51.061  1.00  0.00     0.198 C 
HETATM   13  C19 UNL     1      22.355   1.512  50.413  1.00  0.00     0.299 C 
HETATM   14  C20 UNL     1      24.261   1.698  51.695  1.00  0.00     0.275 C 
HETATM   15  C21 UNL     1      25.471   2.405  52.182  1.00  0.00     0.057 C 
HETATM   16  C22 UNL     1      26.612   2.085  51.231  1.00  0.00     0.177 C 
HETATM   17  O3  UNL     1      26.814   3.198  50.387  1.00  0.00    -0.350 OA
ENDBRANCH   1   6
BRANCH   2  18
HETATM   18  C4  UNL     1      29.103   5.820  47.898  1.00  0.00     0.033 C 
BRANCH  18  19
HETATM   19  C5  UNL     1      30.464   5.923  48.518  1.00  0.00     0.045 C 
BRANCH  19  20
HETATM   20  C6  UNL     1      31.432   6.365  47.443  1.00  0.00    -0.019 A 
HETATM   21  C7  UNL     1      31.702   7.698  47.222  1.00  0.00     0.020 A 
HETATM   22  C10 UNL     1      32.620   7.953  46.252  1.00  0.00     0.019 A 
HETATM   23  C11 UNL     1      33.297   7.043  45.476  1.00  0.00     0.045 A 
HETATM   24  C12 UNL     1      32.996   5.706  45.726  1.00  0.00     0.138 A 
HETATM   25  F1  UNL     1      33.662   4.798  44.963  1.00  0.00    -0.204 F 
HETATM   26  C13 UNL     1      32.064   5.357  46.710  1.00  0.00     0.079 A 
HETATM   27 CL1  UNL     1      31.784   3.663  46.921  1.00  0.00    -0.080 Cl
BRANCH  21  28
HETATM   28  C8  UNL     1      31.028   8.748  47.958  1.00  0.00     0.162 A 
HETATM   29  N1  UNL     1      30.062   9.594  47.875  1.00  0.00    -0.222 NA
HETATM   30  C9  UNL     1      30.296  10.119  49.154  1.00  0.00     0.237 A 
HETATM   31  N2  UNL     1      31.262   9.285  49.256  1.00  0.00    -0.222 NA
ENDBRANCH  21  28
ENDBRANCH  19  20
ENDBRANCH  18  19
ENDBRANCH   2  18
TORSDOF 7
ENDMDL
MODEL 8
REMARK VINA RESULT:      -7.4      4.079      8.151
REMARK  7 active torsions:
REMARK  status: ('A' for Active; 'I' for Inactive)
REMARK    1  A    between atoms: O1_2  and  S1_3 
REMARK    2  A    between atoms: S1_3  and  C2_4 
REMARK    3  A    between atoms: C2_4  and  C14_20 
REMARK    4  A    between atoms: C3_5  and  C4_6 
REMARK    5  A    between atoms: C4_6  and  C5_7 
REMARK    6  A    between atoms: C5_7  and  C6_8 
REMARK    7  A    between atoms: C7_9  and  C8_10 
ROOT
HETATM    1  C2  UNL     1      24.292   2.817  50.255  1.00  0.00     0.057 C 
HETATM    2  C3  UNL     1      23.288   2.780  49.398  1.00  0.00    -0.003 C 
ENDROOT
BRANCH   1   3
HETATM    3  S1  UNL     1      25.462   4.123  49.908  1.00  0.00     0.030 SA
BRANCH   3   4
HETATM    4  O1  UNL     1      24.829   5.581  50.561  1.00  0.00    -0.320 OA
HETATM    5  C1  UNL     1      25.497   6.697  50.081  1.00  0.00     0.220 C 
ENDBRANCH   3   4
ENDBRANCH   1   3
BRANCH   1   6
HETATM    6  C14 UNL     1      24.554   1.968  51.394  1.00  0.00     0.085 C 
HETATM    7  C15 UNL     1      25.776   1.613  51.750  1.00  0.00     0.049 C 
HETATM    8  C16 UNL     1      26.516   0.816  52.766  1.00  0.00     0.272 C 
HETATM    9  C17 UNL     1      27.088  -0.454  52.185  1.00  0.00     0.207 C 
HETATM   10  N3  UNL     1      25.867   0.655  54.012  1.00  0.00     0.101 N 
HETATM   11  O2  UNL     1      27.303  -1.321  53.278  1.00  0.00    -0.387 OA
HETATM   12  C18 UNL     1      27.890  -0.587  54.305  1.00  0.00     0.198 C 
HETATM   13  C19 UNL     1      26.928   0.354  54.991  1.00  0.00     0.299 C 
HETATM   14  C20 UNL     1      24.879  -0.328  54.186  1.00  0.00     0.275 C 
HETATM   15  C21 UNL     1      23.850  -0.478  53.128  1.00  0.00     0.057 C 
HETATM   16  C22 UNL     1      22.994   0.778  53.129  1.00  0.00     0.177 C 
HETATM   17  O3  UNL     1      23.391   1.588  52.043  1.00  0.00    -0.350 OA
ENDBRANCH   1   6
BRANCH   2  18
HETATM   18  C4  UNL     1      22.862   3.525  48.225  1.00  0.00     0.033 C 
BRANCH  18  19
HETATM   19  C5  UNL     1      21.494   4.139  48.278  1.00  0.00     0.045 C 
BRANCH  19  20
HETATM   20  C6  UNL     1      21.629   5.518  48.886  1.00  0.00    -0.019 A 
HETATM   21  C7  UNL     1      21.314   5.757  50.205  1.00  0.00     0.020 A 
HETATM   22  C10 UNL     1      21.519   7.032  50.631  1.00  0.00     0.019 A 
HETATM   23  C11 UNL     1      21.997   8.094  49.902  1.00  0.00     0.045 A 
HETATM   24  C12 UNL     1      22.303   7.815  48.573  1.00  0.00     0.138 A 
HETATM   25  F1  UNL     1      22.777   8.861  47.843  1.00  0.00    -0.204 F 
HETATM   26  C13 UNL     1      22.123   6.528  48.054  1.00  0.00     0.079 A 
HETATM   27 CL1  UNL     1      22.543   6.315  46.390  1.00  0.00    -0.080 Cl
BRANCH  21  28
HETATM   28  C8  UNL     1      20.773   4.722  51.063  1.00  0.00     0.162 A 
HETATM   29  N1  UNL     1      19.733   3.988  51.245  1.00  0.00    -0.222 NA
HETATM   30  C9  UNL     1      20.280   3.337  52.360  1.00  0.00     0.237 A 
HETATM   31  N2  UNL     1      21.324   4.059  52.196  1.00  0.00    -0.222 NA
ENDBRANCH  21  28
ENDBRANCH  19  20
ENDBRANCH  18  19
ENDBRANCH   2  18
TORSDOF 7
ENDMDL
MODEL 9
REMARK VINA RESULT:      -7.4      4.680      6.642
REMARK  7 active torsions:
REMARK  status: ('A' for Active; 'I' for Inactive)
REMARK    1  A    between atoms: O1_2  and  S1_3 
REMARK    2  A    between atoms: S1_3  and  C2_4 
REMARK    3  A    between atoms: C2_4  and  C14_20 
REMARK    4  A    between atoms: C3_5  and  C4_6 
REMARK    5  A    between atoms: C4_6  and  C5_7 
REMARK    6  A    between atoms: C5_7  and  C6_8 
REMARK    7  A    between atoms: C7_9  and  C8_10 
ROOT
HETATM    1  C2  UNL     1      28.808   5.826  48.250  1.00  0.00     0.057 C 
HETATM    2  C3  UNL     1      28.051   4.859  48.734  1.00  0.00    -0.003 C 
ENDROOT
BRANCH   1   3
HETATM    3  S1  UNL     1      27.897   7.323  47.903  1.00  0.00     0.030 SA
BRANCH   3   4
HETATM    4  O1  UNL     1      27.856   8.258  49.343  1.00  0.00    -0.320 OA
HETATM    5  C1  UNL     1      27.375   9.539  49.116  1.00  0.00     0.220 C 
ENDBRANCH   3   4
ENDBRANCH   1   3
BRANCH   1   6
HETATM    6  C14 UNL     1      30.227   5.826  47.976  1.00  0.00     0.085 C 
HETATM    7  C15 UNL     1      30.966   6.918  48.054  1.00  0.00     0.049 C 
HETATM    8  C16 UNL     1      32.362   7.404  47.882  1.00  0.00     0.272 C 
HETATM    9  C17 UNL     1      32.521   8.247  46.641  1.00  0.00     0.207 C 
HETATM   10  N3  UNL     1      33.376   6.437  48.073  1.00  0.00     0.101 N 
HETATM   11  O2  UNL     1      33.896   8.219  46.323  1.00  0.00    -0.387 OA
HETATM   12  C18 UNL     1      34.617   8.400  47.500  1.00  0.00     0.198 C 
HETATM   13  C19 UNL     1      34.602   7.188  48.402  1.00  0.00     0.299 C 
HETATM   14  C20 UNL     1      33.723   5.547  47.044  1.00  0.00     0.275 C 
HETATM   15  C21 UNL     1      32.627   4.895  46.285  1.00  0.00     0.057 C 
HETATM   16  C22 UNL     1      31.901   3.954  47.232  1.00  0.00     0.177 C 
HETATM   17  O3  UNL     1      30.694   4.568  47.632  1.00  0.00    -0.350 OA
ENDBRANCH   1   6
BRANCH   2  18
HETATM   18  C4  UNL     1      26.648   4.673  49.072  1.00  0.00     0.033 C 
BRANCH  18  19
HETATM   19  C5  UNL     1      26.234   3.292  49.487  1.00  0.00     0.045 C 
BRANCH  19  20
HETATM   20  C6  UNL     1      25.118   3.428  50.499  1.00  0.00    -0.019 A 
HETATM   21  C7  UNL     1      25.207   2.857  51.750  1.00  0.00     0.020 A 
HETATM   22  C10 UNL     1      24.150   3.091  52.573  1.00  0.00     0.019 A 
HETATM   23  C11 UNL     1      23.018   3.822  52.299  1.00  0.00     0.045 A 
HETATM   24  C12 UNL     1      22.963   4.382  51.026  1.00  0.00     0.138 A 
HETATM   25  F1  UNL     1      21.846   5.107  50.746  1.00  0.00    -0.204 F 
HETATM   26  C13 UNL     1      24.010   4.191  50.117  1.00  0.00     0.079 A 
HETATM   27 CL1  UNL     1      23.818   4.941  48.571  1.00  0.00    -0.080 Cl
BRANCH  21  28
HETATM   28  C8  UNL     1      26.339   2.042  52.140  1.00  0.00     0.162 A 
HETATM   29  N1  UNL     1      26.692   0.824  52.355  1.00  0.00    -0.222 NA
HETATM   30  C9  UNL     1      28.010   1.173  52.685  1.00  0.00     0.237 A 
HETATM   31  N2  UNL     1      27.677   2.391  52.476  1.00  0.00    -0.222 NA
ENDBRANCH  21  28
ENDBRANCH  19  20
ENDBRANCH  18  19
ENDBRANCH   2  18
TORSDOF 7
ENDMDL
