MODEL 1
REMARK VINA RESULT:      -8.5      0.000      0.000
REMARK  5 active torsions:
REMARK  status: ('A' for Active; 'I' for Inactive)
REMARK    1  A    between atoms: C2_2  and  C3_3 
REMARK    2  A    between atoms: C8_10  and  C9_11 
REMARK    3  A    between atoms: C17_21  and  N3_22 
REMARK    4  A    between atoms: C19_24  and  C20_25 
REMARK    5  A    between atoms: C20_25  and  C21_26 
ROOT
HETATM    1  C3  UNL     1      22.605   2.799  52.355  1.00  0.00     0.286 C 
HETATM    2  C4  UNL     1      21.841   1.491  52.340  1.00  0.00    -0.004 C 
HETATM    3  C5  UNL     1      21.484   0.508  53.145  1.00  0.00    -0.015 C 
HETATM    4  C6  UNL     1      20.282  -0.182  53.540  1.00  0.00     0.163 C 
HETATM    5  N1  UNL     1      20.858  -0.838  54.764  1.00  0.00    -0.353 N 
HETATM    6  C7  UNL     1      22.280  -1.011  54.899  1.00  0.00     0.253 C 
HETATM    7  O1  UNL     1      23.073  -1.618  55.591  1.00  0.00    -0.268 OA
HETATM    8  C8  UNL     1      22.711  -0.145  53.837  1.00  0.00     0.054 C 
HETATM    9  N3  UNL     1      23.733   2.022  51.627  1.00  0.00     0.167 NA
HETATM   10  C18 UNL     1      23.069   1.516  50.496  1.00  0.00     0.319 C 
HETATM   11  C19 UNL     1      21.633   1.214  50.926  1.00  0.00    -0.024 C 
HETATM   12  H7  UNL     1      20.174  -1.150  55.474  1.00  0.00     0.163 HD
ENDROOT
BRANCH  11  13
HETATM   13  C20 UNL     1      20.407   0.834  50.636  1.00  0.00    -0.018 C 
BRANCH  13  14
HETATM   14  C21 UNL     1      19.019   0.637  50.321  1.00  0.00     0.023 C 
HETATM   15  C22 UNL     1      18.049   1.544  51.053  1.00  0.00     0.009 C 
ENDBRANCH  13  14
ENDBRANCH  11  13
BRANCH   1  16
HETATM   16  C2  UNL     1      22.041   3.799  51.486  1.00  0.00     0.003 C 
HETATM   17  C1  UNL     1      22.203   5.052  51.900  1.00  0.00     0.009 C 
ENDBRANCH   1  16
BRANCH   9  18
HETATM   18  C17 UNL     1      24.407   1.373  52.622  1.00  0.00     0.379 C 
HETATM   19  C9  UNL     1      24.512  -0.104  52.719  1.00  0.00     0.058 C 
HETATM   20  C10 UNL     1      25.930  -0.559  52.853  1.00  0.00     0.005 A 
HETATM   21  C11 UNL     1      26.521  -1.774  52.688  1.00  0.00     0.014 A 
HETATM   22  C15 UNL     1      26.578   0.638  53.196  1.00  0.00     0.047 A 
HETATM   23  C12 UNL     1      27.874  -1.785  52.887  1.00  0.00     0.001 A 
HETATM   24  C13 UNL     1      28.558  -0.634  53.228  1.00  0.00     0.002 A 
HETATM   25  C14 UNL     1      27.938   0.603  53.391  1.00  0.00     0.030 A 
HETATM   26  N2  UNL     1      25.638   1.735  53.280  1.00  0.00    -0.297 N 
HETATM   27  C16 UNL     1      24.853   2.953  53.489  1.00  0.00     0.304 C 
HETATM   28  O2  UNL     1      23.858   1.960  53.842  1.00  0.00    -0.312 OA
ENDBRANCH   9  18
TORSDOF 5
ENDMDL
MODEL 2
REMARK VINA RESULT:      -8.1      2.772      5.888
REMARK  5 active torsions:
REMARK  status: ('A' for Active; 'I' for Inactive)
REMARK    1  A    between atoms: C2_2  and  C3_3 
REMARK    2  A    between atoms: C8_10  and  C9_11 
REMARK    3  A    between atoms: C17_21  and  N3_22 
REMARK    4  A    between atoms: C19_24  and  C20_25 
REMARK    5  A    between atoms: C20_25  and  C21_26 
ROOT
HETATM    1  C3  UNL     1      25.145   1.422  51.552  1.00  0.00     0.286 C 
HETATM    2  C4  UNL     1      23.630   1.402  51.558  1.00  0.00    -0.004 C 
HETATM    3  C5  UNL     1      22.605   1.482  50.731  1.00  0.00    -0.015 C 
HETATM    4  C6  UNL     1      21.415   0.735  50.409  1.00  0.00     0.163 C 
HETATM    5  N1  UNL     1      21.137   1.416  49.097  1.00  0.00    -0.353 N 
HETATM    6  C7  UNL     1      21.688   2.716  48.818  1.00  0.00     0.253 C 
HETATM    7  O1  UNL     1      21.556   3.620  48.018  1.00  0.00    -0.268 OA
HETATM    8  C8  UNL     1      22.645   2.785  49.886  1.00  0.00     0.054 C 
HETATM    9  N3  UNL     1      25.018   2.860  52.121  1.00  0.00     0.167 NA
HETATM   10  C18 UNL     1      24.242   2.660  53.275  1.00  0.00     0.319 C 
HETATM   11  C19 UNL     1      23.275   1.517  52.965  1.00  0.00    -0.024 C 
HETATM   12  H7  UNL     1      20.534   0.897  48.437  1.00  0.00     0.163 HD
ENDROOT
BRANCH  11  13
HETATM   13  C20 UNL     1      22.338   0.674  53.346  1.00  0.00    -0.018 C 
BRANCH  13  14
HETATM   14  C21 UNL     1      21.318  -0.134  53.954  1.00  0.00     0.023 C 
HETATM   15  C22 UNL     1      21.779  -1.479  54.479  1.00  0.00     0.009 C 
ENDBRANCH  13  14
ENDBRANCH  11  13
BRANCH   1  16
HETATM   16  C2  UNL     1      25.730   0.544  52.531  1.00  0.00     0.003 C 
HETATM   17  C1  UNL     1      26.742  -0.194  52.083  1.00  0.00     0.009 C 
ENDBRANCH   1  16
BRANCH   9  18
HETATM   18  C17 UNL     1      24.793   3.648  51.028  1.00  0.00     0.379 C 
HETATM   19  C9  UNL     1      23.530   4.391  50.794  1.00  0.00     0.058 C 
HETATM   20  C10 UNL     1      23.773   5.841  50.522  1.00  0.00     0.005 A 
HETATM   21  C11 UNL     1      22.951   6.925  50.538  1.00  0.00     0.014 A 
HETATM   22  C15 UNL     1      25.148   5.848  50.243  1.00  0.00     0.047 A 
HETATM   23  C12 UNL     1      23.563   8.113  50.246  1.00  0.00     0.001 A 
HETATM   24  C13 UNL     1      24.914   8.173  49.961  1.00  0.00     0.002 A 
HETATM   25  C14 UNL     1      25.742   7.053  49.952  1.00  0.00     0.030 A 
HETATM   26  N2  UNL     1      25.703   4.513  50.321  1.00  0.00    -0.297 N 
HETATM   27  C16 UNL     1      26.442   3.251  50.275  1.00  0.00     0.304 C 
HETATM   28  O2  UNL     1      25.125   2.774  49.906  1.00  0.00    -0.312 OA
ENDBRANCH   9  18
TORSDOF 5
ENDMDL
MODEL 3
REMARK VINA RESULT:      -7.7      1.905      2.493
REMARK  5 active torsions:
REMARK  status: ('A' for Active; 'I' for Inactive)
REMARK    1  A    between atoms: C2_2  and  C3_3 
REMARK    2  A    between atoms: C8_10  and  C9_11 
REMARK    3  A    between atoms: C17_21  and  N3_22 
REMARK    4  A    between atoms: C19_24  and  C20_25 
REMARK    5  A    between atoms: C20_25  and  C21_26 
ROOT
HETATM    1  C3  UNL     1      23.404   4.006  51.493  1.00  0.00     0.286 C 
HETATM    2  C4  UNL     1      22.798   2.852  50.721  1.00  0.00    -0.004 C 
HETATM    3  C5  UNL     1      22.116   1.740  50.916  1.00  0.00    -0.015 C 
HETATM    4  C6  UNL     1      20.903   1.119  50.445  1.00  0.00     0.163 C 
HETATM    5  N1  UNL     1      20.802   0.093  51.539  1.00  0.00    -0.353 N 
HETATM    6  C7  UNL     1      21.965  -0.281  52.300  1.00  0.00     0.253 C 
HETATM    7  O1  UNL     1      22.318  -1.142  53.079  1.00  0.00    -0.268 OA
HETATM    8  C8  UNL     1      22.844   0.780  51.896  1.00  0.00     0.054 C 
HETATM    9  N3  UNL     1      24.771   3.323  51.224  1.00  0.00     0.167 NA
HETATM   10  C18 UNL     1      24.788   3.224  49.822  1.00  0.00     0.319 C 
HETATM   11  C19 UNL     1      23.344   2.993  49.378  1.00  0.00    -0.024 C 
HETATM   12  H7  UNL     1      19.863  -0.314  51.693  1.00  0.00     0.163 HD
ENDROOT
BRANCH  11  13
HETATM   13  C20 UNL     1      22.446   2.857  48.425  1.00  0.00    -0.018 C 
BRANCH  13  14
HETATM   14  C21 UNL     1      21.486   2.929  47.359  1.00  0.00     0.023 C 
HETATM   15  C22 UNL     1      21.943   3.670  46.118  1.00  0.00     0.009 C 
ENDBRANCH  13  14
ENDBRANCH  11  13
BRANCH   1  16
HETATM   16  C2  UNL     1      23.324   5.263  50.796  1.00  0.00     0.003 C 
HETATM   17  C1  UNL     1      22.244   5.987  51.076  1.00  0.00     0.009 C 
ENDBRANCH   1  16
BRANCH   9  18
HETATM   18  C17 UNL     1      24.870   2.353  52.181  1.00  0.00     0.379 C 
HETATM   19  C9  UNL     1      24.940   0.901  51.880  1.00  0.00     0.058 C 
HETATM   20  C10 UNL     1      26.109   0.246  52.542  1.00  0.00     0.005 A 
HETATM   21  C11 UNL     1      26.726  -0.949  52.335  1.00  0.00     0.014 A 
HETATM   22  C15 UNL     1      26.478   1.216  53.487  1.00  0.00     0.047 A 
HETATM   23  C12 UNL     1      27.799  -1.189  53.149  1.00  0.00     0.001 A 
HETATM   24  C13 UNL     1      28.200  -0.267  54.097  1.00  0.00     0.002 A 
HETATM   25  C14 UNL     1      27.559   0.953  54.294  1.00  0.00     0.030 A 
HETATM   26  N2  UNL     1      25.601   2.366  53.424  1.00  0.00    -0.297 N 
HETATM   27  C16 UNL     1      24.794   3.578  53.574  1.00  0.00     0.304 C 
HETATM   28  O2  UNL     1      23.775   2.666  53.095  1.00  0.00    -0.312 OA
ENDBRANCH   9  18
TORSDOF 5
ENDMDL
MODEL 4
REMARK VINA RESULT:      -7.3      2.634      5.253
REMARK  5 active torsions:
REMARK  status: ('A' for Active; 'I' for Inactive)
REMARK    1  A    between atoms: C2_2  and  C3_3 
REMARK    2  A    between atoms: C8_10  and  C9_11 
REMARK    3  A    between atoms: C17_21  and  N3_22 
REMARK    4  A    between atoms: C19_24  and  C20_25 
REMARK    5  A    between atoms: C20_25  and  C21_26 
ROOT
HETATM    1  C3  UNL     1      21.592   3.524  50.184  1.00  0.00     0.286 C 
HETATM    2  C4  UNL     1      22.628   4.627  50.243  1.00  0.00    -0.004 C 
HETATM    3  C5  UNL     1      23.849   4.904  49.825  1.00  0.00    -0.015 C 
HETATM    4  C6  UNL     1      24.532   5.947  49.101  1.00  0.00     0.163 C 
HETATM    5  N1  UNL     1      25.775   5.157  48.799  1.00  0.00    -0.353 N 
HETATM    6  C7  UNL     1      26.120   4.008  49.593  1.00  0.00     0.253 C 
HETATM    7  O1  UNL     1      27.066   3.269  49.782  1.00  0.00    -0.268 OA
HETATM    8  C8  UNL     1      24.874   3.832  50.283  1.00  0.00     0.054 C 
HETATM    9  N3  UNL     1      21.979   3.231  51.657  1.00  0.00     0.167 NA
HETATM   10  C18 UNL     1      21.766   4.474  52.278  1.00  0.00     0.319 C 
HETATM   11  C19 UNL     1      22.115   5.548  51.248  1.00  0.00    -0.024 C 
HETATM   12  H7  UNL     1      26.346   5.497  48.006  1.00  0.00     0.163 HD
ENDROOT
BRANCH  11  13
HETATM   13  C20 UNL     1      22.178   6.812  50.887  1.00  0.00    -0.018 C 
BRANCH  13  14
HETATM   14  C21 UNL     1      22.076   8.144  50.358  1.00  0.00     0.023 C 
HETATM   15  C22 UNL     1      21.552   8.244  48.939  1.00  0.00     0.009 C 
ENDBRANCH  13  14
ENDBRANCH  11  13
BRANCH   1  16
HETATM   16  C2  UNL     1      20.241   4.016  50.107  1.00  0.00     0.003 C 
HETATM   17  C1  UNL     1      19.703   3.981  48.891  1.00  0.00     0.009 C 
ENDBRANCH   1  16
BRANCH   9  18
HETATM   18  C17 UNL     1      23.107   2.465  51.574  1.00  0.00     0.379 C 
HETATM   19  C9  UNL     1      24.435   2.895  52.078  1.00  0.00     0.058 C 
HETATM   20  C10 UNL     1      25.042   1.883  52.997  1.00  0.00     0.005 A 
HETATM   21  C11 UNL     1      26.064   1.957  53.892  1.00  0.00     0.014 A 
HETATM   22  C15 UNL     1      24.255   0.752  52.729  1.00  0.00     0.047 A 
HETATM   23  C12 UNL     1      26.317   0.797  54.571  1.00  0.00     0.001 A 
HETATM   24  C13 UNL     1      25.572  -0.344  54.342  1.00  0.00     0.002 A 
HETATM   25  C14 UNL     1      24.526  -0.402  53.424  1.00  0.00     0.030 A 
HETATM   26  N2  UNL     1      23.256   1.038  51.721  1.00  0.00    -0.297 N 
HETATM   27  C16 UNL     1      22.233   1.096  50.676  1.00  0.00     0.304 C 
HETATM   28  O2  UNL     1      23.157   2.087  50.165  1.00  0.00    -0.312 OA
ENDBRANCH   9  18
TORSDOF 5
ENDMDL
MODEL 5
REMARK VINA RESULT:      -7.2      8.880     10.621
REMARK  5 active torsions:
REMARK  status: ('A' for Active; 'I' for Inactive)
REMARK    1  A    between atoms: C2_2  and  C3_3 
REMARK    2  A    between atoms: C8_10  and  C9_11 
REMARK    3  A    between atoms: C17_21  and  N3_22 
REMARK    4  A    between atoms: C19_24  and  C20_25 
REMARK    5  A    between atoms: C20_25  and  C21_26 
ROOT
HETATM    1  C3  UNL     1      30.545   8.946  48.230  1.00  0.00     0.286 C 
HETATM    2  C4  UNL     1      29.339   8.381  47.508  1.00  0.00    -0.004 C 
HETATM    3  C5  UNL     1      28.342   7.536  47.692  1.00  0.00    -0.015 C 
HETATM    4  C6  UNL     1      26.904   7.522  47.590  1.00  0.00     0.163 C 
HETATM    5  N1  UNL     1      26.691   6.261  48.380  1.00  0.00    -0.353 N 
HETATM    6  C7  UNL     1      27.758   5.308  48.537  1.00  0.00     0.253 C 
HETATM    7  O1  UNL     1      27.924   4.164  48.909  1.00  0.00    -0.268 OA
HETATM    8  C8  UNL     1      28.850   6.120  48.079  1.00  0.00     0.054 C 
HETATM    9  N3  UNL     1      31.388   8.019  47.316  1.00  0.00     0.167 NA
HETATM   10  C18 UNL     1      30.988   8.418  46.029  1.00  0.00     0.319 C 
HETATM   11  C19 UNL     1      29.514   8.810  46.127  1.00  0.00    -0.024 C 
HETATM   12  H7  UNL     1      25.747   6.133  48.783  1.00  0.00     0.163 HD
ENDROOT
BRANCH  11  13
HETATM   13  C20 UNL     1      28.419   9.298  45.582  1.00  0.00    -0.018 C 
BRANCH  13  14
HETATM   14  C21 UNL     1      27.280   9.708  44.809  1.00  0.00     0.023 C 
HETATM   15  C22 UNL     1      26.646   8.626  43.958  1.00  0.00     0.009 C 
ENDBRANCH  13  14
ENDBRANCH  11  13
BRANCH   1  16
HETATM   16  C2  UNL     1      30.800  10.328  47.917  1.00  0.00     0.003 C 
HETATM   17  C1  UNL     1      30.588  11.175  48.920  1.00  0.00     0.009 C 
ENDBRANCH   1  16
BRANCH   9  18
HETATM   18  C17 UNL     1      31.336   6.795  47.919  1.00  0.00     0.379 C 
HETATM   19  C9  UNL     1      30.665   5.611  47.326  1.00  0.00     0.058 C 
HETATM   20  C10 UNL     1      31.567   4.419  47.280  1.00  0.00     0.005 A 
HETATM   21  C11 UNL     1      31.500   3.247  46.591  1.00  0.00     0.014 A 
HETATM   22  C15 UNL     1      32.591   4.807  48.158  1.00  0.00     0.047 A 
HETATM   23  C12 UNL     1      32.549   2.395  46.806  1.00  0.00     0.001 A 
HETATM   24  C13 UNL     1      33.581   2.730  47.662  1.00  0.00     0.002 A 
HETATM   25  C14 UNL     1      33.635   3.935  48.358  1.00  0.00     0.030 A 
HETATM   26  N2  UNL     1      32.336   6.121  48.709  1.00  0.00    -0.297 N 
HETATM   27  C16 UNL     1      32.232   7.389  49.432  1.00  0.00     0.304 C 
HETATM   28  O2  UNL     1      30.825   7.096  49.254  1.00  0.00    -0.312 OA
ENDBRANCH   9  18
TORSDOF 5
ENDMDL
MODEL 6
REMARK VINA RESULT:      -7.1      3.541      6.066
REMARK  5 active torsions:
REMARK  status: ('A' for Active; 'I' for Inactive)
REMARK    1  A    between atoms: C2_2  and  C3_3 
REMARK    2  A    between atoms: C8_10  and  C9_11 
REMARK    3  A    between atoms: C17_21  and  N3_22 
REMARK    4  A    between atoms: C19_24  and  C20_25 
REMARK    5  A    between atoms: C20_25  and  C21_26 
ROOT
HETATM    1  C3  UNL     1      24.680   2.271  51.655  1.00  0.00     0.286 C 
HETATM    2  C4  UNL     1      23.251   2.231  51.153  1.00  0.00    -0.004 C 
HETATM    3  C5  UNL     1      22.558   1.944  50.067  1.00  0.00    -0.015 C 
HETATM    4  C6  UNL     1      21.446   1.111  49.684  1.00  0.00     0.163 C 
HETATM    5  N1  UNL     1      21.685   1.181  48.201  1.00  0.00    -0.353 N 
HETATM    6  C7  UNL     1      22.457   2.256  47.636  1.00  0.00     0.253 C 
HETATM    7  O1  UNL     1      22.700   2.744  46.550  1.00  0.00    -0.268 OA
HETATM    8  C8  UNL     1      23.029   2.779  48.845  1.00  0.00     0.054 C 
HETATM    9  N3  UNL     1      24.564   3.814  51.528  1.00  0.00     0.167 NA
HETATM   10  C18 UNL     1      23.445   4.098  52.329  1.00  0.00     0.319 C 
HETATM   11  C19 UNL     1      22.488   2.914  52.188  1.00  0.00    -0.024 C 
HETATM   12  H7  UNL     1      21.261   0.424  47.638  1.00  0.00     0.163 HD
ENDROOT
BRANCH  11  13
HETATM   13  C20 UNL     1      21.380   2.290  52.528  1.00  0.00    -0.018 C 
BRANCH  13  14
HETATM   14  C21 UNL     1      20.066   1.769  52.784  1.00  0.00     0.023 C 
HETATM   15  C22 UNL     1      18.957   2.346  51.927  1.00  0.00     0.009 C 
ENDBRANCH  13  14
ENDBRANCH  11  13
BRANCH   1  16
HETATM   16  C2  UNL     1      24.810   1.889  53.036  1.00  0.00     0.003 C 
HETATM   17  C1  UNL     1      25.698   0.926  53.267  1.00  0.00     0.009 C 
ENDBRANCH   1  16
BRANCH   9  18
HETATM   18  C17 UNL     1      24.797   4.073  50.208  1.00  0.00     0.379 C 
HETATM   19  C9  UNL     1      23.782   4.642  49.287  1.00  0.00     0.058 C 
HETATM   20  C10 UNL     1      24.291   5.849  48.566  1.00  0.00     0.005 A 
HETATM   21  C11 UNL     1      23.659   6.835  47.874  1.00  0.00     0.014 A 
HETATM   22  C15 UNL     1      25.673   5.748  48.789  1.00  0.00     0.047 A 
HETATM   23  C12 UNL     1      24.486   7.797  47.362  1.00  0.00     0.001 A 
HETATM   24  C13 UNL     1      25.854   7.742  47.552  1.00  0.00     0.002 A 
HETATM   25  C14 UNL     1      26.485   6.726  48.266  1.00  0.00     0.030 A 
HETATM   26  N2  UNL     1      25.990   4.571  49.570  1.00  0.00    -0.297 N 
HETATM   27  C16 UNL     1      26.529   3.409  50.278  1.00  0.00     0.304 C 
HETATM   28  O2  UNL     1      25.340   2.813  49.705  1.00  0.00    -0.312 OA
ENDBRANCH   9  18
TORSDOF 5
ENDMDL
MODEL 7
REMARK VINA RESULT:      -7.0      9.694     12.704
REMARK  5 active torsions:
REMARK  status: ('A' for Active; 'I' for Inactive)
REMARK    1  A    between atoms: C2_2  and  C3_3 
REMARK    2  A    between atoms: C8_10  and  C9_11 
REMARK    3  A    between atoms: C17_21  and  N3_22 
REMARK    4  A    between atoms: C19_24  and  C20_25 
REMARK    5  A    between atoms: C20_25  and  C21_26 
ROOT
HETATM    1  C3  UNL     1      32.535   7.919  48.102  1.00  0.00     0.286 C 
HETATM    2  C4  UNL     1      32.127   7.279  46.791  1.00  0.00    -0.004 C 
HETATM    3  C5  UNL     1      31.550   7.581  45.644  1.00  0.00    -0.015 C 
HETATM    4  C6  UNL     1      31.821   7.463  44.233  1.00  0.00     0.163 C 
HETATM    5  N1  UNL     1      30.775   8.441  43.777  1.00  0.00    -0.353 N 
HETATM    6  C7  UNL     1      29.658   8.763  44.624  1.00  0.00     0.253 C 
HETATM    7  O1  UNL     1      28.578   9.316  44.554  1.00  0.00    -0.268 OA
HETATM    8  C8  UNL     1      30.140   8.197  45.852  1.00  0.00     0.054 C 
HETATM    9  N3  UNL     1      31.318   7.177  48.716  1.00  0.00     0.167 NA
HETATM   10  C18 UNL     1      31.582   5.837  48.382  1.00  0.00     0.319 C 
HETATM   11  C19 UNL     1      32.284   5.850  47.025  1.00  0.00    -0.024 C 
HETATM   12  H7  UNL     1      30.914   8.845  42.835  1.00  0.00     0.163 HD
ENDROOT
BRANCH  11  13
HETATM   13  C20 UNL     1      32.897   5.218  46.046  1.00  0.00    -0.018 C 
BRANCH  13  14
HETATM   14  C21 UNL     1      33.586   4.360  45.123  1.00  0.00     0.023 C 
HETATM   15  C22 UNL     1      34.957   3.890  45.568  1.00  0.00     0.009 C 
ENDBRANCH  13  14
ENDBRANCH  11  13
BRANCH   1  16
HETATM   16  C2  UNL     1      33.765   7.393  48.635  1.00  0.00     0.003 C 
HETATM   17  C1  UNL     1      34.858   8.061  48.277  1.00  0.00     0.009 C 
ENDBRANCH   1  16
BRANCH   9  18
HETATM   18  C17 UNL     1      30.244   7.968  48.420  1.00  0.00     0.379 C 
HETATM   19  C9  UNL     1      29.128   7.546  47.537  1.00  0.00     0.058 C 
HETATM   20  C10 UNL     1      27.795   7.731  48.190  1.00  0.00     0.005 A 
HETATM   21  C11 UNL     1      26.560   7.238  47.903  1.00  0.00     0.014 A 
HETATM   22  C15 UNL     1      28.121   8.575  49.262  1.00  0.00     0.047 A 
HETATM   23  C12 UNL     1      25.572   7.631  48.763  1.00  0.00     0.001 A 
HETATM   24  C13 UNL     1      25.841   8.463  49.832  1.00  0.00     0.002 A 
HETATM   25  C14 UNL     1      27.112   8.957  50.114  1.00  0.00     0.030 A 
HETATM   26  N2  UNL     1      29.533   8.897  49.263  1.00  0.00    -0.297 N 
HETATM   27  C16 UNL     1      30.900   9.400  49.402  1.00  0.00     0.304 C 
HETATM   28  O2  UNL     1      30.855   9.214  47.966  1.00  0.00    -0.312 OA
ENDBRANCH   9  18
TORSDOF 5
ENDMDL
MODEL 8
REMARK VINA RESULT:      -7.0      2.516      5.196
REMARK  5 active torsions:
REMARK  status: ('A' for Active; 'I' for Inactive)
REMARK    1  A    between atoms: C2_2  and  C3_3 
REMARK    2  A    between atoms: C8_10  and  C9_11 
REMARK    3  A    between atoms: C17_21  and  N3_22 
REMARK    4  A    between atoms: C19_24  and  C20_25 
REMARK    5  A    between atoms: C20_25  and  C21_26 
ROOT
HETATM    1  C3  UNL     1      22.028   3.257  49.933  1.00  0.00     0.286 C 
HETATM    2  C4  UNL     1      23.300   3.715  50.617  1.00  0.00    -0.004 C 
HETATM    3  C5  UNL     1      24.559   3.354  50.778  1.00  0.00    -0.015 C 
HETATM    4  C6  UNL     1      25.875   3.917  50.607  1.00  0.00     0.163 C 
HETATM    5  N1  UNL     1      26.625   2.615  50.668  1.00  0.00    -0.353 N 
HETATM    6  C7  UNL     1      26.031   1.459  51.286  1.00  0.00     0.253 C 
HETATM    7  O1  UNL     1      26.356   0.357  51.680  1.00  0.00    -0.268 OA
HETATM    8  C8  UNL     1      24.677   1.927  51.379  1.00  0.00     0.054 C 
HETATM    9  N3  UNL     1      21.548   2.841  51.348  1.00  0.00     0.167 NA
HETATM   10  C18 UNL     1      21.661   4.042  52.070  1.00  0.00     0.319 C 
HETATM   11  C19 UNL     1      22.866   4.789  51.499  1.00  0.00    -0.024 C 
HETATM   12  H7  UNL     1      27.571   2.618  50.251  1.00  0.00     0.163 HD
ENDROOT
BRANCH  11  13
HETATM   13  C20 UNL     1      23.637   5.855  51.455  1.00  0.00    -0.018 C 
BRANCH  13  14
HETATM   14  C21 UNL     1      24.349   7.084  51.237  1.00  0.00     0.023 C 
HETATM   15  C22 UNL     1      23.742   8.015  50.205  1.00  0.00     0.009 C 
ENDBRANCH  13  14
ENDBRANCH  11  13
BRANCH   1  16
HETATM   16  C2  UNL     1      21.229   4.344  49.430  1.00  0.00     0.003 C 
HETATM   17  C1  UNL     1      21.394   4.606  48.137  1.00  0.00     0.009 C 
ENDBRANCH   1  16
BRANCH   9  18
HETATM   18  C17 UNL     1      22.122   1.621  51.565  1.00  0.00     0.379 C 
HETATM   19  C9  UNL     1      23.189   1.378  52.568  1.00  0.00     0.058 C 
HETATM   20  C10 UNL     1      22.849   0.247  53.486  1.00  0.00     0.005 A 
HETATM   21  C11 UNL     1      23.356  -0.138  54.688  1.00  0.00     0.014 A 
HETATM   22  C15 UNL     1      21.797  -0.371  52.794  1.00  0.00     0.047 A 
HETATM   23  C12 UNL     1      22.757  -1.238  55.237  1.00  0.00     0.001 A 
HETATM   24  C13 UNL     1      21.718  -1.885  54.595  1.00  0.00     0.002 A 
HETATM   25  C14 UNL     1      21.209  -1.475  53.365  1.00  0.00     0.030 A 
HETATM   26  N2  UNL     1      21.520   0.311  51.548  1.00  0.00    -0.297 N 
HETATM   27  C16 UNL     1      21.130   0.804  50.226  1.00  0.00     0.304 C 
HETATM   28  O2  UNL     1      22.526   1.194  50.228  1.00  0.00    -0.312 OA
ENDBRANCH   9  18
TORSDOF 5
ENDMDL
MODEL 9
REMARK VINA RESULT:      -6.9      2.745      6.614
REMARK  5 active torsions:
REMARK  status: ('A' for Active; 'I' for Inactive)
REMARK    1  A    between atoms: C2_2  and  C3_3 
REMARK    2  A    between atoms: C8_10  and  C9_11 
REMARK    3  A    between atoms: C17_21  and  N3_22 
REMARK    4  A    between atoms: C19_24  and  C20_25 
REMARK    5  A    between atoms: C20_25  and  C21_26 
ROOT
HETATM    1  C3  UNL     1      20.825   1.364  52.838  1.00  0.00     0.286 C 
HETATM    2  C4  UNL     1      22.297   1.670  52.652  1.00  0.00    -0.004 C 
HETATM    3  C5  UNL     1      23.122   2.695  52.555  1.00  0.00    -0.015 C 
HETATM    4  C6  UNL     1      24.335   3.169  53.174  1.00  0.00     0.163 C 
HETATM    5  N1  UNL     1      24.248   4.579  52.658  1.00  0.00    -0.353 N 
HETATM    6  C7  UNL     1      23.452   4.885  51.499  1.00  0.00     0.253 C 
HETATM    7  O1  UNL     1      23.285   5.793  50.710  1.00  0.00    -0.268 OA
HETATM    8  C8  UNL     1      22.714   3.657  51.405  1.00  0.00     0.054 C 
HETATM    9  N3  UNL     1      20.823   1.003  51.329  1.00  0.00     0.167 NA
HETATM   10  C18 UNL     1      21.823   0.019  51.254  1.00  0.00     0.319 C 
HETATM   11  C19 UNL     1      22.886   0.390  52.289  1.00  0.00    -0.024 C 
HETATM   12  H7  UNL     1      24.792   5.286  53.182  1.00  0.00     0.163 HD
ENDROOT
BRANCH  11  13
HETATM   13  C20 UNL     1      24.001   0.117  52.934  1.00  0.00    -0.018 C 
BRANCH  13  14
HETATM   14  C21 UNL     1      25.265  -0.311  53.464  1.00  0.00     0.023 C 
HETATM   15  C22 UNL     1      26.408  -0.358  52.468  1.00  0.00     0.009 C 
ENDBRANCH  13  14
ENDBRANCH  11  13
BRANCH   1  16
HETATM   16  C2  UNL     1      20.583   0.191  53.637  1.00  0.00     0.003 C 
HETATM   17  C1  UNL     1      20.763   0.360  54.944  1.00  0.00     0.009 C 
ENDBRANCH   1  16
BRANCH   9  18
HETATM   18  C17 UNL     1      20.709   2.201  50.685  1.00  0.00     0.379 C 
HETATM   19  C9  UNL     1      21.787   2.799  49.858  1.00  0.00     0.058 C 
HETATM   20  C10 UNL     1      21.306   3.173  48.493  1.00  0.00     0.005 A 
HETATM   21  C11 UNL     1      21.966   3.468  47.340  1.00  0.00     0.014 A 
HETATM   22  C15 UNL     1      19.914   3.134  48.664  1.00  0.00     0.047 A 
HETATM   23  C12 UNL     1      21.157   3.750  46.273  1.00  0.00     0.001 A 
HETATM   24  C13 UNL     1      19.781   3.728  46.391  1.00  0.00     0.002 A 
HETATM   25  C14 UNL     1      19.121   3.421  47.579  1.00  0.00     0.030 A 
HETATM   26  N2  UNL     1      19.566   2.780  50.024  1.00  0.00    -0.297 N 
HETATM   27  C16 UNL     1      19.004   2.512  51.349  1.00  0.00     0.304 C 
HETATM   28  O2  UNL     1      20.264   3.112  51.737  1.00  0.00    -0.312 OA
ENDBRANCH   9  18
TORSDOF 5
ENDMDL
