MODEL 1
REMARK VINA RESULT:      -8.9      0.000      0.000
REMARK  6 active torsions:
REMARK  status: ('A' for Active; 'I' for Inactive)
REMARK    1  A    between atoms: C5_7  and  C6_8 
REMARK    2  A    between atoms: C6_8  and  C7_9 
REMARK    3  A    between atoms: C7_9  and  O2_10 
REMARK    4  A    between atoms: O2_10  and  C8_11 
REMARK    5  A    between atoms: C10_13  and  N2_14 
REMARK    6  A    between atoms: N2_14  and  C11_15 
ROOT
HETATM    1  C8  UNL     1      23.579   3.145  50.983  1.00  0.00     0.176 C 
HETATM    2  C9  UNL     1      24.976   3.184  50.442  1.00  0.00     0.059 C 
HETATM    3  C10 UNL     1      26.263   3.152  50.375  1.00  0.00     0.125 C 
HETATM    4  N4  UNL     1      27.095   3.505  49.252  1.00  0.00    -0.231 NA
HETATM    5  C16 UNL     1      27.008   4.836  48.974  1.00  0.00     0.328 C 
HETATM    6  N5  UNL     1      26.357   6.034  49.427  1.00  0.00    -0.291 NA
HETATM    7  C17 UNL     1      25.269   6.207  50.082  1.00  0.00     0.097 C 
HETATM    8  C18 UNL     1      24.073   5.620  50.754  1.00  0.00    -0.001 C 
HETATM    9  C19 UNL     1      23.227   4.635  51.214  1.00  0.00    -0.054 C 
HETATM   10  C20 UNL     1      22.033   5.241  51.843  1.00  0.00     0.046 C 
ENDROOT
BRANCH   1  11
HETATM   11  O2  UNL     1      22.658   2.668  50.088  1.00  0.00    -0.377 OA
BRANCH  11  12
HETATM   12  C7  UNL     1      22.254   1.371  50.345  1.00  0.00     0.171 C 
BRANCH  12  13
HETATM   13  C6  UNL     1      22.341   1.073  51.837  1.00  0.00     0.069 C 
BRANCH  13  14
HETATM   14  C5  UNL     1      21.588  -0.202  52.119  1.00  0.00     0.277 C 
HETATM   15  C2  UNL     1      20.310   0.162  52.781  1.00  0.00     0.070 C 
HETATM   16  C1  UNL     1      19.177  -0.039  52.167  1.00  0.00     0.048 C 
HETATM   17  O1  UNL     1      20.562   0.691  54.030  1.00  0.00    -0.352 OA
HETATM   18  C3  UNL     1      21.308  -0.128  54.946  1.00  0.00     0.205 C 
HETATM   19  C4  UNL     1      21.609  -1.399  54.155  1.00  0.00     0.297 C 
HETATM   20  N1  UNL     1      22.383  -1.084  52.977  1.00  0.00     0.096 N 
HETATM   21  H7  UNL     1      23.288  -0.580  53.240  1.00  0.00     0.316 HD
ENDBRANCH  13  14
ENDBRANCH  12  13
ENDBRANCH  11  12
ENDBRANCH   1  11
BRANCH   3  22
HETATM   22  N2  UNL     1      26.906   2.924  51.574  1.00  0.00    -0.350 N 
HETATM   23  H15 UNL     1      27.836   3.435  51.422  1.00  0.00     0.163 HD
BRANCH  22  24
HETATM   24  C11 UNL     1      26.765   2.294  52.887  1.00  0.00     0.208 A 
HETATM   25  C12 UNL     1      26.672   0.835  52.649  1.00  0.00     0.046 A 
HETATM   26  C13 UNL     1      27.407  -0.216  52.945  1.00  0.00     0.073 A 
HETATM   27 CL1  UNL     1      27.059  -1.885  52.527  1.00  0.00    -0.081 Cl
HETATM   28  C14 UNL     1      28.598   0.133  53.723  1.00  0.00     0.152 A 
HETATM   29  F1  UNL     1      29.433  -0.844  54.091  1.00  0.00    -0.203 F 
HETATM   30  C15 UNL     1      28.772   1.406  54.023  1.00  0.00     0.129 A 
HETATM   31  N3  UNL     1      27.955   2.515  53.694  1.00  0.00    -0.372 N 
HETATM   32  H19 UNL     1      28.241   3.448  54.057  1.00  0.00     0.161 HD
ENDBRANCH  22  24
ENDBRANCH   3  22
TORSDOF 6
ENDMDL
MODEL 2
REMARK VINA RESULT:      -8.9      2.519      5.725
REMARK  6 active torsions:
REMARK  status: ('A' for Active; 'I' for Inactive)
REMARK    1  A    between atoms: C5_7  and  C6_8 
REMARK    2  A    between atoms: C6_8  and  C7_9 
REMARK    3  A    between atoms: C7_9  and  O2_10 
REMARK    4  A    between atoms: O2_10  and  C8_11 
REMARK    5  A    between atoms: C10_13  and  N2_14 
REMARK    6  A    between atoms: N2_14  and  C11_15 
ROOT
HETATM    1  C8  UNL     1      23.287   0.958  52.424  1.00  0.00     0.176 C 
HETATM    2  C9  UNL     1      24.034   0.224  53.495  1.00  0.00     0.059 C 
HETATM    3  C10 UNL     1      24.836  -0.595  54.086  1.00  0.00     0.125 C 
HETATM    4  N4  UNL     1      24.910  -0.893  55.494  1.00  0.00    -0.231 NA
HETATM    5  C16 UNL     1      23.782  -1.524  55.924  1.00  0.00     0.328 C 
HETATM    6  N5  UNL     1      22.516  -2.005  55.443  1.00  0.00    -0.291 NA
HETATM    7  C17 UNL     1      21.810  -1.655  54.431  1.00  0.00     0.097 C 
HETATM    8  C18 UNL     1      21.631  -0.779  53.237  1.00  0.00    -0.001 C 
HETATM    9  C19 UNL     1      21.946   0.193  52.312  1.00  0.00    -0.054 C 
HETATM   10  C20 UNL     1      20.834   0.362  51.351  1.00  0.00     0.046 C 
ENDROOT
BRANCH   1  11
HETATM   11  O2  UNL     1      22.967   2.245  52.763  1.00  0.00    -0.377 OA
BRANCH  11  12
HETATM   12  C7  UNL     1      24.018   3.133  52.626  1.00  0.00     0.171 C 
BRANCH  12  13
HETATM   13  C6  UNL     1      23.505   4.568  52.618  1.00  0.00     0.069 C 
BRANCH  13  14
HETATM   14  C5  UNL     1      23.381   5.028  51.187  1.00  0.00     0.277 C 
HETATM   15  C2  UNL     1      22.146   5.845  51.079  1.00  0.00     0.070 C 
HETATM   16  C1  UNL     1      22.229   7.123  50.828  1.00  0.00     0.048 C 
HETATM   17  O1  UNL     1      21.037   5.049  51.278  1.00  0.00    -0.352 OA
HETATM   18  C3  UNL     1      20.886   3.914  50.408  1.00  0.00     0.205 C 
HETATM   19  C4  UNL     1      22.112   3.970  49.500  1.00  0.00     0.297 C 
HETATM   20  N1  UNL     1      23.320   3.876  50.285  1.00  0.00     0.096 N 
HETATM   21  H7  UNL     1      23.325   2.982  50.872  1.00  0.00     0.316 HD
ENDBRANCH  13  14
ENDBRANCH  12  13
ENDBRANCH  11  12
ENDBRANCH   1  11
BRANCH   3  22
HETATM   22  N2  UNL     1      25.579  -1.397  53.244  1.00  0.00    -0.350 N 
HETATM   23  H15 UNL     1      25.000  -2.298  53.238  1.00  0.00     0.163 HD
BRANCH  22  24
HETATM   24  C11 UNL     1      26.777  -1.436  52.405  1.00  0.00     0.208 A 
HETATM   25  C12 UNL     1      27.638  -0.313  52.844  1.00  0.00     0.046 A 
HETATM   26  C13 UNL     1      28.824  -0.199  53.404  1.00  0.00     0.073 A 
HETATM   27 CL1  UNL     1      29.636   1.296  53.835  1.00  0.00    -0.081 Cl
HETATM   28  C14 UNL     1      29.466  -1.497  53.627  1.00  0.00     0.152 A 
HETATM   29  F1  UNL     1      30.678  -1.523  54.190  1.00  0.00    -0.203 F 
HETATM   30  C15 UNL     1      28.803  -2.572  53.247  1.00  0.00     0.129 A 
HETATM   31  N3  UNL     1      27.528  -2.660  52.638  1.00  0.00    -0.372 N 
HETATM   32  H19 UNL     1      27.185  -3.606  52.374  1.00  0.00     0.161 HD
ENDBRANCH  22  24
ENDBRANCH   3  22
TORSDOF 6
ENDMDL
MODEL 3
REMARK VINA RESULT:      -8.3      3.407      6.272
REMARK  6 active torsions:
REMARK  status: ('A' for Active; 'I' for Inactive)
REMARK    1  A    between atoms: C5_7  and  C6_8 
REMARK    2  A    between atoms: C6_8  and  C7_9 
REMARK    3  A    between atoms: C7_9  and  O2_10 
REMARK    4  A    between atoms: O2_10  and  C8_11 
REMARK    5  A    between atoms: C10_13  and  N2_14 
REMARK    6  A    between atoms: N2_14  and  C11_15 
ROOT
HETATM    1  C8  UNL     1      22.820   0.893  52.807  1.00  0.00     0.176 C 
HETATM    2  C9  UNL     1      22.863   1.461  51.421  1.00  0.00     0.059 C 
HETATM    3  C10 UNL     1      22.889   2.300  50.443  1.00  0.00     0.125 C 
HETATM    4  N4  UNL     1      22.734   2.020  49.037  1.00  0.00    -0.231 NA
HETATM    5  C16 UNL     1      21.477   1.574  48.759  1.00  0.00     0.328 C 
HETATM    6  N5  UNL     1      20.225   1.283  49.401  1.00  0.00    -0.291 NA
HETATM    7  C17 UNL     1      19.951   0.980  50.617  1.00  0.00     0.097 C 
HETATM    8  C18 UNL     1      20.422   0.721  52.008  1.00  0.00    -0.001 C 
HETATM    9  C19 UNL     1      21.318   0.608  53.049  1.00  0.00    -0.054 C 
HETATM   10  C20 UNL     1      20.624   0.153  54.273  1.00  0.00     0.046 C 
ENDROOT
BRANCH   1  11
HETATM   11  O2  UNL     1      23.464  -0.310  52.927  1.00  0.00    -0.377 OA
BRANCH  11  12
HETATM   12  C7  UNL     1      23.985  -0.538  54.187  1.00  0.00     0.171 C 
BRANCH  12  13
HETATM   13  C6  UNL     1      25.470  -0.867  54.096  1.00  0.00     0.069 C 
BRANCH  13  14
HETATM   14  C5  UNL     1      26.243   0.420  53.966  1.00  0.00     0.277 C 
HETATM   15  C2  UNL     1      26.968   0.385  52.671  1.00  0.00     0.070 C 
HETATM   16  C1  UNL     1      26.640   1.214  51.717  1.00  0.00     0.048 C 
HETATM   17  O1  UNL     1      27.940  -0.593  52.702  1.00  0.00    -0.352 OA
HETATM   18  C3  UNL     1      28.922  -0.501  53.748  1.00  0.00     0.205 C 
HETATM   19  C4  UNL     1      28.511   0.736  54.543  1.00  0.00     0.297 C 
HETATM   20  N1  UNL     1      27.182   0.567  55.081  1.00  0.00     0.096 N 
HETATM   21  H7  UNL     1      27.126  -0.310  55.691  1.00  0.00     0.316 HD
ENDBRANCH  13  14
ENDBRANCH  12  13
ENDBRANCH  11  12
ENDBRANCH   1  11
BRANCH   3  22
HETATM   22  N2  UNL     1      22.888   3.629  50.813  1.00  0.00    -0.350 N 
HETATM   23  H15 UNL     1      21.845   3.807  50.981  1.00  0.00     0.163 HD
BRANCH  22  24
HETATM   24  C11 UNL     1      23.749   4.787  51.056  1.00  0.00     0.208 A 
HETATM   25  C12 UNL     1      25.055   4.482  50.426  1.00  0.00     0.046 A 
HETATM   26  C13 UNL     1      25.761   4.983  49.435  1.00  0.00     0.073 A 
HETATM   27 CL1  UNL     1      27.325   4.413  48.875  1.00  0.00    -0.081 Cl
HETATM   28  C14 UNL     1      25.116   6.142  48.814  1.00  0.00     0.152 A 
HETATM   29  F1  UNL     1      25.729   6.746  47.792  1.00  0.00    -0.203 F 
HETATM   30  C15 UNL     1      23.956   6.526  49.312  1.00  0.00     0.129 A 
HETATM   31  N3  UNL     1      23.224   5.968  50.389  1.00  0.00    -0.372 N 
HETATM   32  H19 UNL     1      22.337   6.439  50.663  1.00  0.00     0.161 HD
ENDBRANCH  22  24
ENDBRANCH   3  22
TORSDOF 6
ENDMDL
MODEL 4
REMARK VINA RESULT:      -8.2      3.987      6.912
REMARK  6 active torsions:
REMARK  status: ('A' for Active; 'I' for Inactive)
REMARK    1  A    between atoms: C5_7  and  C6_8 
REMARK    2  A    between atoms: C6_8  and  C7_9 
REMARK    3  A    between atoms: C7_9  and  O2_10 
REMARK    4  A    between atoms: O2_10  and  C8_11 
REMARK    5  A    between atoms: C10_13  and  N2_14 
REMARK    6  A    between atoms: N2_14  and  C11_15 
ROOT
HETATM    1  C8  UNL     1      23.523   1.320  52.356  1.00  0.00     0.176 C 
HETATM    2  C9  UNL     1      23.462   2.192  51.139  1.00  0.00     0.059 C 
HETATM    3  C10 UNL     1      23.217   3.189  50.359  1.00  0.00     0.125 C 
HETATM    4  N4  UNL     1      23.366   3.244  48.926  1.00  0.00    -0.231 NA
HETATM    5  C16 UNL     1      22.485   2.409  48.307  1.00  0.00     0.328 C 
HETATM    6  N5  UNL     1      21.435   1.472  48.600  1.00  0.00    -0.291 NA
HETATM    7  C17 UNL     1      21.192   0.780  49.652  1.00  0.00     0.097 C 
HETATM    8  C18 UNL     1      21.568   0.388  51.041  1.00  0.00    -0.001 C 
HETATM    9  C19 UNL     1      22.295   0.390  52.212  1.00  0.00    -0.054 C 
HETATM   10  C20 UNL     1      21.746  -0.611  53.154  1.00  0.00     0.046 C 
ENDROOT
BRANCH   1  11
HETATM   11  O2  UNL     1      24.621   0.503  52.390  1.00  0.00    -0.377 OA
BRANCH  11  12
HETATM   12  C7  UNL     1      25.228   0.439  53.631  1.00  0.00     0.171 C 
BRANCH  12  13
HETATM   13  C6  UNL     1      26.196  -0.737  53.690  1.00  0.00     0.069 C 
BRANCH  13  14
HETATM   14  C5  UNL     1      27.447  -0.372  52.933  1.00  0.00     0.277 C 
HETATM   15  C2  UNL     1      28.608  -0.896  53.695  1.00  0.00     0.070 C 
HETATM   16  C1  UNL     1      29.336  -1.858  53.196  1.00  0.00     0.048 C 
HETATM   17  O1  UNL     1      28.727  -0.222  54.892  1.00  0.00    -0.352 OA
HETATM   18  C3  UNL     1      28.861   1.208  54.824  1.00  0.00     0.205 C 
HETATM   19  C4  UNL     1      28.802   1.521  53.330  1.00  0.00     0.297 C 
HETATM   20  N1  UNL     1      27.543   1.081  52.777  1.00  0.00     0.096 N 
HETATM   21  H7  UNL     1      26.721   1.535  53.290  1.00  0.00     0.316 HD
ENDBRANCH  13  14
ENDBRANCH  12  13
ENDBRANCH  11  12
ENDBRANCH   1  11
BRANCH   3  22
HETATM   22  N2  UNL     1      22.575   4.254  50.956  1.00  0.00    -0.350 N 
HETATM   23  H15 UNL     1      21.546   3.979  50.841  1.00  0.00     0.163 HD
BRANCH  22  24
HETATM   24  C11 UNL     1      22.792   5.521  51.655  1.00  0.00     0.208 A 
HETATM   25  C12 UNL     1      24.098   6.042  51.189  1.00  0.00     0.046 A 
HETATM   26  C13 UNL     1      24.505   7.094  50.511  1.00  0.00     0.073 A 
HETATM   27 CL1  UNL     1      26.162   7.484  50.080  1.00  0.00    -0.081 Cl
HETATM   28  C14 UNL     1      23.402   7.986  50.144  1.00  0.00     0.152 A 
HETATM   29  F1  UNL     1      23.678   9.095  49.450  1.00  0.00    -0.203 F 
HETATM   30  C15 UNL     1      22.190   7.638  50.532  1.00  0.00     0.129 A 
HETATM   31  N3  UNL     1      21.786   6.499  51.270  1.00  0.00    -0.372 N 
HETATM   32  H19 UNL     1      20.778   6.417  51.515  1.00  0.00     0.161 HD
ENDBRANCH  22  24
ENDBRANCH   3  22
TORSDOF 6
ENDMDL
MODEL 5
REMARK VINA RESULT:      -8.2      2.660      5.938
REMARK  6 active torsions:
REMARK  status: ('A' for Active; 'I' for Inactive)
REMARK    1  A    between atoms: C5_7  and  C6_8 
REMARK    2  A    between atoms: C6_8  and  C7_9 
REMARK    3  A    between atoms: C7_9  and  O2_10 
REMARK    4  A    between atoms: O2_10  and  C8_11 
REMARK    5  A    between atoms: C10_13  and  N2_14 
REMARK    6  A    between atoms: N2_14  and  C11_15 
ROOT
HETATM    1  C8  UNL     1      23.534   1.311  52.527  1.00  0.00     0.176 C 
HETATM    2  C9  UNL     1      23.955   0.440  53.671  1.00  0.00     0.059 C 
HETATM    3  C10 UNL     1      24.580  -0.446  54.369  1.00  0.00     0.125 C 
HETATM    4  N4  UNL     1      24.234  -0.941  55.678  1.00  0.00    -0.231 NA
HETATM    5  C16 UNL     1      23.063  -1.637  55.649  1.00  0.00     0.328 C 
HETATM    6  N5  UNL     1      22.033  -2.057  54.739  1.00  0.00    -0.291 NA
HETATM    7  C17 UNL     1      21.653  -1.573  53.613  1.00  0.00     0.097 C 
HETATM    8  C18 UNL     1      21.803  -0.539  52.549  1.00  0.00    -0.001 C 
HETATM    9  C19 UNL     1      22.334   0.557  51.905  1.00  0.00    -0.054 C 
HETATM   10  C20 UNL     1      21.563   0.850  50.677  1.00  0.00     0.046 C 
ENDROOT
BRANCH   1  11
HETATM   11  O2  UNL     1      23.058   2.535  52.917  1.00  0.00    -0.377 OA
BRANCH  11  12
HETATM   12  C7  UNL     1      24.052   3.434  53.257  1.00  0.00     0.171 C 
BRANCH  12  13
HETATM   13  C6  UNL     1      23.606   4.859  52.950  1.00  0.00     0.069 C 
BRANCH  13  14
HETATM   14  C5  UNL     1      22.801   4.851  51.676  1.00  0.00     0.277 C 
HETATM   15  C2  UNL     1      23.738   5.071  50.546  1.00  0.00     0.070 C 
HETATM   16  C1  UNL     1      23.952   4.117  49.681  1.00  0.00     0.048 C 
HETATM   17  O1  UNL     1      24.259   6.346  50.609  1.00  0.00    -0.352 OA
HETATM   18  C3  UNL     1      23.320   7.434  50.614  1.00  0.00     0.205 C 
HETATM   19  C4  UNL     1      21.954   6.753  50.562  1.00  0.00     0.297 C 
HETATM   20  N1  UNL     1      21.778   5.898  51.712  1.00  0.00     0.096 N 
HETATM   21  H7  UNL     1      21.890   6.453  52.620  1.00  0.00     0.316 HD
ENDBRANCH  13  14
ENDBRANCH  12  13
ENDBRANCH  11  12
ENDBRANCH   1  11
BRANCH   3  22
HETATM   22  N2  UNL     1      25.586  -1.114  53.701  1.00  0.00    -0.350 N 
HETATM   23  H15 UNL     1      25.210  -2.117  53.691  1.00  0.00     0.163 HD
BRANCH  22  24
HETATM   24  C11 UNL     1      26.877  -0.940  53.036  1.00  0.00     0.208 A 
HETATM   25  C12 UNL     1      26.767   0.286  52.212  1.00  0.00     0.046 A 
HETATM   26  C13 UNL     1      27.338   1.471  52.207  1.00  0.00     0.073 A 
HETATM   27 CL1  UNL     1      27.012   2.784  51.087  1.00  0.00    -0.081 Cl
HETATM   28  C14 UNL     1      28.351   1.611  53.256  1.00  0.00     0.152 A 
HETATM   29  F1  UNL     1      29.009   2.770  53.362  1.00  0.00    -0.203 F 
HETATM   30  C15 UNL     1      28.558   0.568  54.038  1.00  0.00     0.129 A 
HETATM   31  N3  UNL     1      27.930  -0.700  54.011  1.00  0.00    -0.372 N 
HETATM   32  H19 UNL     1      28.259  -1.415  54.692  1.00  0.00     0.161 HD
ENDBRANCH  22  24
ENDBRANCH   3  22
TORSDOF 6
ENDMDL
MODEL 6
REMARK VINA RESULT:      -8.0      3.013      5.617
REMARK  6 active torsions:
REMARK  status: ('A' for Active; 'I' for Inactive)
REMARK    1  A    between atoms: C5_7  and  C6_8 
REMARK    2  A    between atoms: C6_8  and  C7_9 
REMARK    3  A    between atoms: C7_9  and  O2_10 
REMARK    4  A    between atoms: O2_10  and  C8_11 
REMARK    5  A    between atoms: C10_13  and  N2_14 
REMARK    6  A    between atoms: N2_14  and  C11_15 
ROOT
HETATM    1  C8  UNL     1      26.221   3.230  50.352  1.00  0.00     0.176 C 
HETATM    2  C9  UNL     1      24.931   3.518  51.059  1.00  0.00     0.059 C 
HETATM    3  C10 UNL     1      23.674   3.553  51.345  1.00  0.00     0.125 C 
HETATM    4  N4  UNL     1      23.025   4.342  52.363  1.00  0.00    -0.231 NA
HETATM    5  C16 UNL     1      23.105   5.672  52.082  1.00  0.00     0.328 C 
HETATM    6  N5  UNL     1      23.627   6.578  51.095  1.00  0.00    -0.291 NA
HETATM    7  C17 UNL     1      24.586   6.448  50.254  1.00  0.00     0.097 C 
HETATM    8  C18 UNL     1      25.677   5.611  49.676  1.00  0.00    -0.001 C 
HETATM    9  C19 UNL     1      26.473   4.499  49.503  1.00  0.00    -0.054 C 
HETATM   10  C20 UNL     1      27.523   4.776  48.499  1.00  0.00     0.046 C 
ENDROOT
BRANCH   1  11
HETATM   11  O2  UNL     1      27.293   3.114  51.196  1.00  0.00    -0.377 OA
BRANCH  11  12
HETATM   12  C7  UNL     1      27.080   2.242  52.248  1.00  0.00     0.171 C 
BRANCH  12  13
HETATM   13  C6  UNL     1      26.898   0.820  51.733  1.00  0.00     0.069 C 
BRANCH  13  14
HETATM   14  C5  UNL     1      27.674  -0.119  52.622  1.00  0.00     0.277 C 
HETATM   15  C2  UNL     1      26.771  -1.234  53.002  1.00  0.00     0.070 C 
HETATM   16  C1  UNL     1      27.009  -2.443  52.572  1.00  0.00     0.048 C 
HETATM   17  O1  UNL     1      25.756  -0.762  53.809  1.00  0.00    -0.352 OA
HETATM   18  C3  UNL     1      26.146  -0.086  55.017  1.00  0.00     0.205 C 
HETATM   19  C4  UNL     1      27.672  -0.105  54.983  1.00  0.00     0.297 C 
HETATM   20  N1  UNL     1      28.155   0.587  53.812  1.00  0.00     0.096 N 
HETATM   21  H7  UNL     1      27.789   1.591  53.784  1.00  0.00     0.316 HD
ENDBRANCH  13  14
ENDBRANCH  12  13
ENDBRANCH  11  12
ENDBRANCH   1  11
BRANCH   3  22
HETATM   22  N2  UNL     1      22.852   2.893  50.455  1.00  0.00    -0.350 N 
HETATM   23  H15 UNL     1      23.223   3.248  49.515  1.00  0.00     0.163 HD
BRANCH  22  24
HETATM   24  C11 UNL     1      21.750   1.937  50.354  1.00  0.00     0.208 A 
HETATM   25  C12 UNL     1      22.142   0.754  51.154  1.00  0.00     0.046 A 
HETATM   26  C13 UNL     1      21.695   0.163  52.243  1.00  0.00     0.073 A 
HETATM   27 CL1  UNL     1      22.367  -1.268  53.005  1.00  0.00    -0.081 Cl
HETATM   28  C14 UNL     1      20.503   0.817  52.786  1.00  0.00     0.152 A 
HETATM   29  F1  UNL     1      19.946   0.316  53.894  1.00  0.00    -0.203 F 
HETATM   30  C15 UNL     1      20.042   1.869  52.138  1.00  0.00     0.129 A 
HETATM   31  N3  UNL     1      20.543   2.476  50.961  1.00  0.00    -0.372 N 
HETATM   32  H19 UNL     1      20.015   3.285  50.574  1.00  0.00     0.161 HD
ENDBRANCH  22  24
ENDBRANCH   3  22
TORSDOF 6
ENDMDL
MODEL 7
REMARK VINA RESULT:      -8.0      1.577      2.122
REMARK  6 active torsions:
REMARK  status: ('A' for Active; 'I' for Inactive)
REMARK    1  A    between atoms: C5_7  and  C6_8 
REMARK    2  A    between atoms: C6_8  and  C7_9 
REMARK    3  A    between atoms: C7_9  and  O2_10 
REMARK    4  A    between atoms: O2_10  and  C8_11 
REMARK    5  A    between atoms: C10_13  and  N2_14 
REMARK    6  A    between atoms: N2_14  and  C11_15 
ROOT
HETATM    1  C8  UNL     1      22.796   3.480  51.425  1.00  0.00     0.176 C 
HETATM    2  C9  UNL     1      24.215   3.087  51.143  1.00  0.00     0.059 C 
HETATM    3  C10 UNL     1      25.465   2.819  51.306  1.00  0.00     0.125 C 
HETATM    4  N4  UNL     1      26.459   2.601  50.285  1.00  0.00    -0.231 NA
HETATM    5  C16 UNL     1      26.688   3.738  49.570  1.00  0.00     0.328 C 
HETATM    6  N5  UNL     1      26.269   5.110  49.483  1.00  0.00    -0.291 NA
HETATM    7  C17 UNL     1      25.184   5.685  49.853  1.00  0.00     0.097 C 
HETATM    8  C18 UNL     1      23.831   5.587  50.472  1.00  0.00    -0.001 C 
HETATM    9  C19 UNL     1      22.752   4.989  51.086  1.00  0.00    -0.054 C 
HETATM   10  C20 UNL     1      21.660   5.971  51.269  1.00  0.00     0.046 C 
ENDROOT
BRANCH   1  11
HETATM   11  O2  UNL     1      21.886   2.874  50.599  1.00  0.00    -0.377 OA
BRANCH  11  12
HETATM   12  C7  UNL     1      22.192   1.558  50.306  1.00  0.00     0.171 C 
BRANCH  12  13
HETATM   13  C6  UNL     1      20.952   0.682  50.438  1.00  0.00     0.069 C 
BRANCH  13  14
HETATM   14  C5  UNL     1      20.115   1.198  51.581  1.00  0.00     0.277 C 
HETATM   15  C2  UNL     1      19.355   0.051  52.140  1.00  0.00     0.070 C 
HETATM   16  C1  UNL     1      19.616  -0.378  53.345  1.00  0.00     0.048 C 
HETATM   17  O1  UNL     1      18.433  -0.396  51.219  1.00  0.00    -0.352 OA
HETATM   18  C3  UNL     1      17.478   0.564  50.734  1.00  0.00     0.205 C 
HETATM   19  C4  UNL     1      17.852   1.860  51.448  1.00  0.00     0.297 C 
HETATM   20  N1  UNL     1      19.203   2.244  51.113  1.00  0.00     0.096 N 
HETATM   21  H7  UNL     1      19.318   2.349  50.054  1.00  0.00     0.316 HD
ENDBRANCH  13  14
ENDBRANCH  12  13
ENDBRANCH  11  12
ENDBRANCH   1  11
BRANCH   3  22
HETATM   22  N2  UNL     1      25.924   2.932  52.603  1.00  0.00    -0.350 N 
HETATM   23  H15 UNL     1      25.826   3.985  52.775  1.00  0.00     0.163 HD
BRANCH  22  24
HETATM   24  C11 UNL     1      26.438   2.173  53.742  1.00  0.00     0.208 A 
HETATM   25  C12 UNL     1      26.409   0.746  53.347  1.00  0.00     0.046 A 
HETATM   26  C13 UNL     1      27.308  -0.194  53.146  1.00  0.00     0.073 A 
HETATM   27 CL1  UNL     1      26.996  -1.853  52.666  1.00  0.00    -0.081 Cl
HETATM   28  C14 UNL     1      28.674   0.273  53.398  1.00  0.00     0.152 A 
HETATM   29  F1  UNL     1      29.685  -0.585  53.229  1.00  0.00    -0.203 F 
HETATM   30  C15 UNL     1      28.822   1.526  53.785  1.00  0.00     0.129 A 
HETATM   31  N3  UNL     1      27.829   2.512  54.000  1.00  0.00    -0.372 N 
HETATM   32  H19 UNL     1      28.142   3.442  54.346  1.00  0.00     0.161 HD
ENDBRANCH  22  24
ENDBRANCH   3  22
TORSDOF 6
ENDMDL
MODEL 8
REMARK VINA RESULT:      -7.9      3.536      6.340
REMARK  6 active torsions:
REMARK  status: ('A' for Active; 'I' for Inactive)
REMARK    1  A    between atoms: C5_7  and  C6_8 
REMARK    2  A    between atoms: C6_8  and  C7_9 
REMARK    3  A    between atoms: C7_9  and  O2_10 
REMARK    4  A    between atoms: O2_10  and  C8_11 
REMARK    5  A    between atoms: C10_13  and  N2_14 
REMARK    6  A    between atoms: N2_14  and  C11_15 
ROOT
HETATM    1  C8  UNL     1      24.644   2.894  50.828  1.00  0.00     0.176 C 
HETATM    2  C9  UNL     1      23.244   3.428  50.834  1.00  0.00     0.059 C 
HETATM    3  C10 UNL     1      21.992   3.581  50.569  1.00  0.00     0.125 C 
HETATM    4  N4  UNL     1      21.140   4.683  50.942  1.00  0.00    -0.231 NA
HETATM    5  C16 UNL     1      21.520   5.832  50.317  1.00  0.00     0.328 C 
HETATM    6  N5  UNL     1      22.499   6.332  49.392  1.00  0.00    -0.291 NA
HETATM    7  C17 UNL     1      23.669   5.904  49.089  1.00  0.00     0.097 C 
HETATM    8  C18 UNL     1      24.756   4.901  49.287  1.00  0.00    -0.001 C 
HETATM    9  C19 UNL     1      25.381   3.786  49.801  1.00  0.00    -0.054 C 
HETATM   10  C20 UNL     1      26.756   3.681  49.267  1.00  0.00     0.046 C 
ENDROOT
BRANCH   1  11
HETATM   11  O2  UNL     1      25.298   3.059  52.020  1.00  0.00    -0.377 OA
BRANCH  11  12
HETATM   12  C7  UNL     1      24.656   2.470  53.093  1.00  0.00     0.171 C 
BRANCH  12  13
HETATM   13  C6  UNL     1      25.644   1.662  53.926  1.00  0.00     0.069 C 
BRANCH  13  14
HETATM   14  C5  UNL     1      26.746   1.168  53.024  1.00  0.00     0.277 C 
HETATM   15  C2  UNL     1      26.975  -0.266  53.330  1.00  0.00     0.070 C 
HETATM   16  C1  UNL     1      26.689  -1.177  52.439  1.00  0.00     0.048 C 
HETATM   17  O1  UNL     1      27.492  -0.399  54.601  1.00  0.00    -0.352 OA
HETATM   18  C3  UNL     1      28.712   0.307  54.885  1.00  0.00     0.205 C 
HETATM   19  C4  UNL     1      29.037   1.036  53.584  1.00  0.00     0.297 C 
HETATM   20  N1  UNL     1      27.969   1.945  53.241  1.00  0.00     0.096 N 
HETATM   21  H7  UNL     1      27.794   2.644  54.032  1.00  0.00     0.316 HD
ENDBRANCH  13  14
ENDBRANCH  12  13
ENDBRANCH  11  12
ENDBRANCH   1  11
BRANCH   3  22
HETATM   22  N2  UNL     1      21.466   2.666  49.680  1.00  0.00    -0.350 N 
HETATM   23  H15 UNL     1      21.438   3.238  48.774  1.00  0.00     0.163 HD
BRANCH  22  24
HETATM   24  C11 UNL     1      20.990   1.290  49.546  1.00  0.00     0.208 A 
HETATM   25  C12 UNL     1      21.244   0.627  50.846  1.00  0.00     0.046 A 
HETATM   26  C13 UNL     1      20.499   0.104  51.798  1.00  0.00     0.073 A 
HETATM   27 CL1  UNL     1      21.071  -0.638  53.283  1.00  0.00    -0.081 Cl
HETATM   28  C14 UNL     1      19.069   0.168  51.490  1.00  0.00     0.152 A 
HETATM   29  F1  UNL     1      18.199  -0.329  52.376  1.00  0.00    -0.203 F 
HETATM   30  C15 UNL     1      18.722   0.714  50.340  1.00  0.00     0.129 A 
HETATM   31  N3  UNL     1      19.552   1.261  49.331  1.00  0.00    -0.372 N 
HETATM   32  H19 UNL     1      19.090   1.615  48.468  1.00  0.00     0.161 HD
ENDBRANCH  22  24
ENDBRANCH   3  22
TORSDOF 6
ENDMDL
MODEL 9
REMARK VINA RESULT:      -7.8      3.973      6.798
REMARK  6 active torsions:
REMARK  status: ('A' for Active; 'I' for Inactive)
REMARK    1  A    between atoms: C5_7  and  C6_8 
REMARK    2  A    between atoms: C6_8  and  C7_9 
REMARK    3  A    between atoms: C7_9  and  O2_10 
REMARK    4  A    between atoms: O2_10  and  C8_11 
REMARK    5  A    between atoms: C10_13  and  N2_14 
REMARK    6  A    between atoms: N2_14  and  C11_15 
ROOT
HETATM    1  C8  UNL     1      24.245   2.672  51.118  1.00  0.00     0.176 C 
HETATM    2  C9  UNL     1      23.061   1.826  51.473  1.00  0.00     0.059 C 
HETATM    3  C10 UNL     1      22.030   1.058  51.369  1.00  0.00     0.125 C 
HETATM    4  N4  UNL     1      21.091   0.699  52.403  1.00  0.00    -0.231 NA
HETATM    5  C16 UNL     1      20.374   1.782  52.816  1.00  0.00     0.328 C 
HETATM    6  N5  UNL     1      20.230   3.190  52.566  1.00  0.00    -0.291 NA
HETATM    7  C17 UNL     1      21.048   4.048  52.077  1.00  0.00     0.097 C 
HETATM    8  C18 UNL     1      22.394   4.356  51.514  1.00  0.00    -0.001 C 
HETATM    9  C19 UNL     1      23.678   4.111  51.076  1.00  0.00    -0.054 C 
HETATM   10  C20 UNL     1      24.327   5.376  50.668  1.00  0.00     0.046 C 
ENDROOT
BRANCH   1  11
HETATM   11  O2  UNL     1      25.225   2.673  52.075  1.00  0.00    -0.377 OA
BRANCH  11  12
HETATM   12  C7  UNL     1      26.489   2.424  51.576  1.00  0.00     0.171 C 
BRANCH  12  13
HETATM   13  C6  UNL     1      26.844   0.951  51.737  1.00  0.00     0.069 C 
BRANCH  13  14
HETATM   14  C5  UNL     1      27.527   0.761  53.068  1.00  0.00     0.277 C 
HETATM   15  C2  UNL     1      27.684  -0.698  53.294  1.00  0.00     0.070 C 
HETATM   16  C1  UNL     1      28.875  -1.231  53.311  1.00  0.00     0.048 C 
HETATM   17  O1  UNL     1      26.446  -1.283  53.460  1.00  0.00    -0.352 OA
HETATM   18  C3  UNL     1      25.618  -0.766  54.516  1.00  0.00     0.205 C 
HETATM   19  C4  UNL     1      26.449   0.357  55.130  1.00  0.00     0.297 C 
HETATM   20  N1  UNL     1      26.734   1.368  54.139  1.00  0.00     0.096 N 
HETATM   21  H7  UNL     1      25.829   1.754  53.717  1.00  0.00     0.316 HD
ENDBRANCH  13  14
ENDBRANCH  12  13
ENDBRANCH  11  12
ENDBRANCH   1  11
BRANCH   3  22
HETATM   22  N2  UNL     1      21.702   0.691  50.081  1.00  0.00    -0.350 N 
HETATM   23  H15 UNL     1      21.853  -0.369  50.113  1.00  0.00     0.163 HD
BRANCH  22  24
HETATM   24  C11 UNL     1      21.236   1.201  48.791  1.00  0.00     0.208 A 
HETATM   25  C12 UNL     1      20.156   2.171  49.086  1.00  0.00     0.046 A 
HETATM   26  C13 UNL     1      19.984   3.466  48.926  1.00  0.00     0.073 A 
HETATM   27 CL1  UNL     1      18.566   4.396  49.378  1.00  0.00    -0.081 Cl
HETATM   28  C14 UNL     1      21.129   4.108  48.274  1.00  0.00     0.152 A 
HETATM   29  F1  UNL     1      21.084   5.425  48.052  1.00  0.00    -0.203 F 
HETATM   30  C15 UNL     1      22.144   3.335  47.938  1.00  0.00     0.129 A 
HETATM   31  N3  UNL     1      22.293   1.938  48.117  1.00  0.00    -0.372 N 
HETATM   32  H19 UNL     1      23.160   1.496  47.747  1.00  0.00     0.161 HD
ENDBRANCH  22  24
ENDBRANCH   3  22
TORSDOF 6
ENDMDL
