MODEL 1
REMARK VINA RESULT:      -8.4      0.000      0.000
REMARK  1 active torsions:
REMARK  status: ('A' for Active; 'I' for Inactive)
REMARK    1  A    between atoms: C5_6  and  N2_7 
ROOT
HETATM    1  C1  UNL     1      26.792   1.823  51.469  1.00  0.00     0.019 C 
HETATM    2  C2  UNL     1      25.445   2.513  51.428  1.00  0.00     0.043 C 
HETATM    3  C3  UNL     1      25.258   2.709  49.960  1.00  0.00     0.033 C 
HETATM    4  C4  UNL     1      24.629   3.815  50.322  1.00  0.00     0.126 C 
HETATM    5  N1  UNL     1      24.168   4.743  51.470  1.00  0.00    -0.216 NA
HETATM    6  C5  UNL     1      22.814   4.474  51.746  1.00  0.00     0.129 C 
HETATM    7  C6  UNL     1      21.511   3.825  51.305  1.00  0.00     0.102 C 
HETATM    8  C7  UNL     1      20.996   5.155  51.207  1.00  0.00     0.069 C 
HETATM    9  C8  UNL     1      21.750   5.372  49.843  1.00  0.00     0.002 C 
HETATM   10  C9  UNL     1      22.496   4.252  49.296  1.00  0.00     0.023 C 
HETATM   11  N3  UNL     1      23.907   3.719  48.995  1.00  0.00    -0.344 N 
HETATM   12  C10 UNL     1      21.850   2.818  48.884  1.00  0.00     0.060 A 
HETATM   13  C11 UNL     1      21.087   2.090  49.765  1.00  0.00     0.014 C 
HETATM   14 CL1  UNL     1      20.502   0.696  50.388  1.00  0.00    -0.092 Cl
HETATM   15  C12 UNL     1      20.586   3.265  50.421  1.00  0.00     0.070 C 
HETATM   16  C13 UNL     1      20.184   3.835  48.969  1.00  0.00     0.029 C 
HETATM   17  C14 UNL     1      20.698   3.332  47.680  1.00  0.00     0.061 A 
HETATM   18 CL2  UNL     1      19.813   3.232  46.275  1.00  0.00    -0.117 Cl
HETATM   19  C15 UNL     1      22.294   2.817  47.636  1.00  0.00     0.051 A 
HETATM   20  N4  UNL     1      21.873   2.833  52.202  1.00  0.00    -0.372 N 
HETATM   21  C16 UNL     1      22.982   1.948  52.419  1.00  0.00     0.036 A 
HETATM   22  C17 UNL     1      22.358   0.949  53.190  1.00  0.00     0.030 A 
HETATM   23  C18 UNL     1      22.899  -0.201  53.747  1.00  0.00     0.002 A 
HETATM   24  C19 UNL     1      24.241  -0.309  53.461  1.00  0.00     0.001 A 
HETATM   25  C20 UNL     1      24.874   0.660  52.708  1.00  0.00     0.010 A 
HETATM   26  C21 UNL     1      24.343   1.819  52.141  1.00  0.00    -0.024 A 
HETATM   27  H11 UNL     1      23.847   3.435  48.029  1.00  0.00     0.167 HD
HETATM   28  H16 UNL     1      21.030   3.000  52.721  1.00  0.00     0.161 HD
ENDROOT
BRANCH   6  29
HETATM   29  N2  UNL     1      22.660   5.107  53.025  1.00  0.00    -0.385 N 
HETATM   30  H6  UNL     1      22.085   4.840  53.872  1.00  0.00     0.157 HD
HETATM   31  H7  UNL     1      23.009   5.938  53.508  1.00  0.00     0.157 HD
ENDBRANCH   6  29
TORSDOF 1
ENDMDL
MODEL 2
REMARK VINA RESULT:      -8.4      1.774      2.462
REMARK  1 active torsions:
REMARK  status: ('A' for Active; 'I' for Inactive)
REMARK    1  A    between atoms: C5_6  and  N2_7 
ROOT
HETATM    1  C1  UNL     1      26.795   3.478  49.176  1.00  0.00     0.019 C 
HETATM    2  C2  UNL     1      25.528   3.594  49.997  1.00  0.00     0.043 C 
HETATM    3  C3  UNL     1      24.499   3.125  49.022  1.00  0.00     0.033 C 
HETATM    4  C4  UNL     1      23.714   3.998  49.631  1.00  0.00     0.126 C 
HETATM    5  N1  UNL     1      23.562   5.083  50.724  1.00  0.00    -0.216 NA
HETATM    6  C5  UNL     1      22.957   4.500  51.852  1.00  0.00     0.129 C 
HETATM    7  C6  UNL     1      22.188   3.329  52.444  1.00  0.00     0.102 C 
HETATM    8  C7  UNL     1      21.111   4.253  52.621  1.00  0.00     0.069 C 
HETATM    9  C8  UNL     1      20.751   4.163  51.091  1.00  0.00     0.002 C 
HETATM   10  C9  UNL     1      21.518   3.245  50.268  1.00  0.00     0.023 C 
HETATM   11  N3  UNL     1      22.560   3.152  49.140  1.00  0.00    -0.344 N 
HETATM   12  C10 UNL     1      21.601   1.638  50.498  1.00  0.00     0.060 A 
HETATM   13  C11 UNL     1      21.953   1.099  51.712  1.00  0.00     0.014 C 
HETATM   14 CL1  UNL     1      22.623  -0.050  52.663  1.00  0.00    -0.092 Cl
HETATM   15  C12 UNL     1      21.379   2.190  52.447  1.00  0.00     0.070 C 
HETATM   16  C13 UNL     1      20.025   1.974  51.602  1.00  0.00     0.029 C 
HETATM   17  C14 UNL     1      19.917   1.215  50.340  1.00  0.00     0.061 A 
HETATM   18 CL2  UNL     1      18.613   0.281  49.899  1.00  0.00    -0.117 Cl
HETATM   19  C15 UNL     1      21.212   1.302  49.277  1.00  0.00     0.051 A 
HETATM   20  N4  UNL     1      23.426   2.953  52.936  1.00  0.00    -0.372 N 
HETATM   21  C16 UNL     1      24.733   2.658  52.418  1.00  0.00     0.036 A 
HETATM   22  C17 UNL     1      25.255   1.892  53.478  1.00  0.00     0.030 A 
HETATM   23  C18 UNL     1      26.508   1.310  53.610  1.00  0.00     0.002 A 
HETATM   24  C19 UNL     1      27.292   1.563  52.509  1.00  0.00     0.001 A 
HETATM   25  C20 UNL     1      26.801   2.314  51.458  1.00  0.00     0.010 A 
HETATM   26  C21 UNL     1      25.546   2.904  51.312  1.00  0.00    -0.024 A 
HETATM   27  H11 UNL     1      22.137   2.512  48.484  1.00  0.00     0.167 HD
HETATM   28  H16 UNL     1      23.068   3.012  53.872  1.00  0.00     0.161 HD
ENDROOT
BRANCH   6  29
HETATM   29  N2  UNL     1      23.231   5.488  52.856  1.00  0.00    -0.385 N 
HETATM   30  H6  UNL     1      24.016   5.568  53.561  1.00  0.00     0.157 HD
HETATM   31  H7  UNL     1      22.815   6.356  53.201  1.00  0.00     0.157 HD
ENDBRANCH   6  29
TORSDOF 1
ENDMDL
MODEL 3
REMARK VINA RESULT:      -8.3      1.976      4.248
REMARK  1 active torsions:
REMARK  status: ('A' for Active; 'I' for Inactive)
REMARK    1  A    between atoms: C5_6  and  N2_7 
ROOT
HETATM    1  C1  UNL     1      24.189   8.034  50.840  1.00  0.00     0.019 C 
HETATM    2  C2  UNL     1      23.960   6.580  51.197  1.00  0.00     0.043 C 
HETATM    3  C3  UNL     1      22.493   6.443  50.955  1.00  0.00     0.033 C 
HETATM    4  C4  UNL     1      22.541   5.585  51.961  1.00  0.00     0.126 C 
HETATM    5  N1  UNL     1      23.395   4.882  53.041  1.00  0.00    -0.216 NA
HETATM    6  C5  UNL     1      23.731   3.595  52.579  1.00  0.00     0.129 C 
HETATM    7  C6  UNL     1      23.480   2.477  51.579  1.00  0.00     0.102 C 
HETATM    8  C7  UNL     1      23.025   1.712  52.698  1.00  0.00     0.069 C 
HETATM    9  C8  UNL     1      21.654   2.486  52.699  1.00  0.00     0.002 C 
HETATM   10  C9  UNL     1      21.432   3.471  51.656  1.00  0.00     0.023 C 
HETATM   11  N3  UNL     1      21.289   4.976  51.369  1.00  0.00    -0.344 N 
HETATM   12  C10 UNL     1      21.422   3.151  50.062  1.00  0.00     0.060 A 
HETATM   13  C11 UNL     1      22.466   2.499  49.451  1.00  0.00     0.014 C 
HETATM   14 CL1  UNL     1      23.441   2.171  48.180  1.00  0.00    -0.092 Cl
HETATM   15  C12 UNL     1      22.778   1.736  50.626  1.00  0.00     0.070 C 
HETATM   16  C13 UNL     1      21.225   1.313  50.695  1.00  0.00     0.029 C 
HETATM   17  C14 UNL     1      20.122   1.991  49.987  1.00  0.00     0.061 A 
HETATM   18 CL2  UNL     1      18.794   1.227  49.338  1.00  0.00    -0.117 Cl
HETATM   19  C15 UNL     1      20.222   3.659  49.825  1.00  0.00     0.051 A 
HETATM   20  N4  UNL     1      24.612   2.977  50.958  1.00  0.00    -0.372 N 
HETATM   21  C16 UNL     1      25.063   4.227  50.413  1.00  0.00     0.036 A 
HETATM   22  C17 UNL     1      26.074   3.771  49.546  1.00  0.00     0.030 A 
HETATM   23  C18 UNL     1      26.923   4.499  48.723  1.00  0.00     0.002 A 
HETATM   24  C19 UNL     1      26.678   5.849  48.826  1.00  0.00     0.001 A 
HETATM   25  C20 UNL     1      25.692   6.318  49.671  1.00  0.00     0.010 A 
HETATM   26  C21 UNL     1      24.832   5.600  50.503  1.00  0.00    -0.024 A 
HETATM   27  H11 UNL     1      20.435   5.031  50.833  1.00  0.00     0.167 HD
HETATM   28  H16 UNL     1      25.065   2.090  51.077  1.00  0.00     0.161 HD
ENDROOT
BRANCH   6  29
HETATM   29  N2  UNL     1      24.790   3.244  53.481  1.00  0.00    -0.385 N 
HETATM   30  H6  UNL     1      25.694   2.715  53.325  1.00  0.00     0.157 HD
HETATM   31  H7  UNL     1      25.017   3.365  54.470  1.00  0.00     0.157 HD
ENDBRANCH   6  29
TORSDOF 1
ENDMDL
MODEL 4
REMARK VINA RESULT:      -8.1      8.405     10.061
REMARK  1 active torsions:
REMARK  status: ('A' for Active; 'I' for Inactive)
REMARK    1  A    between atoms: C5_6  and  N2_7 
ROOT
HETATM    1  C1  UNL     1      31.316   4.941  47.627  1.00  0.00     0.019 C 
HETATM    2  C2  UNL     1      30.928   6.391  47.824  1.00  0.00     0.043 C 
HETATM    3  C3  UNL     1      31.399   7.000  46.544  1.00  0.00     0.033 C 
HETATM    4  C4  UNL     1      31.642   8.063  47.293  1.00  0.00     0.126 C 
HETATM    5  N1  UNL     1      31.626   8.705  48.700  1.00  0.00    -0.216 NA
HETATM    6  C5  UNL     1      30.473   9.503  48.815  1.00  0.00     0.129 C 
HETATM    7  C6  UNL     1      29.312  10.200  48.124  1.00  0.00     0.102 C 
HETATM    8  C7  UNL     1      29.927  11.422  48.539  1.00  0.00     0.069 C 
HETATM    9  C8  UNL     1      30.993  11.305  47.387  1.00  0.00     0.002 C 
HETATM   10  C9  UNL     1      30.874  10.189  46.465  1.00  0.00     0.023 C 
HETATM   11  N3  UNL     1      31.518   8.866  46.016  1.00  0.00    -0.344 N 
HETATM   12  C10 UNL     1      29.589   9.905  45.511  1.00  0.00     0.060 A 
HETATM   13  C11 UNL     1      28.314   9.833  46.019  1.00  0.00     0.014 C 
HETATM   14 CL1  UNL     1      26.774   9.282  46.033  1.00  0.00    -0.092 Cl
HETATM   15  C12 UNL     1      28.597  10.771  47.067  1.00  0.00     0.070 C 
HETATM   16  C13 UNL     1      29.181  11.766  45.944  1.00  0.00     0.029 C 
HETATM   17  C14 UNL     1      29.568  11.376  44.574  1.00  0.00     0.061 A 
HETATM   18 CL2  UNL     1      29.360  12.319  43.219  1.00  0.00    -0.117 Cl
HETATM   19  C15 UNL     1      30.266   9.863  44.373  1.00  0.00     0.051 A 
HETATM   20  N4  UNL     1      28.582   9.112  48.571  1.00  0.00    -0.372 N 
HETATM   21  C16 UNL     1      28.624   7.681  48.453  1.00  0.00     0.036 A 
HETATM   22  C17 UNL     1      27.287   7.366  48.758  1.00  0.00     0.030 A 
HETATM   23  C18 UNL     1      26.670   6.124  48.836  1.00  0.00     0.002 A 
HETATM   24  C19 UNL     1      27.559   5.110  48.564  1.00  0.00     0.001 A 
HETATM   25  C20 UNL     1      28.876   5.396  48.264  1.00  0.00     0.010 A 
HETATM   26  C21 UNL     1      29.509   6.637  48.182  1.00  0.00    -0.024 A 
HETATM   27  H11 UNL     1      31.583   8.967  45.014  1.00  0.00     0.167 HD
HETATM   28  H16 UNL     1      27.987   9.729  49.093  1.00  0.00     0.161 HD
ENDROOT
BRANCH   6  29
HETATM   29  N2  UNL     1      30.413   9.701  50.235  1.00  0.00    -0.385 N 
HETATM   30  H6  UNL     1      31.083   9.427  51.007  1.00  0.00     0.157 HD
HETATM   31  H7  UNL     1      29.780  10.125  50.917  1.00  0.00     0.157 HD
ENDBRANCH   6  29
TORSDOF 1
ENDMDL
MODEL 5
REMARK VINA RESULT:      -8.0      9.860     12.670
REMARK  1 active torsions:
REMARK  status: ('A' for Active; 'I' for Inactive)
REMARK    1  A    between atoms: C5_6  and  N2_7 
ROOT
HETATM    1  C1  UNL     1      29.966   9.651  46.845  1.00  0.00     0.019 C 
HETATM    2  C2  UNL     1      31.166   8.769  47.119  1.00  0.00     0.043 C 
HETATM    3  C3  UNL     1      30.508   7.475  47.471  1.00  0.00     0.033 C 
HETATM    4  C4  UNL     1      31.541   7.323  48.283  1.00  0.00     0.126 C 
HETATM    5  N1  UNL     1      32.852   7.908  48.857  1.00  0.00    -0.216 NA
HETATM    6  C5  UNL     1      33.938   7.328  48.175  1.00  0.00     0.129 C 
HETATM    7  C6  UNL     1      34.444   6.230  47.253  1.00  0.00     0.102 C 
HETATM    8  C7  UNL     1      35.194   5.767  48.379  1.00  0.00     0.069 C 
HETATM    9  C8  UNL     1      33.902   5.122  49.004  1.00  0.00     0.002 C 
HETATM   10  C9  UNL     1      32.670   5.197  48.240  1.00  0.00     0.023 C 
HETATM   11  N3  UNL     1      31.272   5.837  48.184  1.00  0.00    -0.344 N 
HETATM   12  C10 UNL     1      32.454   4.561  46.759  1.00  0.00     0.060 A 
HETATM   13  C11 UNL     1      33.307   4.845  45.720  1.00  0.00     0.014 C 
HETATM   14 CL1  UNL     1      33.665   5.067  44.140  1.00  0.00    -0.092 Cl
HETATM   15  C12 UNL     1      34.438   5.000  46.591  1.00  0.00     0.070 C 
HETATM   16  C13 UNL     1      34.069   3.569  47.232  1.00  0.00     0.029 C 
HETATM   17  C14 UNL     1      32.771   2.880  47.095  1.00  0.00     0.061 A 
HETATM   18 CL2  UNL     1      32.577   1.233  46.958  1.00  0.00    -0.117 Cl
HETATM   19  C15 UNL     1      31.392   3.834  47.072  1.00  0.00     0.051 A 
HETATM   20  N4  UNL     1      34.385   7.217  46.284  1.00  0.00    -0.372 N 
HETATM   21  C16 UNL     1      33.403   8.108  45.731  1.00  0.00     0.036 A 
HETATM   22  C17 UNL     1      34.003   8.402  44.492  1.00  0.00     0.030 A 
HETATM   23  C18 UNL     1      33.560   9.236  43.475  1.00  0.00     0.002 A 
HETATM   24  C19 UNL     1      32.358   9.822  43.800  1.00  0.00     0.001 A 
HETATM   25  C20 UNL     1      31.752   9.548  45.011  1.00  0.00     0.010 A 
HETATM   26  C21 UNL     1      32.185   8.712  46.040  1.00  0.00    -0.024 A 
HETATM   27  H11 UNL     1      30.660   5.047  48.042  1.00  0.00     0.167 HD
HETATM   28  H16 UNL     1      35.370   7.115  46.123  1.00  0.00     0.161 HD
ENDROOT
BRANCH   6  29
HETATM   29  N2  UNL     1      35.003   8.219  48.539  1.00  0.00    -0.385 N 
HETATM   30  H6  UNL     1      36.008   8.031  48.811  1.00  0.00     0.157 HD
HETATM   31  H7  UNL     1      35.147   9.225  48.650  1.00  0.00     0.157 HD
ENDBRANCH   6  29
TORSDOF 1
ENDMDL
MODEL 6
REMARK VINA RESULT:      -8.0      1.605      5.206
REMARK  1 active torsions:
REMARK  status: ('A' for Active; 'I' for Inactive)
REMARK    1  A    between atoms: C5_6  and  N2_7 
ROOT
HETATM    1  C1  UNL     1      21.419   7.546  49.124  1.00  0.00     0.019 C 
HETATM    2  C2  UNL     1      22.130   6.283  49.562  1.00  0.00     0.043 C 
HETATM    3  C3  UNL     1      21.412   5.964  50.832  1.00  0.00     0.033 C 
HETATM    4  C4  UNL     1      22.586   5.498  51.224  1.00  0.00     0.126 C 
HETATM    5  N1  UNL     1      24.078   5.261  50.892  1.00  0.00    -0.216 NA
HETATM    6  C5  UNL     1      24.240   3.923  50.486  1.00  0.00     0.129 C 
HETATM    7  C6  UNL     1      23.659   2.520  50.407  1.00  0.00     0.102 C 
HETATM    8  C7  UNL     1      24.709   2.141  51.301  1.00  0.00     0.069 C 
HETATM    9  C8  UNL     1      23.930   2.767  52.517  1.00  0.00     0.002 C 
HETATM   10  C9  UNL     1      22.615   3.327  52.264  1.00  0.00     0.023 C 
HETATM   11  N3  UNL     1      21.807   4.635  52.192  1.00  0.00    -0.344 N 
HETATM   12  C10 UNL     1      21.345   2.493  51.685  1.00  0.00     0.060 A 
HETATM   13  C11 UNL     1      21.432   1.754  50.530  1.00  0.00     0.014 C 
HETATM   14 CL1  UNL     1      20.817   1.093  49.167  1.00  0.00    -0.092 Cl
HETATM   15  C12 UNL     1      22.820   1.453  50.738  1.00  0.00     0.070 C 
HETATM   16  C13 UNL     1      22.435   0.963  52.222  1.00  0.00     0.029 C 
HETATM   17  C14 UNL     1      21.179   1.281  52.929  1.00  0.00     0.061 A 
HETATM   18 CL2  UNL     1      20.373   0.248  53.954  1.00  0.00    -0.117 Cl
HETATM   19  C15 UNL     1      20.515   2.801  52.671  1.00  0.00     0.051 A 
HETATM   20  N4  UNL     1      23.384   2.866  49.095  1.00  0.00    -0.372 N 
HETATM   21  C16 UNL     1      22.664   3.892  48.393  1.00  0.00     0.036 A 
HETATM   22  C17 UNL     1      22.452   3.249  47.159  1.00  0.00     0.030 A 
HETATM   23  C18 UNL     1      21.820   3.721  46.017  1.00  0.00     0.002 A 
HETATM   24  C19 UNL     1      21.362   5.006  46.197  1.00  0.00     0.001 A 
HETATM   25  C20 UNL     1      21.559   5.656  47.399  1.00  0.00     0.010 A 
HETATM   26  C21 UNL     1      22.192   5.194  48.554  1.00  0.00    -0.024 A 
HETATM   27  H11 UNL     1      21.004   4.443  52.772  1.00  0.00     0.167 HD
HETATM   28  H16 UNL     1      23.957   2.106  48.777  1.00  0.00     0.161 HD
ENDROOT
BRANCH   6  29
HETATM   29  N2  UNL     1      25.537   3.973  49.874  1.00  0.00    -0.385 N 
HETATM   30  H6  UNL     1      26.508   3.980  50.296  1.00  0.00     0.157 HD
HETATM   31  H7  UNL     1      25.931   4.016  48.932  1.00  0.00     0.157 HD
ENDBRANCH   6  29
TORSDOF 1
ENDMDL
MODEL 7
REMARK VINA RESULT:      -8.0      7.854      9.538
REMARK  1 active torsions:
REMARK  status: ('A' for Active; 'I' for Inactive)
REMARK    1  A    between atoms: C5_6  and  N2_7 
ROOT
HETATM    1  C1  UNL     1      33.149   8.959  45.500  1.00  0.00     0.019 C 
HETATM    2  C2  UNL     1      32.018   9.069  46.501  1.00  0.00     0.043 C 
HETATM    3  C3  UNL     1      30.845   9.277  45.601  1.00  0.00     0.033 C 
HETATM    4  C4  UNL     1      30.384  10.022  46.592  1.00  0.00     0.126 C 
HETATM    5  N1  UNL     1      30.615  10.615  48.001  1.00  0.00    -0.216 NA
HETATM    6  C5  UNL     1      29.929   9.821  48.939  1.00  0.00     0.129 C 
HETATM    7  C6  UNL     1      28.886   8.746  49.203  1.00  0.00     0.102 C 
HETATM    8  C7  UNL     1      28.137   9.773  49.858  1.00  0.00     0.069 C 
HETATM    9  C8  UNL     1      27.682  10.360  48.470  1.00  0.00     0.002 C 
HETATM   10  C9  UNL     1      28.102   9.661  47.269  1.00  0.00     0.023 C 
HETATM   11  N3  UNL     1      29.008   9.743  46.028  1.00  0.00    -0.344 N 
HETATM   12  C10 UNL     1      27.726   8.120  46.911  1.00  0.00     0.060 A 
HETATM   13  C11 UNL     1      27.972   7.094  47.790  1.00  0.00     0.014 C 
HETATM   14 CL1  UNL     1      28.329   5.542  48.165  1.00  0.00    -0.092 Cl
HETATM   15  C12 UNL     1      27.782   7.932  48.940  1.00  0.00     0.070 C 
HETATM   16  C13 UNL     1      26.380   8.397  48.299  1.00  0.00     0.029 C 
HETATM   17  C14 UNL     1      25.985   8.224  46.887  1.00  0.00     0.061 A 
HETATM   18 CL2  UNL     1      24.443   7.884  46.363  1.00  0.00    -0.117 Cl
HETATM   19  C15 UNL     1      27.189   8.378  45.728  1.00  0.00     0.051 A 
HETATM   20  N4  UNL     1      29.986   7.916  49.331  1.00  0.00    -0.372 N 
HETATM   21  C16 UNL     1      31.120   7.521  48.542  1.00  0.00     0.036 A 
HETATM   22  C17 UNL     1      31.453   6.308  49.172  1.00  0.00     0.030 A 
HETATM   23  C18 UNL     1      32.488   5.425  48.893  1.00  0.00     0.002 A 
HETATM   24  C19 UNL     1      33.250   5.870  47.838  1.00  0.00     0.001 A 
HETATM   25  C20 UNL     1      32.942   7.058  47.205  1.00  0.00     0.010 A 
HETATM   26  C21 UNL     1      31.907   7.954  47.474  1.00  0.00    -0.024 A 
HETATM   27  H11 UNL     1      28.381   9.525  45.267  1.00  0.00     0.167 HD
HETATM   28  H16 UNL     1      29.714   7.705  50.273  1.00  0.00     0.161 HD
ENDROOT
BRANCH   6  29
HETATM   29  N2  UNL     1      30.535  10.255  50.166  1.00  0.00    -0.385 N 
HETATM   30  H6  UNL     1      31.024   9.713  50.932  1.00  0.00     0.157 HD
HETATM   31  H7  UNL     1      30.687  11.131  50.669  1.00  0.00     0.157 HD
ENDBRANCH   6  29
TORSDOF 1
ENDMDL
MODEL 8
REMARK VINA RESULT:      -7.9      2.633      4.586
REMARK  1 active torsions:
REMARK  status: ('A' for Active; 'I' for Inactive)
REMARK    1  A    between atoms: C5_6  and  N2_7 
ROOT
HETATM    1  C1  UNL     1      17.720   1.517  51.765  1.00  0.00     0.019 C 
HETATM    2  C2  UNL     1      19.045   1.795  51.087  1.00  0.00     0.043 C 
HETATM    3  C3  UNL     1      19.093   3.287  51.134  1.00  0.00     0.033 C 
HETATM    4  C4  UNL     1      19.733   3.171  49.982  1.00  0.00     0.126 C 
HETATM    5  N1  UNL     1      20.281   2.237  48.877  1.00  0.00    -0.216 NA
HETATM    6  C5  UNL     1      21.659   2.048  49.093  1.00  0.00     0.129 C 
HETATM    7  C6  UNL     1      22.927   2.497  49.802  1.00  0.00     0.102 C 
HETATM    8  C7  UNL     1      23.407   2.858  48.505  1.00  0.00     0.069 C 
HETATM    9  C8  UNL     1      22.528   4.163  48.517  1.00  0.00     0.002 C 
HETATM   10  C9  UNL     1      21.755   4.448  49.713  1.00  0.00     0.023 C 
HETATM   11  N3  UNL     1      20.332   4.525  50.293  1.00  0.00    -0.344 N 
HETATM   12  C10 UNL     1      22.387   4.679  51.194  1.00  0.00     0.060 A 
HETATM   13  C11 UNL     1      23.240   3.766  51.765  1.00  0.00     0.014 C 
HETATM   14 CL1  UNL     1      23.904   2.982  53.037  1.00  0.00    -0.092 Cl
HETATM   15  C12 UNL     1      23.777   3.361  50.497  1.00  0.00     0.070 C 
HETATM   16  C13 UNL     1      24.035   4.917  50.172  1.00  0.00     0.029 C 
HETATM   17  C14 UNL     1      23.414   6.053  50.881  1.00  0.00     0.061 A 
HETATM   18 CL2  UNL     1      24.168   7.500  51.207  1.00  0.00    -0.117 Cl
HETATM   19  C15 UNL     1      21.830   5.863  51.401  1.00  0.00     0.051 A 
HETATM   20  N4  UNL     1      22.667   1.421  50.634  1.00  0.00    -0.372 N 
HETATM   21  C16 UNL     1      21.599   0.959  51.475  1.00  0.00     0.036 A 
HETATM   22  C17 UNL     1      22.309   0.098  52.332  1.00  0.00     0.030 A 
HETATM   23  C18 UNL     1      21.841  -0.688  53.377  1.00  0.00     0.002 A 
HETATM   24  C19 UNL     1      20.481  -0.549  53.534  1.00  0.00     0.001 A 
HETATM   25  C20 UNL     1      19.764   0.290  52.703  1.00  0.00     0.010 A 
HETATM   26  C21 UNL     1      20.220   1.084  51.651  1.00  0.00    -0.024 A 
HETATM   27  H11 UNL     1      20.308   5.434  50.731  1.00  0.00     0.167 HD
HETATM   28  H16 UNL     1      23.551   1.016  50.382  1.00  0.00     0.161 HD
ENDROOT
BRANCH   6  29
HETATM   29  N2  UNL     1      21.918   0.910  48.258  1.00  0.00    -0.385 N 
HETATM   30  H6  UNL     1      22.685   0.182  48.289  1.00  0.00     0.157 HD
HETATM   31  H7  UNL     1      21.503   0.458  47.440  1.00  0.00     0.157 HD
ENDBRANCH   6  29
TORSDOF 1
ENDMDL
MODEL 9
REMARK VINA RESULT:      -7.9      8.941     10.626
REMARK  1 active torsions:
REMARK  status: ('A' for Active; 'I' for Inactive)
REMARK    1  A    between atoms: C5_6  and  N2_7 
ROOT
HETATM    1  C1  UNL     1      33.750   5.672  43.648  1.00  0.00     0.019 C 
HETATM    2  C2  UNL     1      33.232   6.332  44.909  1.00  0.00     0.043 C 
HETATM    3  C3  UNL     1      32.059   7.092  44.384  1.00  0.00     0.033 C 
HETATM    4  C4  UNL     1      32.377   7.971  45.321  1.00  0.00     0.126 C 
HETATM    5  N1  UNL     1      33.335   8.374  46.466  1.00  0.00    -0.216 NA
HETATM    6  C5  UNL     1      32.737   8.029  47.693  1.00  0.00     0.129 C 
HETATM    7  C6  UNL     1      31.482   7.614  48.445  1.00  0.00     0.102 C 
HETATM    8  C7  UNL     1      31.580   8.879  49.105  1.00  0.00     0.069 C 
HETATM    9  C8  UNL     1      30.996   9.611  47.839  1.00  0.00     0.002 C 
HETATM   10  C9  UNL     1      30.591   8.792  46.710  1.00  0.00     0.023 C 
HETATM   11  N3  UNL     1      30.931   8.410  45.259  1.00  0.00    -0.344 N 
HETATM   12  C10 UNL     1      29.444   7.641  46.761  1.00  0.00     0.060 A 
HETATM   13  C11 UNL     1      29.476   6.630  47.691  1.00  0.00     0.014 C 
HETATM   14 CL1  UNL     1      29.177   5.107  48.208  1.00  0.00    -0.092 Cl
HETATM   15  C12 UNL     1      30.114   7.455  48.678  1.00  0.00     0.070 C 
HETATM   16  C13 UNL     1      28.965   8.554  48.420  1.00  0.00     0.029 C 
HETATM   17  C14 UNL     1      28.069   8.596  47.248  1.00  0.00     0.061 A 
HETATM   18 CL2  UNL     1      26.473   9.065  47.285  1.00  0.00    -0.117 Cl
HETATM   19  C15 UNL     1      28.712   8.129  45.770  1.00  0.00     0.051 A 
HETATM   20  N4  UNL     1      32.036   6.348  48.378  1.00  0.00    -0.372 N 
HETATM   21  C16 UNL     1      32.498   5.440  47.365  1.00  0.00     0.036 A 
HETATM   22  C17 UNL     1      32.427   4.223  48.069  1.00  0.00     0.030 A 
HETATM   23  C18 UNL     1      32.760   2.942  47.650  1.00  0.00     0.002 A 
HETATM   24  C19 UNL     1      33.217   2.947  46.352  1.00  0.00     0.001 A 
HETATM   25  C20 UNL     1      33.296   4.129  45.643  1.00  0.00     0.010 A 
HETATM   26  C21 UNL     1      32.964   5.422  46.051  1.00  0.00    -0.024 A 
HETATM   27  H11 UNL     1      30.053   8.530  44.776  1.00  0.00     0.167 HD
HETATM   28  H16 UNL     1      32.047   6.302  49.381  1.00  0.00     0.161 HD
ENDROOT
BRANCH   6  29
HETATM   29  N2  UNL     1      33.861   8.107  48.582  1.00  0.00    -0.385 N 
HETATM   30  H6  UNL     1      34.895   8.234  48.391  1.00  0.00     0.157 HD
HETATM   31  H7  UNL     1      34.038   8.073  49.588  1.00  0.00     0.157 HD
ENDBRANCH   6  29
TORSDOF 1
ENDMDL
