MODEL 1
REMARK VINA RESULT:      -6.7      0.000      0.000
REMARK  6 active torsions:
REMARK  status: ('A' for Active; 'I' for Inactive)
REMARK    1  A    between atoms: C2_2  and  C3_3 
REMARK    2  A    between atoms: C3_3  and  C4_5 
REMARK    3  A    between atoms: C5_6  and  C6_7 
REMARK    4  A    between atoms: C6_7  and  C7_8 
REMARK    5  A    between atoms: C8_10  and  O1_11 
REMARK    6  A    between atoms: C14_18  and  C15_19 
ROOT
HETATM    1  C6  UNL     1      24.519   2.580  51.517  1.00  0.00     0.100 C 
HETATM    2  C10 UNL     1      23.772   3.664  52.257  1.00  0.00     0.047 C 
HETATM    3  C11 UNL     1      22.282   3.598  52.026  1.00  0.00     0.039 C 
HETATM    4  C12 UNL     1      21.732   2.258  52.376  1.00  0.00    -0.057 C 
HETATM    5  C13 UNL     1      20.443   2.128  53.056  1.00  0.00     0.046 C 
HETATM    6  C14 UNL     1      22.484   1.227  52.032  1.00  0.00     0.033 C 
HETATM    7  N2  UNL     1      23.724   1.374  51.380  1.00  0.00    -0.371 N 
HETATM    8  H18 UNL     1      24.054   0.590  50.798  1.00  0.00     0.161 HD
ENDROOT
BRANCH   1   9
HETATM    9  C5  UNL     1      25.038   3.077  50.219  1.00  0.00     0.009 C 
HETATM   10  C4  UNL     1      24.371   3.399  49.141  1.00  0.00    -0.004 C 
BRANCH  10  11
HETATM   11  C3  UNL     1      22.978   3.440  48.696  1.00  0.00     0.126 C 
HETATM   12 CL1  UNL     1      22.692   4.818  47.606  1.00  0.00    -0.117 Cl
BRANCH  11  13
HETATM   13  C2  UNL     1      22.585   2.188  47.953  1.00  0.00    -0.013 C 
HETATM   14  C1  UNL     1      21.620   1.419  48.437  1.00  0.00     0.008 C 
ENDBRANCH  11  13
ENDBRANCH  10  11
ENDBRANCH   1   9
BRANCH   1  15
HETATM   15  C7  UNL     1      25.715   2.124  52.350  1.00  0.00     0.110 A 
HETATM   16  N1  UNL     1      26.859   2.517  52.354  1.00  0.00    -0.219 NA
HETATM   17  C8  UNL     1      27.784   1.994  53.161  1.00  0.00     0.169 A 
HETATM   18  C9  UNL     1      27.437   0.942  54.053  1.00  0.00     0.109 A 
HETATM   19  S1  UNL     1      25.670   0.771  53.630  1.00  0.00    -0.079 SA
BRANCH  17  20
HETATM   20  O1  UNL     1      29.081   2.541  53.066  1.00  0.00    -0.344 OA
HETATM   21  H7  UNL     1      29.219   3.543  53.126  1.00  0.00     0.219 HD
ENDBRANCH  17  20
ENDBRANCH   1  15
BRANCH   6  22
HETATM   22  C15 UNL     1      22.049  -0.114  52.323  1.00  0.00     0.058 C 
HETATM   23  C16 UNL     1      22.244  -0.966  53.297  1.00  0.00     0.190 C 
HETATM   24  F1  UNL     1      21.868  -2.223  53.623  1.00  0.00    -0.219 F 
ENDBRANCH   6  22
TORSDOF 6
ENDMDL
MODEL 2
REMARK VINA RESULT:      -6.6      3.421      5.169
REMARK  6 active torsions:
REMARK  status: ('A' for Active; 'I' for Inactive)
REMARK    1  A    between atoms: C2_2  and  C3_3 
REMARK    2  A    between atoms: C3_3  and  C4_5 
REMARK    3  A    between atoms: C5_6  and  C6_7 
REMARK    4  A    between atoms: C6_7  and  C7_8 
REMARK    5  A    between atoms: C8_10  and  O1_11 
REMARK    6  A    between atoms: C14_18  and  C15_19 
ROOT
HETATM    1  C6  UNL     1      21.745   0.818  52.352  1.00  0.00     0.100 C 
HETATM    2  C10 UNL     1      21.025   0.564  53.654  1.00  0.00     0.047 C 
HETATM    3  C11 UNL     1      21.414  -0.752  54.281  1.00  0.00     0.039 C 
HETATM    4  C12 UNL     1      22.889  -0.853  54.475  1.00  0.00    -0.057 C 
HETATM    5  C13 UNL     1      23.449  -1.459  55.683  1.00  0.00     0.046 C 
HETATM    6  C14 UNL     1      23.626  -0.363  53.493  1.00  0.00     0.033 C 
HETATM    7  N2  UNL     1      23.066   0.219  52.339  1.00  0.00    -0.371 N 
HETATM    8  H18 UNL     1      23.630   0.208  51.476  1.00  0.00     0.161 HD
ENDROOT
BRANCH   1   9
HETATM    9  C5  UNL     1      20.915   0.407  51.192  1.00  0.00     0.009 C 
HETATM   10  C4  UNL     1      19.614   0.302  51.114  1.00  0.00    -0.004 C 
BRANCH  10  11
HETATM   11  C3  UNL     1      18.454   0.500  51.982  1.00  0.00     0.126 C 
HETATM   12 CL1  UNL     1      17.343   1.713  51.302  1.00  0.00    -0.117 Cl
BRANCH  11  13
HETATM   13  C2  UNL     1      17.669  -0.773  52.174  1.00  0.00    -0.013 C 
HETATM   14  C1  UNL     1      17.823  -1.472  53.291  1.00  0.00     0.008 C 
ENDBRANCH  11  13
ENDBRANCH  10  11
ENDBRANCH   1   9
BRANCH   1  15
HETATM   15  C7  UNL     1      22.032   2.312  52.210  1.00  0.00     0.110 A 
HETATM   16  N1  UNL     1      23.087   2.901  52.146  1.00  0.00    -0.219 NA
HETATM   17  C8  UNL     1      23.149   4.228  52.022  1.00  0.00     0.169 A 
HETATM   18  C9  UNL     1      21.953   4.994  51.960  1.00  0.00     0.109 A 
HETATM   19  S1  UNL     1      20.733   3.642  52.096  1.00  0.00    -0.079 SA
BRANCH  17  20
HETATM   20  O1  UNL     1      24.441   4.792  51.960  1.00  0.00    -0.344 OA
HETATM   21  H7  UNL     1      25.227   4.318  52.389  1.00  0.00     0.219 HD
ENDBRANCH  17  20
ENDBRANCH   1  15
BRANCH   6  22
HETATM   22  C15 UNL     1      25.062  -0.407  53.577  1.00  0.00     0.058 C 
HETATM   23  C16 UNL     1      26.044  -0.466  52.713  1.00  0.00     0.190 C 
HETATM   24  F1  UNL     1      27.396  -0.510  52.730  1.00  0.00    -0.219 F 
ENDBRANCH   6  22
TORSDOF 6
ENDMDL
MODEL 3
REMARK VINA RESULT:      -6.6      3.359      5.059
REMARK  6 active torsions:
REMARK  status: ('A' for Active; 'I' for Inactive)
REMARK    1  A    between atoms: C2_2  and  C3_3 
REMARK    2  A    between atoms: C3_3  and  C4_5 
REMARK    3  A    between atoms: C5_6  and  C6_7 
REMARK    4  A    between atoms: C6_7  and  C7_8 
REMARK    5  A    between atoms: C8_10  and  O1_11 
REMARK    6  A    between atoms: C14_18  and  C15_19 
ROOT
HETATM    1  C6  UNL     1      22.506   1.690  51.974  1.00  0.00     0.100 C 
HETATM    2  C10 UNL     1      22.208   0.554  51.025  1.00  0.00     0.047 C 
HETATM    3  C11 UNL     1      21.543   1.024  49.755  1.00  0.00     0.039 C 
HETATM    4  C12 UNL     1      22.350   2.074  49.070  1.00  0.00    -0.057 C 
HETATM    5  C13 UNL     1      22.480   2.091  47.612  1.00  0.00     0.046 C 
HETATM    6  C14 UNL     1      22.921   2.962  49.866  1.00  0.00     0.033 C 
HETATM    7  N2  UNL     1      22.785   2.926  51.267  1.00  0.00    -0.371 N 
HETATM    8  H18 UNL     1      22.891   3.813  51.780  1.00  0.00     0.161 HD
ENDROOT
BRANCH   1   9
HETATM    9  C5  UNL     1      21.434   1.837  52.989  1.00  0.00     0.009 C 
HETATM   10  C4  UNL     1      20.621   0.926  53.456  1.00  0.00    -0.004 C 
BRANCH  10  11
HETATM   11  C3  UNL     1      20.364  -0.502  53.268  1.00  0.00     0.126 C 
HETATM   12 CL1  UNL     1      21.062  -1.461  54.596  1.00  0.00    -0.117 Cl
BRANCH  11  13
HETATM   13  C2  UNL     1      18.889  -0.808  53.218  1.00  0.00    -0.013 C 
HETATM   14  C1  UNL     1      18.193  -0.488  52.135  1.00  0.00     0.008 C 
ENDBRANCH  11  13
ENDBRANCH  10  11
ENDBRANCH   1   9
BRANCH   1  15
HETATM   15  C7  UNL     1      23.811   1.405  52.716  1.00  0.00     0.110 A 
HETATM   16  N1  UNL     1      24.713   2.151  53.022  1.00  0.00    -0.219 NA
HETATM   17  C8  UNL     1      25.793   1.722  53.679  1.00  0.00     0.169 A 
HETATM   18  C9  UNL     1      25.909   0.352  54.040  1.00  0.00     0.109 A 
HETATM   19  S1  UNL     1      24.333  -0.265  53.355  1.00  0.00    -0.079 SA
BRANCH  17  20
HETATM   20  O1  UNL     1      26.773   2.693  53.974  1.00  0.00    -0.344 OA
HETATM   21  H7  UNL     1      26.763   3.176  54.866  1.00  0.00     0.219 HD
ENDBRANCH  17  20
ENDBRANCH   1  15
BRANCH   6  22
HETATM   22  C15 UNL     1      23.724   4.019  49.310  1.00  0.00     0.058 C 
HETATM   23  C16 UNL     1      24.998   4.320  49.309  1.00  0.00     0.190 C 
HETATM   24  F1  UNL     1      25.802   5.286  48.812  1.00  0.00    -0.219 F 
ENDBRANCH   6  22
TORSDOF 6
ENDMDL
MODEL 4
REMARK VINA RESULT:      -6.4      3.980      6.066
REMARK  6 active torsions:
REMARK  status: ('A' for Active; 'I' for Inactive)
REMARK    1  A    between atoms: C2_2  and  C3_3 
REMARK    2  A    between atoms: C3_3  and  C4_5 
REMARK    3  A    between atoms: C5_6  and  C6_7 
REMARK    4  A    between atoms: C6_7  and  C7_8 
REMARK    5  A    between atoms: C8_10  and  O1_11 
REMARK    6  A    between atoms: C14_18  and  C15_19 
ROOT
HETATM    1  C6  UNL     1      23.025   2.108  51.310  1.00  0.00     0.100 C 
HETATM    2  C10 UNL     1      23.364   1.987  52.776  1.00  0.00     0.047 C 
HETATM    3  C11 UNL     1      24.694   1.311  53.006  1.00  0.00     0.039 C 
HETATM    4  C12 UNL     1      25.794   2.002  52.274  1.00  0.00    -0.057 C 
HETATM    5  C13 UNL     1      27.111   2.178  52.887  1.00  0.00     0.046 C 
HETATM    6  C14 UNL     1      25.489   2.429  51.061  1.00  0.00     0.033 C 
HETATM    7  N2  UNL     1      24.214   2.252  50.490  1.00  0.00    -0.371 N 
HETATM    8  H18 UNL     1      24.149   2.228  49.462  1.00  0.00     0.161 HD
ENDROOT
BRANCH   1   9
HETATM    9  C5  UNL     1      22.153   0.992  50.867  1.00  0.00     0.009 C 
HETATM   10  C4  UNL     1      21.418   0.192  51.595  1.00  0.00    -0.004 C 
BRANCH  10  11
HETATM   11  C3  UNL     1      21.104  -0.011  53.009  1.00  0.00     0.126 C 
HETATM   12 CL1  UNL     1      19.382  -0.401  53.235  1.00  0.00    -0.117 Cl
BRANCH  11  13
HETATM   13  C2  UNL     1      21.904  -1.139  53.609  1.00  0.00    -0.013 C 
HETATM   14  C1  UNL     1      22.254  -1.082  54.887  1.00  0.00     0.008 C 
ENDBRANCH  11  13
ENDBRANCH  10  11
ENDBRANCH   1   9
BRANCH   1  15
HETATM   15  C7  UNL     1      22.268   3.413  51.067  1.00  0.00     0.110 A 
HETATM   16  N1  UNL     1      22.503   4.535  51.455  1.00  0.00    -0.219 NA
HETATM   17  C8  UNL     1      21.721   5.569  51.141  1.00  0.00     0.169 A 
HETATM   18  C9  UNL     1      20.573   5.372  50.326  1.00  0.00     0.109 A 
HETATM   19  S1  UNL     1      20.714   3.572  50.053  1.00  0.00    -0.079 SA
BRANCH  17  20
HETATM   20  O1  UNL     1      22.105   6.825  51.658  1.00  0.00    -0.344 OA
HETATM   21  H7  UNL     1      22.756   6.882  52.432  1.00  0.00     0.219 HD
ENDBRANCH  17  20
ENDBRANCH   1  15
BRANCH   6  22
HETATM   22  C15 UNL     1      26.477   3.110  50.266  1.00  0.00     0.058 C 
HETATM   23  C16 UNL     1      26.455   4.065  49.370  1.00  0.00     0.190 C 
HETATM   24  F1  UNL     1      27.337   4.738  48.598  1.00  0.00    -0.219 F 
ENDBRANCH   6  22
TORSDOF 6
ENDMDL
MODEL 5
REMARK VINA RESULT:      -6.3      3.665      5.498
REMARK  6 active torsions:
REMARK  status: ('A' for Active; 'I' for Inactive)
REMARK    1  A    between atoms: C2_2  and  C3_3 
REMARK    2  A    between atoms: C3_3  and  C4_5 
REMARK    3  A    between atoms: C5_6  and  C6_7 
REMARK    4  A    between atoms: C6_7  and  C7_8 
REMARK    5  A    between atoms: C8_10  and  O1_11 
REMARK    6  A    between atoms: C14_18  and  C15_19 
ROOT
HETATM    1  C6  UNL     1      24.234   1.048  52.504  1.00  0.00     0.100 C 
HETATM    2  C10 UNL     1      24.636   2.248  53.327  1.00  0.00     0.047 C 
HETATM    3  C11 UNL     1      24.713   3.511  52.504  1.00  0.00     0.039 C 
HETATM    4  C12 UNL     1      23.433   3.778  51.788  1.00  0.00    -0.057 C 
HETATM    5  C13 UNL     1      22.906   5.138  51.672  1.00  0.00     0.046 C 
HETATM    6  C14 UNL     1      22.832   2.715  51.283  1.00  0.00     0.033 C 
HETATM    7  N2  UNL     1      23.355   1.414  51.409  1.00  0.00    -0.371 N 
HETATM    8  H18 UNL     1      23.091   0.721  50.693  1.00  0.00     0.161 HD
ENDROOT
BRANCH   1   9
HETATM    9  C5  UNL     1      25.423   0.282  52.056  1.00  0.00     0.009 C 
HETATM   10  C4  UNL     1      26.628   0.274  52.563  1.00  0.00    -0.004 C 
BRANCH  10  11
HETATM   11  C3  UNL     1      27.348   0.910  53.666  1.00  0.00     0.126 C 
HETATM   12 CL1  UNL     1      26.922   0.165  55.225  1.00  0.00    -0.117 Cl
BRANCH  11  13
HETATM   13  C2  UNL     1      28.842   0.795  53.505  1.00  0.00    -0.013 C 
HETATM   14  C1  UNL     1      29.431  -0.378  53.698  1.00  0.00     0.008 C 
ENDBRANCH  11  13
ENDBRANCH  10  11
ENDBRANCH   1   9
BRANCH   1  15
HETATM   15  C7  UNL     1      23.372   0.113  53.352  1.00  0.00     0.110 A 
HETATM   16  N1  UNL     1      23.660  -0.542  54.328  1.00  0.00    -0.219 NA
HETATM   17  C8  UNL     1      22.766  -1.314  54.950  1.00  0.00     0.169 A 
HETATM   18  C9  UNL     1      21.430  -1.384  54.469  1.00  0.00     0.109 A 
HETATM   19  S1  UNL     1      21.570  -0.246  53.048  1.00  0.00    -0.079 SA
BRANCH  17  20
HETATM   20  O1  UNL     1      23.229  -2.027  56.075  1.00  0.00    -0.344 OA
HETATM   21  H7  UNL     1      22.710  -2.004  56.945  1.00  0.00     0.219 HD
ENDBRANCH  17  20
ENDBRANCH   1  15
BRANCH   6  22
HETATM   22  C15 UNL     1      21.588   2.858  50.572  1.00  0.00     0.058 C 
HETATM   23  C16 UNL     1      20.324   2.674  50.859  1.00  0.00     0.190 C 
HETATM   24  F1  UNL     1      19.127   2.790  50.242  1.00  0.00    -0.219 F 
ENDBRANCH   6  22
TORSDOF 6
ENDMDL
MODEL 6
REMARK VINA RESULT:      -6.2      8.606     10.887
REMARK  6 active torsions:
REMARK  status: ('A' for Active; 'I' for Inactive)
REMARK    1  A    between atoms: C2_2  and  C3_3 
REMARK    2  A    between atoms: C3_3  and  C4_5 
REMARK    3  A    between atoms: C5_6  and  C6_7 
REMARK    4  A    between atoms: C6_7  and  C7_8 
REMARK    5  A    between atoms: C8_10  and  O1_11 
REMARK    6  A    between atoms: C14_18  and  C15_19 
ROOT
HETATM    1  C6  UNL     1      31.374   6.453  47.562  1.00  0.00     0.100 C 
HETATM    2  C10 UNL     1      31.486   7.070  46.189  1.00  0.00     0.047 C 
HETATM    3  C11 UNL     1      32.708   6.594  45.441  1.00  0.00     0.039 C 
HETATM    4  C12 UNL     1      32.749   5.107  45.347  1.00  0.00    -0.057 C 
HETATM    5  C13 UNL     1      33.192   4.443  44.120  1.00  0.00     0.046 C 
HETATM    6  C14 UNL     1      32.363   4.458  46.432  1.00  0.00     0.033 C 
HETATM    7  N2  UNL     1      31.938   5.117  47.602  1.00  0.00    -0.371 N 
HETATM    8  H18 UNL     1      32.040   4.616  48.496  1.00  0.00     0.161 HD
ENDROOT
BRANCH   1   9
HETATM    9  C5  UNL     1      31.942   7.348  48.600  1.00  0.00     0.009 C 
HETATM   10  C4  UNL     1      33.196   7.636  48.833  1.00  0.00    -0.004 C 
BRANCH  10  11
HETATM   11  C3  UNL     1      34.510   7.293  48.290  1.00  0.00     0.126 C 
HETATM   12 CL1  UNL     1      35.608   8.693  48.329  1.00  0.00    -0.117 Cl
BRANCH  11  13
HETATM   13  C2  UNL     1      35.169   6.181  49.067  1.00  0.00    -0.013 C 
HETATM   14  C1  UNL     1      35.209   4.960  48.551  1.00  0.00     0.008 C 
ENDBRANCH  11  13
ENDBRANCH  10  11
ENDBRANCH   1   9
BRANCH   1  15
HETATM   15  C7  UNL     1      29.902   6.226  47.901  1.00  0.00     0.110 A 
HETATM   16  N1  UNL     1      29.332   5.226  48.274  1.00  0.00    -0.219 NA
HETATM   17  C8  UNL     1      28.022   5.211  48.525  1.00  0.00     0.169 A 
HETATM   18  C9  UNL     1      27.252   6.394  48.357  1.00  0.00     0.109 A 
HETATM   19  S1  UNL     1      28.572   7.527  47.807  1.00  0.00    -0.079 SA
BRANCH  17  20
HETATM   20  O1  UNL     1      27.480   3.980  48.953  1.00  0.00    -0.344 OA
HETATM   21  H7  UNL     1      26.649   3.961  49.533  1.00  0.00     0.219 HD
ENDBRANCH  17  20
ENDBRANCH   1  15
BRANCH   6  22
HETATM   22  C15 UNL     1      32.362   3.019  46.451  1.00  0.00     0.058 C 
HETATM   23  C16 UNL     1      31.446   2.086  46.388  1.00  0.00     0.190 C 
HETATM   24  F1  UNL     1      31.383   0.736  46.400  1.00  0.00    -0.219 F 
ENDBRANCH   6  22
TORSDOF 6
ENDMDL
MODEL 7
REMARK VINA RESULT:      -6.2      4.282      6.342
REMARK  6 active torsions:
REMARK  status: ('A' for Active; 'I' for Inactive)
REMARK    1  A    between atoms: C2_2  and  C3_3 
REMARK    2  A    between atoms: C3_3  and  C4_5 
REMARK    3  A    between atoms: C5_6  and  C6_7 
REMARK    4  A    between atoms: C6_7  and  C7_8 
REMARK    5  A    between atoms: C8_10  and  O1_11 
REMARK    6  A    between atoms: C14_18  and  C15_19 
ROOT
HETATM    1  C6  UNL     1      23.928   4.065  51.258  1.00  0.00     0.100 C 
HETATM    2  C10 UNL     1      23.200   5.384  51.348  1.00  0.00     0.047 C 
HETATM    3  C11 UNL     1      24.144   6.557  51.454  1.00  0.00     0.039 C 
HETATM    4  C12 UNL     1      25.120   6.580  50.328  1.00  0.00    -0.057 C 
HETATM    5  C13 UNL     1      25.505   7.840  49.690  1.00  0.00     0.046 C 
HETATM    6  C14 UNL     1      25.594   5.401  49.963  1.00  0.00     0.033 C 
HETATM    7  N2  UNL     1      25.209   4.200  50.588  1.00  0.00    -0.371 N 
HETATM    8  H18 UNL     1      25.870   3.410  50.555  1.00  0.00     0.161 HD
ENDROOT
BRANCH   1   9
HETATM    9  C5  UNL     1      24.040   3.422  52.590  1.00  0.00     0.009 C 
HETATM   10  C4  UNL     1      24.883   2.505  52.986  1.00  0.00    -0.004 C 
BRANCH  10  11
HETATM   11  C3  UNL     1      25.996   1.737  52.429  1.00  0.00     0.126 C 
HETATM   12 CL1  UNL     1      27.522   2.121  53.260  1.00  0.00    -0.117 Cl
BRANCH  11  13
HETATM   13  C2  UNL     1      25.776   0.251  52.555  1.00  0.00    -0.013 C 
HETATM   14  C1  UNL     1      26.798  -0.577  52.386  1.00  0.00     0.008 C 
ENDBRANCH  11  13
ENDBRANCH  10  11
ENDBRANCH   1   9
BRANCH   1  15
HETATM   15  C7  UNL     1      23.151   3.115  50.348  1.00  0.00     0.110 A 
HETATM   16  N1  UNL     1      23.273   2.894  49.164  1.00  0.00    -0.219 NA
HETATM   17  C8  UNL     1      22.495   2.019  48.525  1.00  0.00     0.169 A 
HETATM   18  C9  UNL     1      21.487   1.312  49.235  1.00  0.00     0.109 A 
HETATM   19  S1  UNL     1      21.753   2.014  50.898  1.00  0.00    -0.079 SA
BRANCH  17  20
HETATM   20  O1  UNL     1      22.739   1.855  47.145  1.00  0.00    -0.344 OA
HETATM   21  H7  UNL     1      21.993   1.997  46.473  1.00  0.00     0.219 HD
ENDBRANCH  17  20
ENDBRANCH   1  15
BRANCH   6  22
HETATM   22  C15 UNL     1      26.543   5.306  48.885  1.00  0.00     0.058 C 
HETATM   23  C16 UNL     1      27.836   5.125  48.795  1.00  0.00     0.190 C 
HETATM   24  F1  UNL     1      28.772   5.028  47.825  1.00  0.00    -0.219 F 
ENDBRANCH   6  22
TORSDOF 6
ENDMDL
MODEL 8
REMARK VINA RESULT:      -6.1      8.541     10.625
REMARK  6 active torsions:
REMARK  status: ('A' for Active; 'I' for Inactive)
REMARK    1  A    between atoms: C2_2  and  C3_3 
REMARK    2  A    between atoms: C3_3  and  C4_5 
REMARK    3  A    between atoms: C5_6  and  C6_7 
REMARK    4  A    between atoms: C6_7  and  C7_8 
REMARK    5  A    between atoms: C8_10  and  O1_11 
REMARK    6  A    between atoms: C14_18  and  C15_19 
ROOT
HETATM    1  C6  UNL     1      31.244   6.375  47.776  1.00  0.00     0.100 C 
HETATM    2  C10 UNL     1      31.418   7.056  46.441  1.00  0.00     0.047 C 
HETATM    3  C11 UNL     1      32.666   6.605  45.721  1.00  0.00     0.039 C 
HETATM    4  C12 UNL     1      32.698   5.123  45.556  1.00  0.00    -0.057 C 
HETATM    5  C13 UNL     1      33.185   4.514  44.318  1.00  0.00     0.046 C 
HETATM    6  C14 UNL     1      32.262   4.426  46.592  1.00  0.00     0.033 C 
HETATM    7  N2  UNL     1      31.795   5.032  47.774  1.00  0.00    -0.371 N 
HETATM    8  H18 UNL     1      31.855   4.487  48.646  1.00  0.00     0.161 HD
ENDROOT
BRANCH   1   9
HETATM    9  C5  UNL     1      31.776   7.213  48.879  1.00  0.00     0.009 C 
HETATM   10  C4  UNL     1      31.853   8.516  48.951  1.00  0.00    -0.004 C 
BRANCH  10  11
HETATM   11  C3  UNL     1      31.514   9.672  48.122  1.00  0.00     0.126 C 
HETATM   12 CL1  UNL     1      30.792  10.973  49.099  1.00  0.00    -0.117 Cl
BRANCH  11  13
HETATM   13  C2  UNL     1      32.724  10.246  47.430  1.00  0.00    -0.013 C 
HETATM   14  C1  UNL     1      32.706  11.510  47.027  1.00  0.00     0.008 C 
ENDBRANCH  11  13
ENDBRANCH  10  11
ENDBRANCH   1   9
BRANCH   1  15
HETATM   15  C7  UNL     1      29.757   6.147  48.043  1.00  0.00     0.110 A 
HETATM   16  N1  UNL     1      29.174   5.153  48.413  1.00  0.00    -0.219 NA
HETATM   17  C8  UNL     1      27.852   5.136  48.595  1.00  0.00     0.169 A 
HETATM   18  C9  UNL     1      27.086   6.309  48.354  1.00  0.00     0.109 A 
HETATM   19  S1  UNL     1      28.427   7.435  47.843  1.00  0.00    -0.079 SA
BRANCH  17  20
HETATM   20  O1  UNL     1      27.295   3.914  49.027  1.00  0.00    -0.344 OA
HETATM   21  H7  UNL     1      27.033   3.204  48.353  1.00  0.00     0.219 HD
ENDBRANCH  17  20
ENDBRANCH   1  15
BRANCH   6  22
HETATM   22  C15 UNL     1      32.249   2.988  46.540  1.00  0.00     0.058 C 
HETATM   23  C16 UNL     1      32.680   2.023  47.313  1.00  0.00     0.190 C 
HETATM   24  F1  UNL     1      32.696   0.672  47.319  1.00  0.00    -0.219 F 
ENDBRANCH   6  22
TORSDOF 6
ENDMDL
MODEL 9
REMARK VINA RESULT:      -6.1      2.909      4.713
REMARK  6 active torsions:
REMARK  status: ('A' for Active; 'I' for Inactive)
REMARK    1  A    between atoms: C2_2  and  C3_3 
REMARK    2  A    between atoms: C3_3  and  C4_5 
REMARK    3  A    between atoms: C5_6  and  C6_7 
REMARK    4  A    between atoms: C6_7  and  C7_8 
REMARK    5  A    between atoms: C8_10  and  O1_11 
REMARK    6  A    between atoms: C14_18  and  C15_19 
ROOT
HETATM    1  C6  UNL     1      24.025   2.261  51.711  1.00  0.00     0.100 C 
HETATM    2  C10 UNL     1      25.168   1.861  50.810  1.00  0.00     0.047 C 
HETATM    3  C11 UNL     1      26.409   1.486  51.583  1.00  0.00     0.039 C 
HETATM    4  C12 UNL     1      26.130   0.410  52.577  1.00  0.00    -0.057 C 
HETATM    5  C13 UNL     1      27.091  -0.670  52.806  1.00  0.00     0.046 C 
HETATM    6  C14 UNL     1      24.977   0.510  53.216  1.00  0.00     0.033 C 
HETATM    7  N2  UNL     1      24.065   1.556  52.979  1.00  0.00    -0.371 N 
HETATM    8  H18 UNL     1      23.419   1.809  53.741  1.00  0.00     0.161 HD
ENDROOT
BRANCH   1   9
HETATM    9  C5  UNL     1      23.960   3.734  51.873  1.00  0.00     0.009 C 
HETATM   10  C4  UNL     1      24.215   4.665  50.990  1.00  0.00    -0.004 C 
BRANCH  10  11
HETATM   11  C3  UNL     1      24.633   4.752  49.592  1.00  0.00     0.126 C 
HETATM   12 CL1  UNL     1      23.539   5.800  48.658  1.00  0.00    -0.117 Cl
BRANCH  11  13
HETATM   13  C2  UNL     1      26.025   5.316  49.453  1.00  0.00    -0.013 C 
HETATM   14  C1  UNL     1      27.005   4.534  49.020  1.00  0.00     0.008 C 
ENDBRANCH  11  13
ENDBRANCH  10  11
ENDBRANCH   1   9
BRANCH   1  15
HETATM   15  C7  UNL     1      22.705   1.804  51.094  1.00  0.00     0.110 A 
HETATM   16  N1  UNL     1      22.317   1.862  49.949  1.00  0.00    -0.219 NA
HETATM   17  C8  UNL     1      21.116   1.407  49.586  1.00  0.00     0.169 A 
HETATM   18  C9  UNL     1      20.250   0.832  50.555  1.00  0.00     0.109 A 
HETATM   19  S1  UNL     1      21.309   1.002  52.032  1.00  0.00    -0.079 SA
BRANCH  17  20
HETATM   20  O1  UNL     1      20.784   1.535  48.220  1.00  0.00    -0.344 OA
HETATM   21  H7  UNL     1      20.470   0.729  47.692  1.00  0.00     0.219 HD
ENDBRANCH  17  20
ENDBRANCH   1  15
BRANCH   6  22
HETATM   22  C15 UNL     1      24.607  -0.476  54.197  1.00  0.00     0.058 C 
HETATM   23  C16 UNL     1      23.480  -0.912  54.700  1.00  0.00     0.190 C 
HETATM   24  F1  UNL     1      23.073  -1.824  55.612  1.00  0.00    -0.219 F 
ENDBRANCH   6  22
TORSDOF 6
ENDMDL
