MODEL 1
REMARK VINA RESULT:      -9.2      0.000      0.000
REMARK  2 active torsions:
REMARK  status: ('A' for Active; 'I' for Inactive)
REMARK    1  A    between atoms: C9_13  and  C10_14 
REMARK       I    between atoms: C10_14  and  N3_16 
REMARK    2  A    between atoms: N3_16  and  C11_17 
ROOT
HETATM    1  C1  UNL     1      18.683   0.231  51.200  1.00  0.00     0.172 C 
HETATM    2  N1  UNL     1      19.690   1.240  51.482  1.00  0.00    -0.310 N 
HETATM    3  N2  UNL     1      19.410   2.460  50.864  1.00  0.00    -0.167 NA
HETATM    4  S1  UNL     1      19.861   2.362  49.167  1.00  0.00     0.010 SA
HETATM    5  S2  UNL     1      21.703   1.312  48.939  1.00  0.00    -0.075 SA
HETATM    6  C2  UNL     1      23.103   2.462  49.037  1.00  0.00     0.126 C 
HETATM    7  C3  UNL     1      23.178   3.066  50.418  1.00  0.00    -0.041 A 
HETATM    8  C4  UNL     1      23.222   4.436  50.585  1.00  0.00     0.008 A 
HETATM    9  C5  UNL     1      23.285   5.097  51.796  1.00  0.00     0.001 A 
HETATM   10  C6  UNL     1      23.303   4.306  52.929  1.00  0.00     0.001 A 
HETATM   11  C7  UNL     1      23.259   2.927  52.786  1.00  0.00     0.008 A 
HETATM   12  C8  UNL     1      23.198   2.279  51.570  1.00  0.00    -0.037 A 
HETATM   13  C9  UNL     1      23.170   0.826  51.677  1.00  0.00     0.125 C 
HETATM   14  C17 UNL     1      22.079   0.182  52.408  1.00  0.00     0.077 A 
HETATM   15  C18 UNL     1      22.317  -0.045  53.854  1.00  0.00    -0.015 A 
HETATM   16  C19 UNL     1      21.282   0.303  54.603  1.00  0.00    -0.001 A 
HETATM   17  C20 UNL     1      20.276   0.799  53.630  1.00  0.00     0.027 A 
HETATM   18  C21 UNL     1      20.734   0.736  52.354  1.00  0.00     0.032 A 
HETATM   19  H4  UNL     1      19.917   3.265  51.288  1.00  0.00     0.161 HD
ENDROOT
BRANCH  13  20
HETATM   20  C10 UNL     1      24.460   0.369  52.329  1.00  0.00     0.231 C 
HETATM   21  O1  UNL     1      24.364  -0.627  53.086  1.00  0.00    -0.272 OA
HETATM   22  N3  UNL     1      25.698   0.983  52.132  1.00  0.00    -0.327 N 
HETATM   23  H12 UNL     1      25.621   1.792  51.484  1.00  0.00     0.169 HD
BRANCH  22  24
HETATM   24  C11 UNL     1      26.960   0.656  52.677  1.00  0.00     0.034 A 
HETATM   25  C12 UNL     1      27.751   1.660  53.181  1.00  0.00     0.029 A 
HETATM   26  C13 UNL     1      28.989   1.429  53.728  1.00  0.00     0.002 A 
HETATM   27  C14 UNL     1      29.501   0.156  53.798  1.00  0.00     0.000 A 
HETATM   28  C15 UNL     1      28.754  -0.873  53.312  1.00  0.00     0.002 A 
HETATM   29  C16 UNL     1      27.518  -0.596  52.772  1.00  0.00     0.029 A 
ENDBRANCH  22  24
ENDBRANCH  13  20
TORSDOF 2
ENDMDL
MODEL 2
REMARK VINA RESULT:      -9.1      3.139      5.705
REMARK  2 active torsions:
REMARK  status: ('A' for Active; 'I' for Inactive)
REMARK    1  A    between atoms: C9_13  and  C10_14 
REMARK       I    between atoms: C10_14  and  N3_16 
REMARK    2  A    between atoms: N3_16  and  C11_17 
ROOT
HETATM    1  C1  UNL     1      25.650   7.368  48.802  1.00  0.00     0.172 C 
HETATM    2  N1  UNL     1      24.770   6.223  48.643  1.00  0.00    -0.310 N 
HETATM    3  N2  UNL     1      23.825   6.413  47.633  1.00  0.00    -0.167 NA
HETATM    4  S1  UNL     1      22.528   7.432  48.246  1.00  0.00     0.010 SA
HETATM    5  S2  UNL     1      22.033   6.895  50.250  1.00  0.00    -0.075 SA
HETATM    6  C2  UNL     1      20.756   5.606  50.263  1.00  0.00     0.126 C 
HETATM    7  C3  UNL     1      21.298   4.337  49.651  1.00  0.00    -0.041 A 
HETATM    8  C4  UNL     1      20.625   3.710  48.622  1.00  0.00     0.008 A 
HETATM    9  C5  UNL     1      21.029   2.553  47.985  1.00  0.00     0.001 A 
HETATM   10  C6  UNL     1      22.210   1.986  48.427  1.00  0.00     0.001 A 
HETATM   11  C7  UNL     1      22.903   2.599  49.460  1.00  0.00     0.008 A 
HETATM   12  C8  UNL     1      22.488   3.755  50.089  1.00  0.00    -0.037 A 
HETATM   13  C9  UNL     1      23.380   4.200  51.152  1.00  0.00     0.125 C 
HETATM   14  C17 UNL     1      24.770   4.524  50.833  1.00  0.00     0.077 A 
HETATM   15  C18 UNL     1      25.735   3.402  50.943  1.00  0.00    -0.015 A 
HETATM   16  C19 UNL     1      26.558   3.332  49.909  1.00  0.00    -0.001 A 
HETATM   17  C20 UNL     1      26.143   4.458  49.034  1.00  0.00     0.027 A 
HETATM   18  C21 UNL     1      25.103   5.151  49.562  1.00  0.00     0.032 A 
HETATM   19  H4  UNL     1      23.403   5.525  47.289  1.00  0.00     0.161 HD
ENDROOT
BRANCH  13  20
HETATM   20  C10 UNL     1      23.417   3.132  52.225  1.00  0.00     0.231 C 
HETATM   21  O1  UNL     1      24.137   3.385  53.222  1.00  0.00    -0.272 OA
HETATM   22  N3  UNL     1      22.715   1.927  52.157  1.00  0.00    -0.327 N 
HETATM   23  H12 UNL     1      22.165   1.858  51.277  1.00  0.00     0.169 HD
BRANCH  22  24
HETATM   24  C11 UNL     1      22.668   0.860  53.083  1.00  0.00     0.034 A 
HETATM   25  C12 UNL     1      21.480   0.575  53.714  1.00  0.00     0.029 A 
HETATM   26  C13 UNL     1      21.348  -0.443  54.626  1.00  0.00     0.002 A 
HETATM   27  C14 UNL     1      22.419  -1.239  54.953  1.00  0.00     0.000 A 
HETATM   28  C15 UNL     1      23.617  -0.996  54.353  1.00  0.00     0.002 A 
HETATM   29  C16 UNL     1      23.705   0.036  53.444  1.00  0.00     0.029 A 
ENDBRANCH  22  24
ENDBRANCH  13  20
TORSDOF 2
ENDMDL
MODEL 3
REMARK VINA RESULT:      -8.7      3.362      5.231
REMARK  2 active torsions:
REMARK  status: ('A' for Active; 'I' for Inactive)
REMARK    1  A    between atoms: C9_13  and  C10_14 
REMARK       I    between atoms: C10_14  and  N3_16 
REMARK    2  A    between atoms: N3_16  and  C11_17 
ROOT
HETATM    1  C1  UNL     1      24.785   8.286  49.426  1.00  0.00     0.172 C 
HETATM    2  N1  UNL     1      24.185   7.037  48.988  1.00  0.00    -0.310 N 
HETATM    3  N2  UNL     1      23.036   7.238  48.221  1.00  0.00    -0.167 NA
HETATM    4  S1  UNL     1      21.689   7.610  49.290  1.00  0.00     0.010 SA
HETATM    5  S2  UNL     1      21.753   6.383  51.034  1.00  0.00    -0.075 SA
HETATM    6  C2  UNL     1      20.843   4.838  50.754  1.00  0.00     0.126 C 
HETATM    7  C3  UNL     1      21.530   4.021  49.687  1.00  0.00    -0.041 A 
HETATM    8  C4  UNL     1      20.829   3.563  48.591  1.00  0.00     0.008 A 
HETATM    9  C5  UNL     1      21.353   2.815  47.555  1.00  0.00     0.001 A 
HETATM   10  C6  UNL     1      22.699   2.508  47.637  1.00  0.00     0.001 A 
HETATM   11  C7  UNL     1      23.424   2.958  48.730  1.00  0.00     0.008 A 
HETATM   12  C8  UNL     1      22.887   3.704  49.759  1.00  0.00    -0.037 A 
HETATM   13  C9  UNL     1      23.847   4.049  50.799  1.00  0.00     0.125 C 
HETATM   14  C17 UNL     1      25.028   4.839  50.451  1.00  0.00     0.077 A 
HETATM   15  C18 UNL     1      26.231   4.063  50.060  1.00  0.00    -0.015 A 
HETATM   16  C19 UNL     1      26.818   4.544  48.976  1.00  0.00    -0.001 A 
HETATM   17  C20 UNL     1      25.983   5.710  48.592  1.00  0.00     0.027 A 
HETATM   18  C21 UNL     1      24.939   5.884  49.442  1.00  0.00     0.032 A 
HETATM   19  H4  UNL     1      22.773   6.411  47.645  1.00  0.00     0.161 HD
ENDROOT
BRANCH  13  20
HETATM   20  C10 UNL     1      24.351   2.768  51.432  1.00  0.00     0.231 C 
HETATM   21  O1  UNL     1      23.638   1.752  51.248  1.00  0.00    -0.272 OA
HETATM   22  N3  UNL     1      25.526   2.673  52.181  1.00  0.00    -0.327 N 
HETATM   23  H12 UNL     1      26.008   3.591  52.248  1.00  0.00     0.169 HD
BRANCH  22  24
HETATM   24  C11 UNL     1      26.097   1.548  52.817  1.00  0.00     0.034 A 
HETATM   25  C12 UNL     1      26.626   0.541  52.044  1.00  0.00     0.029 A 
HETATM   26  C13 UNL     1      27.200  -0.585  52.582  1.00  0.00     0.002 A 
HETATM   27  C14 UNL     1      27.274  -0.757  53.943  1.00  0.00     0.000 A 
HETATM   28  C15 UNL     1      26.764   0.214  54.749  1.00  0.00     0.002 A 
HETATM   29  C16 UNL     1      26.197   1.327  54.169  1.00  0.00     0.029 A 
ENDBRANCH  22  24
ENDBRANCH  13  20
TORSDOF 2
ENDMDL
MODEL 4
REMARK VINA RESULT:      -8.4      9.535     12.363
REMARK  2 active torsions:
REMARK  status: ('A' for Active; 'I' for Inactive)
REMARK    1  A    between atoms: C9_13  and  C10_14 
REMARK       I    between atoms: C10_14  and  N3_16 
REMARK    2  A    between atoms: N3_16  and  C11_17 
ROOT
HETATM    1  C1  UNL     1      33.157  10.246  44.481  1.00  0.00     0.172 C 
HETATM    2  N1  UNL     1      33.505   9.164  45.386  1.00  0.00    -0.310 N 
HETATM    3  N2  UNL     1      34.742   8.592  45.082  1.00  0.00    -0.167 NA
HETATM    4  S1  UNL     1      34.549   7.501  43.715  1.00  0.00     0.010 SA
HETATM    5  S2  UNL     1      32.738   6.389  43.891  1.00  0.00    -0.075 SA
HETATM    6  C2  UNL     1      33.025   4.855  44.818  1.00  0.00     0.126 C 
HETATM    7  C3  UNL     1      33.414   5.178  46.240  1.00  0.00    -0.041 A 
HETATM    8  C4  UNL     1      34.562   4.648  46.792  1.00  0.00     0.008 A 
HETATM    9  C5  UNL     1      35.018   4.878  48.076  1.00  0.00     0.001 A 
HETATM   10  C6  UNL     1      34.247   5.713  48.863  1.00  0.00     0.001 A 
HETATM   11  C7  UNL     1      33.089   6.257  48.329  1.00  0.00     0.008 A 
HETATM   12  C8  UNL     1      32.644   6.018  47.045  1.00  0.00    -0.037 A 
HETATM   13  C9  UNL     1      31.396   6.695  46.719  1.00  0.00     0.125 C 
HETATM   14  C17 UNL     1      31.334   8.155  46.783  1.00  0.00     0.077 A 
HETATM   15  C18 UNL     1      30.919   8.727  48.088  1.00  0.00    -0.015 A 
HETATM   16  C19 UNL     1      31.685   9.736  48.470  1.00  0.00    -0.001 A 
HETATM   17  C20 UNL     1      32.683   9.873  47.379  1.00  0.00     0.027 A 
HETATM   18  C21 UNL     1      32.488   8.955  46.399  1.00  0.00     0.032 A 
HETATM   19  H4  UNL     1      35.154   8.052  45.871  1.00  0.00     0.161 HD
ENDROOT
BRANCH  13  20
HETATM   20  C10 UNL     1      30.312   6.173  47.639  1.00  0.00     0.231 C 
HETATM   21  O1  UNL     1      30.696   5.400  48.550  1.00  0.00    -0.272 OA
HETATM   22  N3  UNL     1      28.959   6.500  47.522  1.00  0.00    -0.327 N 
HETATM   23  H12 UNL     1      28.793   7.145  46.725  1.00  0.00     0.169 HD
BRANCH  22  24
HETATM   24  C11 UNL     1      27.863   6.082  48.309  1.00  0.00     0.034 A 
HETATM   25  C12 UNL     1      27.004   7.029  48.816  1.00  0.00     0.029 A 
HETATM   26  C13 UNL     1      25.915   6.709  49.589  1.00  0.00     0.002 A 
HETATM   27  C14 UNL     1      25.629   5.400  49.894  1.00  0.00     0.000 A 
HETATM   28  C15 UNL     1      26.450   4.426  49.415  1.00  0.00     0.002 A 
HETATM   29  C16 UNL     1      27.531   4.791  48.643  1.00  0.00     0.029 A 
ENDBRANCH  22  24
ENDBRANCH  13  20
TORSDOF 2
ENDMDL
MODEL 5
REMARK VINA RESULT:      -8.3      3.393      5.552
REMARK  2 active torsions:
REMARK  status: ('A' for Active; 'I' for Inactive)
REMARK    1  A    between atoms: C9_13  and  C10_14 
REMARK       I    between atoms: C10_14  and  N3_16 
REMARK    2  A    between atoms: N3_16  and  C11_17 
ROOT
HETATM    1  C1  UNL     1      21.327   8.332  49.937  1.00  0.00     0.172 C 
HETATM    2  N1  UNL     1      21.673   6.989  49.503  1.00  0.00    -0.310 N 
HETATM    3  N2  UNL     1      21.656   6.857  48.113  1.00  0.00    -0.167 NA
HETATM    4  S1  UNL     1      19.990   6.695  47.572  1.00  0.00     0.010 SA
HETATM    5  S2  UNL     1      18.888   5.439  48.897  1.00  0.00    -0.075 SA
HETATM    6  C2  UNL     1      19.015   3.705  48.376  1.00  0.00     0.126 C 
HETATM    7  C3  UNL     1      20.443   3.232  48.502  1.00  0.00    -0.041 A 
HETATM    8  C4  UNL     1      21.087   2.647  47.431  1.00  0.00     0.008 A 
HETATM    9  C5  UNL     1      22.388   2.184  47.430  1.00  0.00     0.001 A 
HETATM   10  C6  UNL     1      23.094   2.327  48.609  1.00  0.00     0.001 A 
HETATM   11  C7  UNL     1      22.467   2.913  49.699  1.00  0.00     0.008 A 
HETATM   12  C8  UNL     1      21.165   3.370  49.688  1.00  0.00    -0.037 A 
HETATM   13  C9  UNL     1      20.729   3.937  50.957  1.00  0.00     0.125 C 
HETATM   14  C17 UNL     1      21.439   5.091  51.509  1.00  0.00     0.077 A 
HETATM   15  C18 UNL     1      22.571   4.778  52.415  1.00  0.00    -0.015 A 
HETATM   16  C19 UNL     1      23.650   5.498  52.152  1.00  0.00    -0.001 A 
HETATM   17  C20 UNL     1      23.251   6.351  51.004  1.00  0.00     0.027 A 
HETATM   18  C21 UNL     1      21.970   6.116  50.623  1.00  0.00     0.032 A 
HETATM   19  H4  UNL     1      22.190   6.032  47.769  1.00  0.00     0.161 HD
ENDROOT
BRANCH  13  20
HETATM   20  C10 UNL     1      20.780   2.850  52.011  1.00  0.00     0.231 C 
HETATM   21  O1  UNL     1      20.128   3.076  53.059  1.00  0.00    -0.272 OA
HETATM   22  N3  UNL     1      21.492   1.657  51.873  1.00  0.00    -0.327 N 
HETATM   23  H12 UNL     1      21.981   1.611  50.957  1.00  0.00     0.169 HD
BRANCH  22  24
HETATM   24  C11 UNL     1      21.618   0.576  52.774  1.00  0.00     0.034 A 
HETATM   25  C12 UNL     1      22.849   0.298  53.317  1.00  0.00     0.029 A 
HETATM   26  C13 UNL     1      23.058  -0.733  54.200  1.00  0.00     0.002 A 
HETATM   27  C14 UNL     1      22.022  -1.548  54.589  1.00  0.00     0.000 A 
HETATM   28  C15 UNL     1      20.783  -1.311  54.078  1.00  0.00     0.002 A 
HETATM   29  C16 UNL     1      20.618  -0.267  53.195  1.00  0.00     0.029 A 
ENDBRANCH  22  24
ENDBRANCH  13  20
TORSDOF 2
ENDMDL
MODEL 6
REMARK VINA RESULT:      -8.3      2.881      6.787
REMARK  2 active torsions:
REMARK  status: ('A' for Active; 'I' for Inactive)
REMARK    1  A    between atoms: C9_13  and  C10_14 
REMARK       I    between atoms: C10_14  and  N3_16 
REMARK    2  A    between atoms: N3_16  and  C11_17 
ROOT
HETATM    1  C1  UNL     1      25.292   2.855  53.501  1.00  0.00     0.172 C 
HETATM    2  N1  UNL     1      24.595   2.524  52.269  1.00  0.00    -0.310 N 
HETATM    3  N2  UNL     1      25.224   3.055  51.142  1.00  0.00    -0.167 NA
HETATM    4  S1  UNL     1      24.825   4.763  51.011  1.00  0.00     0.010 SA
HETATM    5  S2  UNL     1      22.773   5.094  51.491  1.00  0.00    -0.075 SA
HETATM    6  C2  UNL     1      21.744   4.945  50.003  1.00  0.00     0.126 C 
HETATM    7  C3  UNL     1      21.791   3.528  49.484  1.00  0.00    -0.041 A 
HETATM    8  C4  UNL     1      22.121   3.272  48.169  1.00  0.00     0.008 A 
HETATM    9  C5  UNL     1      22.201   2.021  47.589  1.00  0.00     0.001 A 
HETATM   10  C6  UNL     1      21.923   0.943  48.408  1.00  0.00     0.001 A 
HETATM   11  C7  UNL     1      21.589   1.177  49.734  1.00  0.00     0.008 A 
HETATM   12  C8  UNL     1      21.512   2.432  50.301  1.00  0.00    -0.037 A 
HETATM   13  C9  UNL     1      21.132   2.420  51.707  1.00  0.00     0.125 C 
HETATM   14  C17 UNL     1      21.975   1.715  52.672  1.00  0.00     0.077 A 
HETATM   15  C18 UNL     1      21.632   0.290  52.908  1.00  0.00    -0.015 A 
HETATM   16  C19 UNL     1      22.695  -0.498  52.907  1.00  0.00    -0.001 A 
HETATM   17  C20 UNL     1      23.833   0.421  52.655  1.00  0.00     0.027 A 
HETATM   18  C21 UNL     1      23.421   1.706  52.513  1.00  0.00     0.032 A 
HETATM   19  H4  UNL     1      24.945   2.588  50.254  1.00  0.00     0.161 HD
ENDROOT
BRANCH  13  20
HETATM   20  C10 UNL     1      19.744   1.824  51.824  1.00  0.00     0.231 C 
HETATM   21  O1  UNL     1      18.867   2.575  52.317  1.00  0.00    -0.272 OA
HETATM   22  N3  UNL     1      19.411   0.528  51.425  1.00  0.00    -0.327 N 
HETATM   23  H12 UNL     1      20.235   0.027  51.039  1.00  0.00     0.169 HD
BRANCH  22  24
HETATM   24  C11 UNL     1      18.166  -0.138  51.482  1.00  0.00     0.034 A 
HETATM   25  C12 UNL     1      17.872  -0.912  52.580  1.00  0.00     0.029 A 
HETATM   26  C13 UNL     1      16.686  -1.591  52.714  1.00  0.00     0.002 A 
HETATM   27  C14 UNL     1      15.721  -1.525  51.738  1.00  0.00     0.000 A 
HETATM   28  C15 UNL     1      15.967  -0.770  50.633  1.00  0.00     0.002 A 
HETATM   29  C16 UNL     1      17.169  -0.105  50.538  1.00  0.00     0.029 A 
ENDBRANCH  22  24
ENDBRANCH  13  20
TORSDOF 2
ENDMDL
MODEL 7
REMARK VINA RESULT:      -7.9      3.934      6.675
REMARK  2 active torsions:
REMARK  status: ('A' for Active; 'I' for Inactive)
REMARK    1  A    between atoms: C9_13  and  C10_14 
REMARK       I    between atoms: C10_14  and  N3_16 
REMARK    2  A    between atoms: N3_16  and  C11_17 
ROOT
HETATM    1  C1  UNL     1      23.587   7.962  50.741  1.00  0.00     0.172 C 
HETATM    2  N1  UNL     1      23.354   6.696  50.066  1.00  0.00    -0.310 N 
HETATM    3  N2  UNL     1      23.653   6.756  48.704  1.00  0.00    -0.167 NA
HETATM    4  S1  UNL     1      22.328   7.547  47.860  1.00  0.00     0.010 SA
HETATM    5  S2  UNL     1      20.449   6.901  48.636  1.00  0.00    -0.075 SA
HETATM    6  C2  UNL     1      19.870   5.428  47.747  1.00  0.00     0.126 C 
HETATM    7  C3  UNL     1      20.806   4.272  48.001  1.00  0.00    -0.041 A 
HETATM    8  C4  UNL     1      21.356   3.568  46.949  1.00  0.00     0.008 A 
HETATM    9  C5  UNL     1      22.225   2.501  47.063  1.00  0.00     0.001 A 
HETATM   10  C6  UNL     1      22.566   2.117  48.347  1.00  0.00     0.001 A 
HETATM   11  C7  UNL     1      22.025   2.810  49.419  1.00  0.00     0.008 A 
HETATM   12  C8  UNL     1      21.156   3.874  49.292  1.00  0.00    -0.037 A 
HETATM   13  C9  UNL     1      20.718   4.432  50.565  1.00  0.00     0.125 C 
HETATM   14  C17 UNL     1      21.713   4.975  51.490  1.00  0.00     0.077 A 
HETATM   15  C18 UNL     1      22.266   4.016  52.478  1.00  0.00    -0.015 A 
HETATM   16  C19 UNL     1      23.583   4.096  52.584  1.00  0.00    -0.001 A 
HETATM   17  C20 UNL     1      23.965   5.160  51.622  1.00  0.00     0.027 A 
HETATM   18  C21 UNL     1      22.884   5.671  50.980  1.00  0.00     0.032 A 
HETATM   19  H4  UNL     1      23.799   5.820  48.271  1.00  0.00     0.161 HD
ENDROOT
BRANCH  13  20
HETATM   20  C10 UNL     1      19.958   3.362  51.322  1.00  0.00     0.231 C 
HETATM   21  O1  UNL     1      19.123   3.777  52.161  1.00  0.00    -0.272 OA
HETATM   22  N3  UNL     1      20.140   1.990  51.134  1.00  0.00    -0.327 N 
HETATM   23  H12 UNL     1      20.862   1.799  50.410  1.00  0.00     0.169 HD
BRANCH  22  24
HETATM   24  C11 UNL     1      19.500   0.903  51.771  1.00  0.00     0.034 A 
HETATM   25  C12 UNL     1      18.255   0.515  51.339  1.00  0.00     0.029 A 
HETATM   26  C13 UNL     1      17.564  -0.530  51.902  1.00  0.00     0.002 A 
HETATM   27  C14 UNL     1      18.101  -1.249  52.943  1.00  0.00     0.000 A 
HETATM   28  C15 UNL     1      19.333  -0.902  53.405  1.00  0.00     0.002 A 
HETATM   29  C16 UNL     1      19.990   0.153  52.812  1.00  0.00     0.029 A 
ENDBRANCH  22  24
ENDBRANCH  13  20
TORSDOF 2
ENDMDL
MODEL 8
REMARK VINA RESULT:      -7.8      9.448     10.995
REMARK  2 active torsions:
REMARK  status: ('A' for Active; 'I' for Inactive)
REMARK    1  A    between atoms: C9_13  and  C10_14 
REMARK       I    between atoms: C10_14  and  N3_16 
REMARK    2  A    between atoms: N3_16  and  C11_17 
ROOT
HETATM    1  C1  UNL     1      26.016   8.712  45.422  1.00  0.00     0.172 C 
HETATM    2  N1  UNL     1      27.034   9.186  46.345  1.00  0.00    -0.310 N 
HETATM    3  N2  UNL     1      26.964  10.564  46.554  1.00  0.00    -0.167 NA
HETATM    4  S1  UNL     1      27.698  11.391  45.186  1.00  0.00     0.010 SA
HETATM    5  S2  UNL     1      29.463  10.374  44.552  1.00  0.00    -0.075 SA
HETATM    6  C2  UNL     1      30.911  11.000  45.449  1.00  0.00     0.126 C 
HETATM    7  C3  UNL     1      30.788  10.672  46.917  1.00  0.00    -0.041 A 
HETATM    8  C4  UNL     1      30.911  11.662  47.872  1.00  0.00     0.008 A 
HETATM    9  C5  UNL     1      30.812  11.479  49.237  1.00  0.00     0.001 A 
HETATM   10  C6  UNL     1      30.568  10.190  49.670  1.00  0.00     0.001 A 
HETATM   11  C7  UNL     1      30.440   9.179  48.729  1.00  0.00     0.008 A 
HETATM   12  C8  UNL     1      30.543   9.374  47.367  1.00  0.00    -0.037 A 
HETATM   13  C9  UNL     1      30.382   8.157  46.584  1.00  0.00     0.125 C 
HETATM   14  C17 UNL     1      29.131   7.404  46.677  1.00  0.00     0.077 A 
HETATM   15  C18 UNL     1      29.092   6.346  47.717  1.00  0.00    -0.015 A 
HETATM   16  C19 UNL     1      27.973   6.366  48.423  1.00  0.00    -0.001 A 
HETATM   17  C20 UNL     1      27.196   7.494  47.849  1.00  0.00     0.027 A 
HETATM   18  C21 UNL     1      27.865   8.103  46.838  1.00  0.00     0.032 A 
HETATM   19  H4  UNL     1      27.452  10.876  47.420  1.00  0.00     0.161 HD
ENDROOT
BRANCH  13  20
HETATM   20  C10 UNL     1      31.496   7.198  46.952  1.00  0.00     0.231 C 
HETATM   21  O1  UNL     1      32.186   7.522  47.949  1.00  0.00    -0.272 OA
HETATM   22  N3  UNL     1      31.777   6.019  46.259  1.00  0.00    -0.327 N 
HETATM   23  H12 UNL     1      31.126   5.885  45.460  1.00  0.00     0.169 HD
BRANCH  22  24
HETATM   24  C11 UNL     1      32.778   5.052  46.500  1.00  0.00     0.034 A 
HETATM   25  C12 UNL     1      32.502   3.999  47.339  1.00  0.00     0.029 A 
HETATM   26  C13 UNL     1      33.417   3.016  47.626  1.00  0.00     0.002 A 
HETATM   27  C14 UNL     1      34.675   3.043  47.075  1.00  0.00     0.000 A 
HETATM   28  C15 UNL     1      34.996   4.066  46.237  1.00  0.00     0.002 A 
HETATM   29  C16 UNL     1      34.048   5.031  45.976  1.00  0.00     0.029 A 
ENDBRANCH  22  24
ENDBRANCH  13  20
TORSDOF 2
ENDMDL
MODEL 9
REMARK VINA RESULT:      -7.7      9.466     11.933
REMARK  2 active torsions:
REMARK  status: ('A' for Active; 'I' for Inactive)
REMARK    1  A    between atoms: C9_13  and  C10_14 
REMARK       I    between atoms: C10_14  and  N3_16 
REMARK    2  A    between atoms: N3_16  and  C11_17 
ROOT
HETATM    1  C1  UNL     1      30.325  13.322  45.516  1.00  0.00     0.172 C 
HETATM    2  N1  UNL     1      30.751  12.193  46.325  1.00  0.00    -0.310 N 
HETATM    3  N2  UNL     1      32.139  12.043  46.342  1.00  0.00    -0.167 NA
HETATM    4  S1  UNL     1      32.652  11.273  44.845  1.00  0.00     0.010 SA
HETATM    5  S2  UNL     1      31.297   9.721  44.295  1.00  0.00    -0.075 SA
HETATM    6  C2  UNL     1      31.802   8.146  45.043  1.00  0.00     0.126 C 
HETATM    7  C3  UNL     1      31.694   8.231  46.546  1.00  0.00    -0.041 A 
HETATM    8  C4  UNL     1      32.770   7.906  47.347  1.00  0.00     0.008 A 
HETATM    9  C5  UNL     1      32.788   7.953  48.727  1.00  0.00     0.001 A 
HETATM   10  C6  UNL     1      31.621   8.362  49.345  1.00  0.00     0.001 A 
HETATM   11  C7  UNL     1      30.527   8.694  48.560  1.00  0.00     0.008 A 
HETATM   12  C8  UNL     1      30.522   8.642  47.181  1.00  0.00    -0.037 A 
HETATM   13  C9  UNL     1      29.251   9.029  46.582  1.00  0.00     0.125 C 
HETATM   14  C17 UNL     1      28.723  10.371  46.826  1.00  0.00     0.077 A 
HETATM   15  C18 UNL     1      27.832  10.508  48.004  1.00  0.00    -0.015 A 
HETATM   16  C19 UNL     1      28.119  11.569  48.741  1.00  0.00    -0.001 A 
HETATM   17  C20 UNL     1      29.269  12.200  48.044  1.00  0.00     0.027 A 
HETATM   18  C21 UNL     1      29.627  11.506  46.934  1.00  0.00     0.032 A 
HETATM   19  H4  UNL     1      32.483  11.465  47.137  1.00  0.00     0.161 HD
ENDROOT
BRANCH  13  20
HETATM   20  C10 UNL     1      28.188   8.052  47.039  1.00  0.00     0.231 C 
HETATM   21  O1  UNL     1      27.135   8.033  46.356  1.00  0.00    -0.272 OA
HETATM   22  N3  UNL     1      28.322   7.208  48.143  1.00  0.00    -0.327 N 
HETATM   23  H12 UNL     1      29.242   7.336  48.609  1.00  0.00     0.169 HD
BRANCH  22  24
HETATM   24  C11 UNL     1      27.411   6.262  48.667  1.00  0.00     0.034 A 
HETATM   25  C12 UNL     1      27.735   4.927  48.622  1.00  0.00     0.029 A 
HETATM   26  C13 UNL     1      26.908   3.944  49.109  1.00  0.00     0.002 A 
HETATM   27  C14 UNL     1      25.697   4.260  49.675  1.00  0.00     0.000 A 
HETATM   28  C15 UNL     1      25.333   5.569  49.743  1.00  0.00     0.002 A 
HETATM   29  C16 UNL     1      26.192   6.523  49.243  1.00  0.00     0.029 A 
ENDBRANCH  22  24
ENDBRANCH  13  20
TORSDOF 2
ENDMDL
