MODEL 1
REMARK VINA RESULT:      -8.9      0.000      0.000
REMARK  4 active torsions:
REMARK  status: ('A' for Active; 'I' for Inactive)
REMARK    1  A    between atoms: C5_6  and  C6_7 
REMARK    2  A    between atoms: C6_7  and  O1_8 
REMARK    3  A    between atoms: O1_8  and  C7_9 
REMARK    4  A    between atoms: C10_12  and  N1_13 
ROOT
HETATM    1  C7  UNL     1      22.341   0.678  53.179  1.00  0.00     0.091 A 
HETATM    2  C8  UNL     1      23.164   1.285  52.256  1.00  0.00     0.041 A 
HETATM    3  C9  UNL     1      24.503   0.905  52.105  1.00  0.00     0.032 A 
HETATM    4  C10 UNL     1      25.030  -0.091  52.882  1.00  0.00     0.034 A 
HETATM    5  C16 UNL     1      24.171  -0.667  53.788  1.00  0.00     0.056 A 
HETATM    6  C17 UNL     1      22.851  -0.325  53.970  1.00  0.00     0.069 A 
HETATM    7 CL1  UNL     1      21.852  -1.116  55.144  1.00  0.00    -0.081 Cl
ENDROOT
BRANCH   4   8
HETATM    8  N1  UNL     1      26.393  -0.421  52.664  1.00  0.00    -0.344 N 
HETATM    9  C11 UNL     1      26.700  -1.862  52.605  1.00  0.00     0.267 C 
HETATM   10  N2  UNL     1      28.051  -2.148  53.053  1.00  0.00    -0.295 N 
HETATM   11  N3  UNL     1      28.599  -1.180  53.904  1.00  0.00    -0.180 NA
HETATM   12  H10 UNL     1      28.487  -3.028  52.711  1.00  0.00     0.184 HD
HETATM   13  C12 UNL     1      28.431   0.087  53.703  1.00  0.00     0.088 A 
HETATM   14  C13 UNL     1      28.876   1.268  54.409  1.00  0.00     0.039 A 
HETATM   15  C15 UNL     1      27.594   0.304  52.468  1.00  0.00     0.206 A 
HETATM   16  C14 UNL     1      28.460   2.401  53.867  1.00  0.00     0.049 A 
HETATM   17  S1  UNL     1      27.466   2.091  52.408  1.00  0.00    -0.109 SA
ENDBRANCH   4   8
BRANCH   1  18
HETATM   18  O1  UNL     1      21.003   1.037  53.349  1.00  0.00    -0.345 OA
BRANCH  18  19
HETATM   19  C6  UNL     1      20.188   1.052  52.193  1.00  0.00     0.214 C 
BRANCH  19  20
HETATM   20  C5  UNL     1      19.049   0.107  52.356  1.00  0.00    -0.031 A 
HETATM   21  C4  UNL     1      17.982   0.329  51.498  1.00  0.00     0.009 A 
HETATM   22  C3  UNL     1      16.881  -0.500  51.578  1.00  0.00     0.004 A 
HETATM   23  C2  UNL     1      16.838  -1.534  52.497  1.00  0.00     0.042 A 
HETATM   24  C1  UNL     1      17.904  -1.751  53.349  1.00  0.00     0.117 A 
HETATM   25  F1  UNL     1      17.874  -2.760  54.253  1.00  0.00    -0.206 F 
HETATM   26  C18 UNL     1      18.993  -0.918  53.257  1.00  0.00     0.051 A 
ENDBRANCH  19  20
ENDBRANCH  18  19
ENDBRANCH   1  18
TORSDOF 4
ENDMDL
MODEL 2
REMARK VINA RESULT:      -8.8      4.637      8.453
REMARK  4 active torsions:
REMARK  status: ('A' for Active; 'I' for Inactive)
REMARK    1  A    between atoms: C5_6  and  C6_7 
REMARK    2  A    between atoms: C6_7  and  O1_8 
REMARK    3  A    between atoms: O1_8  and  C7_9 
REMARK    4  A    between atoms: C10_12  and  N1_13 
ROOT
HETATM    1  C7  UNL     1      26.007   2.658  51.651  1.00  0.00     0.091 A 
HETATM    2  C8  UNL     1      25.002   2.376  52.551  1.00  0.00     0.041 A 
HETATM    3  C9  UNL     1      23.654   2.575  52.231  1.00  0.00     0.032 A 
HETATM    4  C10 UNL     1      23.300   3.061  51.001  1.00  0.00     0.034 A 
HETATM    5  C16 UNL     1      24.336   3.327  50.138  1.00  0.00     0.056 A 
HETATM    6  C17 UNL     1      25.673   3.147  50.410  1.00  0.00     0.069 A 
HETATM    7 CL1  UNL     1      26.903   3.514  49.247  1.00  0.00    -0.081 Cl
ENDROOT
BRANCH   4   8
HETATM    8  N1  UNL     1      21.913   3.229  50.752  1.00  0.00    -0.344 N 
HETATM    9  C11 UNL     1      21.432   4.623  50.727  1.00  0.00     0.267 C 
HETATM   10  N2  UNL     1      20.045   4.725  51.141  1.00  0.00    -0.295 N 
HETATM   11  N3  UNL     1      19.598   3.669  51.946  1.00  0.00    -0.180 NA
HETATM   12  H10 UNL     1      19.512   5.556  50.813  1.00  0.00     0.184 HD
HETATM   13  C12 UNL     1      19.926   2.440  51.713  1.00  0.00     0.088 A 
HETATM   14  C13 UNL     1      19.612   1.190  52.368  1.00  0.00     0.039 A 
HETATM   15  C15 UNL     1      20.817   2.369  50.497  1.00  0.00     0.206 A 
HETATM   16  C14 UNL     1      20.179   0.136  51.805  1.00  0.00     0.049 A 
HETATM   17  S1  UNL     1      21.166   0.614  50.388  1.00  0.00    -0.109 SA
ENDBRANCH   4   8
BRANCH   1  18
HETATM   18  O1  UNL     1      27.358   2.468  51.945  1.00  0.00    -0.345 OA
BRANCH  18  19
HETATM   19  C6  UNL     1      27.679   2.041  53.254  1.00  0.00     0.214 C 
BRANCH  19  20
HETATM   20  C5  UNL     1      28.153   0.630  53.233  1.00  0.00    -0.031 A 
HETATM   21  C4  UNL     1      29.459   0.448  53.662  1.00  0.00     0.009 A 
HETATM   22  C3  UNL     1      29.983  -0.829  53.674  1.00  0.00     0.004 A 
HETATM   23  C2  UNL     1      29.223  -1.911  53.268  1.00  0.00     0.042 A 
HETATM   24  C1  UNL     1      27.922  -1.725  52.841  1.00  0.00     0.117 A 
HETATM   25  F1  UNL     1      27.166  -2.776  52.440  1.00  0.00    -0.206 F 
HETATM   26  C18 UNL     1      27.413  -0.448  52.834  1.00  0.00     0.051 A 
ENDBRANCH  19  20
ENDBRANCH  18  19
ENDBRANCH   1  18
TORSDOF 4
ENDMDL
MODEL 3
REMARK VINA RESULT:      -8.7      1.593      2.102
REMARK  4 active torsions:
REMARK  status: ('A' for Active; 'I' for Inactive)
REMARK    1  A    between atoms: C5_6  and  C6_7 
REMARK    2  A    between atoms: C6_7  and  O1_8 
REMARK    3  A    between atoms: O1_8  and  C7_9 
REMARK    4  A    between atoms: C10_12  and  N1_13 
ROOT
HETATM    1  C7  UNL     1      22.423   0.329  53.638  1.00  0.00     0.091 A 
HETATM    2  C8  UNL     1      23.129  -0.695  54.230  1.00  0.00     0.041 A 
HETATM    3  C9  UNL     1      24.470  -0.942  53.911  1.00  0.00     0.032 A 
HETATM    4  C10 UNL     1      25.117  -0.161  52.993  1.00  0.00     0.034 A 
HETATM    5  C16 UNL     1      24.372   0.849  52.430  1.00  0.00     0.056 A 
HETATM    6  C17 UNL     1      23.054   1.127  52.712  1.00  0.00     0.069 A 
HETATM    7 CL1  UNL     1      22.206   2.427  51.944  1.00  0.00    -0.081 Cl
ENDROOT
BRANCH   4   8
HETATM    8  N1  UNL     1      26.476  -0.471  52.730  1.00  0.00    -0.344 N 
HETATM    9  C11 UNL     1      26.802  -1.907  52.657  1.00  0.00     0.267 C 
HETATM   10  N2  UNL     1      28.171  -2.173  53.059  1.00  0.00    -0.295 N 
HETATM   11  N3  UNL     1      28.733  -1.198  53.894  1.00  0.00    -0.180 NA
HETATM   12  H10 UNL     1      28.609  -3.047  52.702  1.00  0.00     0.184 HD
HETATM   13  C12 UNL     1      28.541   0.066  53.701  1.00  0.00     0.088 A 
HETATM   14  C13 UNL     1      28.991   1.252  54.393  1.00  0.00     0.039 A 
HETATM   15  C15 UNL     1      27.659   0.272  52.494  1.00  0.00     0.206 A 
HETATM   16  C14 UNL     1      28.541   2.379  53.867  1.00  0.00     0.049 A 
HETATM   17  S1  UNL     1      27.503   2.057  52.442  1.00  0.00    -0.109 SA
ENDBRANCH   4   8
BRANCH   1  18
HETATM   18  O1  UNL     1      21.087   0.597  53.937  1.00  0.00    -0.345 OA
BRANCH  18  19
HETATM   19  C6  UNL     1      20.218  -0.513  54.051  1.00  0.00     0.214 C 
BRANCH  19  20
HETATM   20  C5  UNL     1      19.181  -0.466  52.983  1.00  0.00    -0.031 A 
HETATM   21  C4  UNL     1      18.025  -1.180  53.262  1.00  0.00     0.009 A 
HETATM   22  C3  UNL     1      17.010  -1.192  52.328  1.00  0.00     0.004 A 
HETATM   23  C2  UNL     1      17.138  -0.506  51.133  1.00  0.00     0.042 A 
HETATM   24  C1  UNL     1      18.291   0.204  50.860  1.00  0.00     0.117 A 
HETATM   25  F1  UNL     1      18.430   0.881  49.693  1.00  0.00    -0.206 F 
HETATM   26  C18 UNL     1      19.294   0.207  51.800  1.00  0.00     0.051 A 
ENDBRANCH  19  20
ENDBRANCH  18  19
ENDBRANCH   1  18
TORSDOF 4
ENDMDL
MODEL 4
REMARK VINA RESULT:      -8.6      5.285      8.631
REMARK  4 active torsions:
REMARK  status: ('A' for Active; 'I' for Inactive)
REMARK    1  A    between atoms: C5_6  and  C6_7 
REMARK    2  A    between atoms: C6_7  and  O1_8 
REMARK    3  A    between atoms: O1_8  and  C7_9 
REMARK    4  A    between atoms: C10_12  and  N1_13 
ROOT
HETATM    1  C7  UNL     1      25.886   2.458  51.199  1.00  0.00     0.091 A 
HETATM    2  C8  UNL     1      24.825   1.854  51.837  1.00  0.00     0.041 A 
HETATM    3  C9  UNL     1      23.516   1.973  51.357  1.00  0.00     0.032 A 
HETATM    4  C10 UNL     1      23.257   2.702  50.227  1.00  0.00     0.034 A 
HETATM    5  C16 UNL     1      24.347   3.286  49.625  1.00  0.00     0.056 A 
HETATM    6  C17 UNL     1      25.649   3.196  50.062  1.00  0.00     0.069 A 
HETATM    7 CL1  UNL     1      26.952   3.973  49.227  1.00  0.00    -0.081 Cl
ENDROOT
BRANCH   4   8
HETATM    8  N1  UNL     1      21.906   2.769  49.801  1.00  0.00    -0.344 N 
HETATM    9  C11 UNL     1      21.389   1.568  49.120  1.00  0.00     0.267 C 
HETATM   10  N2  UNL     1      20.347   1.893  48.163  1.00  0.00    -0.295 N 
HETATM   11  N3  UNL     1      20.384   3.210  47.687  1.00  0.00    -0.180 NA
HETATM   12  H10 UNL     1      19.677   1.136  47.917  1.00  0.00     0.184 HD
HETATM   13  C12 UNL     1      20.636   4.215  48.462  1.00  0.00     0.088 A 
HETATM   14  C13 UNL     1      20.733   5.639  48.236  1.00  0.00     0.039 A 
HETATM   15  C15 UNL     1      20.866   3.729  49.872  1.00  0.00     0.206 A 
HETATM   16  C14 UNL     1      21.034   6.332  49.321  1.00  0.00     0.049 A 
HETATM   17  S1  UNL     1      21.225   5.255  50.742  1.00  0.00    -0.109 SA
ENDBRANCH   4   8
BRANCH   1  18
HETATM   18  O1  UNL     1      27.200   2.356  51.657  1.00  0.00    -0.345 OA
BRANCH  18  19
HETATM   19  C6  UNL     1      27.384   1.995  53.012  1.00  0.00     0.214 C 
BRANCH  19  20
HETATM   20  C5  UNL     1      28.011   0.647  53.104  1.00  0.00    -0.031 A 
HETATM   21  C4  UNL     1      29.316   0.644  53.573  1.00  0.00     0.009 A 
HETATM   22  C3  UNL     1      29.977  -0.562  53.691  1.00  0.00     0.004 A 
HETATM   23  C2  UNL     1      29.352  -1.749  53.349  1.00  0.00     0.042 A 
HETATM   24  C1  UNL     1      28.052  -1.740  52.882  1.00  0.00     0.117 A 
HETATM   25  F1  UNL     1      27.429  -2.895  52.544  1.00  0.00    -0.206 F 
HETATM   26  C18 UNL     1      27.406  -0.532  52.770  1.00  0.00     0.051 A 
ENDBRANCH  19  20
ENDBRANCH  18  19
ENDBRANCH   1  18
TORSDOF 4
ENDMDL
MODEL 5
REMARK VINA RESULT:      -8.5      4.556      8.159
REMARK  4 active torsions:
REMARK  status: ('A' for Active; 'I' for Inactive)
REMARK    1  A    between atoms: C5_6  and  C6_7 
REMARK    2  A    between atoms: C6_7  and  O1_8 
REMARK    3  A    between atoms: O1_8  and  C7_9 
REMARK    4  A    between atoms: C10_12  and  N1_13 
ROOT
HETATM    1  C7  UNL     1      24.128   0.393  53.077  1.00  0.00     0.091 A 
HETATM    2  C8  UNL     1      24.400   1.234  52.021  1.00  0.00     0.041 A 
HETATM    3  C9  UNL     1      23.377   1.783  51.238  1.00  0.00     0.032 A 
HETATM    4  C10 UNL     1      22.067   1.491  51.508  1.00  0.00     0.034 A 
HETATM    5  C16 UNL     1      21.846   0.647  52.571  1.00  0.00     0.056 A 
HETATM    6  C17 UNL     1      22.819   0.086  53.366  1.00  0.00     0.069 A 
HETATM    7 CL1  UNL     1      22.430  -0.968  54.685  1.00  0.00    -0.081 Cl
ENDROOT
BRANCH   4   8
HETATM    8  N1  UNL     1      21.090   2.090  50.673  1.00  0.00    -0.344 N 
HETATM    9  C11 UNL     1      20.282   1.160  49.864  1.00  0.00     0.267 C 
HETATM   10  N2  UNL     1      19.835   1.768  48.624  1.00  0.00    -0.295 N 
HETATM   11  N3  UNL     1      20.622   2.840  48.183  1.00  0.00    -0.180 NA
HETATM   12  H10 UNL     1      18.986   1.364  48.177  1.00  0.00     0.184 HD
HETATM   13  C12 UNL     1      21.090   3.730  48.997  1.00  0.00     0.088 A 
HETATM   14  C13 UNL     1      21.907   4.907  48.812  1.00  0.00     0.039 A 
HETATM   15  C15 UNL     1      20.656   3.413  50.407  1.00  0.00     0.206 A 
HETATM   16  C14 UNL     1      22.181   5.548  49.936  1.00  0.00     0.049 A 
HETATM   17  S1  UNL     1      21.433   4.729  51.345  1.00  0.00    -0.109 SA
ENDBRANCH   4   8
BRANCH   1  18
HETATM   18  O1  UNL     1      25.128  -0.167  53.873  1.00  0.00    -0.345 OA
BRANCH  18  19
HETATM   19  C6  UNL     1      26.052  -1.028  53.236  1.00  0.00     0.214 C 
BRANCH  19  20
HETATM   20  C5  UNL     1      27.441  -0.528  53.431  1.00  0.00    -0.031 A 
HETATM   21  C4  UNL     1      28.434  -1.471  53.217  1.00  0.00     0.009 A 
HETATM   22  C3  UNL     1      29.753  -1.095  53.376  1.00  0.00     0.004 A 
HETATM   23  C2  UNL     1      30.082   0.198  53.743  1.00  0.00     0.042 A 
HETATM   24  C1  UNL     1      29.088   1.134  53.956  1.00  0.00     0.117 A 
HETATM   25  F1  UNL     1      29.396   2.404  54.315  1.00  0.00    -0.206 F 
HETATM   26  C18 UNL     1      27.779   0.745  53.793  1.00  0.00     0.051 A 
ENDBRANCH  19  20
ENDBRANCH  18  19
ENDBRANCH   1  18
TORSDOF 4
ENDMDL
MODEL 6
REMARK VINA RESULT:      -8.3      4.857      7.969
REMARK  4 active torsions:
REMARK  status: ('A' for Active; 'I' for Inactive)
REMARK    1  A    between atoms: C5_6  and  C6_7 
REMARK    2  A    between atoms: C6_7  and  O1_8 
REMARK    3  A    between atoms: O1_8  and  C7_9 
REMARK    4  A    between atoms: C10_12  and  N1_13 
ROOT
HETATM    1  C7  UNL     1      23.603   0.849  52.461  1.00  0.00     0.091 A 
HETATM    2  C8  UNL     1      24.545   1.491  51.688  1.00  0.00     0.041 A 
HETATM    3  C9  UNL     1      24.309   2.760  51.148  1.00  0.00     0.032 A 
HETATM    4  C10 UNL     1      23.120   3.400  51.379  1.00  0.00     0.034 A 
HETATM    5  C16 UNL     1      22.212   2.720  52.156  1.00  0.00     0.056 A 
HETATM    6  C17 UNL     1      22.401   1.473  52.706  1.00  0.00     0.069 A 
HETATM    7 CL1  UNL     1      21.188   0.703  53.672  1.00  0.00    -0.081 Cl
ENDROOT
BRANCH   4   8
HETATM    8  N1  UNL     1      22.960   4.686  50.802  1.00  0.00    -0.344 N 
HETATM    9  C11 UNL     1      23.664   5.786  51.486  1.00  0.00     0.267 C 
HETATM   10  N2  UNL     1      22.979   7.055  51.319  1.00  0.00    -0.295 N 
HETATM   11  N3  UNL     1      21.611   6.945  51.036  1.00  0.00    -0.180 NA
HETATM   12  H10 UNL     1      23.549   7.919  51.422  1.00  0.00     0.184 HD
HETATM   13  C12 UNL     1      21.146   6.053  50.222  1.00  0.00     0.088 A 
HETATM   14  C13 UNL     1      19.814   5.730  49.765  1.00  0.00     0.039 A 
HETATM   15  C15 UNL     1      22.278   5.216  49.679  1.00  0.00     0.206 A 
HETATM   16  C14 UNL     1      19.772   4.708  48.925  1.00  0.00     0.049 A 
HETATM   17  S1  UNL     1      21.413   4.051  48.626  1.00  0.00    -0.109 SA
ENDBRANCH   4   8
BRANCH   1  18
HETATM   18  O1  UNL     1      23.812  -0.416  53.011  1.00  0.00    -0.345 OA
BRANCH  18  19
HETATM   19  C6  UNL     1      24.474  -0.474  54.261  1.00  0.00     0.214 C 
BRANCH  19  20
HETATM   20  C5  UNL     1      25.949  -0.493  54.061  1.00  0.00    -0.031 A 
HETATM   21  C4  UNL     1      26.391  -1.360  53.074  1.00  0.00     0.009 A 
HETATM   22  C3  UNL     1      27.746  -1.444  52.820  1.00  0.00     0.004 A 
HETATM   23  C2  UNL     1      28.649  -0.678  53.536  1.00  0.00     0.042 A 
HETATM   24  C1  UNL     1      28.203   0.185  54.519  1.00  0.00     0.117 A 
HETATM   25  F1  UNL     1      29.078   0.940  55.227  1.00  0.00    -0.206 F 
HETATM   26  C18 UNL     1      26.852   0.258  54.760  1.00  0.00     0.051 A 
ENDBRANCH  19  20
ENDBRANCH  18  19
ENDBRANCH   1  18
TORSDOF 4
ENDMDL
MODEL 7
REMARK VINA RESULT:      -8.3      4.870      7.027
REMARK  4 active torsions:
REMARK  status: ('A' for Active; 'I' for Inactive)
REMARK    1  A    between atoms: C5_6  and  C6_7 
REMARK    2  A    between atoms: C6_7  and  O1_8 
REMARK    3  A    between atoms: O1_8  and  C7_9 
REMARK    4  A    between atoms: C10_12  and  N1_13 
ROOT
HETATM    1  C7  UNL     1      23.389   3.804  51.300  1.00  0.00     0.091 A 
HETATM    2  C8  UNL     1      23.864   3.742  52.591  1.00  0.00     0.041 A 
HETATM    3  C9  UNL     1      24.207   2.523  53.189  1.00  0.00     0.032 A 
HETATM    4  C10 UNL     1      24.075   1.351  52.493  1.00  0.00     0.034 A 
HETATM    5  C16 UNL     1      23.597   1.464  51.209  1.00  0.00     0.056 A 
HETATM    6  C17 UNL     1      23.248   2.638  50.583  1.00  0.00     0.069 A 
HETATM    7 CL1  UNL     1      22.654   2.669  48.956  1.00  0.00    -0.081 Cl
ENDROOT
BRANCH   4   8
HETATM    8  N1  UNL     1      24.449   0.159  53.166  1.00  0.00    -0.344 N 
HETATM    9  C11 UNL     1      23.401  -0.462  53.997  1.00  0.00     0.267 C 
HETATM   10  N2  UNL     1      23.961  -1.196  55.117  1.00  0.00    -0.295 N 
HETATM   11  N3  UNL     1      25.240  -0.777  55.506  1.00  0.00    -0.180 NA
HETATM   12  H10 UNL     1      23.377  -1.953  55.527  1.00  0.00     0.184 HD
HETATM   13  C12 UNL     1      26.156  -0.470  54.645  1.00  0.00     0.088 A 
HETATM   14  C13 UNL     1      27.523  -0.021  54.772  1.00  0.00     0.039 A 
HETATM   15  C15 UNL     1      25.618  -0.637  53.245  1.00  0.00     0.206 A 
HETATM   16  C14 UNL     1      28.121   0.203  53.614  1.00  0.00     0.049 A 
HETATM   17  S1  UNL     1      27.016  -0.133  52.243  1.00  0.00    -0.109 SA
ENDBRANCH   4   8
BRANCH   1  18
HETATM   18  O1  UNL     1      23.040   5.005  50.681  1.00  0.00    -0.345 OA
BRANCH  18  19
HETATM   19  C6  UNL     1      23.764   6.159  51.061  1.00  0.00     0.214 C 
BRANCH  19  20
HETATM   20  C5  UNL     1      24.993   6.293  50.231  1.00  0.00    -0.031 A 
HETATM   21  C4  UNL     1      25.446   7.593  50.068  1.00  0.00     0.009 A 
HETATM   22  C3  UNL     1      26.580   7.811  49.311  1.00  0.00     0.004 A 
HETATM   23  C2  UNL     1      27.255   6.755  48.725  1.00  0.00     0.042 A 
HETATM   24  C1  UNL     1      26.799   5.461  48.891  1.00  0.00     0.117 A 
HETATM   25  F1  UNL     1      27.451   4.418  48.322  1.00  0.00    -0.206 F 
HETATM   26  C18 UNL     1      25.669   5.259  49.647  1.00  0.00     0.051 A 
ENDBRANCH  19  20
ENDBRANCH  18  19
ENDBRANCH   1  18
TORSDOF 4
ENDMDL
MODEL 8
REMARK VINA RESULT:      -8.2      4.518      8.583
REMARK  4 active torsions:
REMARK  status: ('A' for Active; 'I' for Inactive)
REMARK    1  A    between atoms: C5_6  and  C6_7 
REMARK    2  A    between atoms: C6_7  and  O1_8 
REMARK    3  A    between atoms: O1_8  and  C7_9 
REMARK    4  A    between atoms: C10_12  and  N1_13 
ROOT
HETATM    1  C7  UNL     1      23.682   0.000  53.535  1.00  0.00     0.091 A 
HETATM    2  C8  UNL     1      22.634  -0.790  53.954  1.00  0.00     0.041 A 
HETATM    3  C9  UNL     1      21.320  -0.548  53.537  1.00  0.00     0.032 A 
HETATM    4  C10 UNL     1      21.043   0.493  52.693  1.00  0.00     0.034 A 
HETATM    5  C16 UNL     1      22.121   1.253  52.301  1.00  0.00     0.056 A 
HETATM    6  C17 UNL     1      23.426   1.052  52.686  1.00  0.00     0.069 A 
HETATM    7 CL1  UNL     1      24.712   2.072  52.133  1.00  0.00    -0.081 Cl
ENDROOT
BRANCH   4   8
HETATM    8  N1  UNL     1      19.688   0.668  52.312  1.00  0.00    -0.344 N 
HETATM    9  C11 UNL     1      18.818  -0.509  52.485  1.00  0.00     0.267 C 
HETATM   10  N2  UNL     1      17.730  -0.525  51.524  1.00  0.00    -0.295 N 
HETATM   11  N3  UNL     1      17.975   0.206  50.354  1.00  0.00    -0.180 NA
HETATM   12  H10 UNL     1      16.879  -1.068  51.779  1.00  0.00     0.184 HD
HETATM   13  C12 UNL     1      18.564   1.358  50.374  1.00  0.00     0.088 A 
HETATM   14  C13 UNL     1      18.930   2.299  49.341  1.00  0.00     0.039 A 
HETATM   15  C15 UNL     1      18.909   1.732  51.794  1.00  0.00     0.206 A 
HETATM   16  C14 UNL     1      19.548   3.376  49.796  1.00  0.00     0.049 A 
HETATM   17  S1  UNL     1      19.729   3.312  51.578  1.00  0.00    -0.109 SA
ENDBRANCH   4   8
BRANCH   1  18
HETATM   18  O1  UNL     1      25.000  -0.219  53.935  1.00  0.00    -0.345 OA
BRANCH  18  19
HETATM   19  C6  UNL     1      25.810  -1.005  53.083  1.00  0.00     0.214 C 
BRANCH  19  20
HETATM   20  C5  UNL     1      27.250  -0.719  53.333  1.00  0.00    -0.031 A 
HETATM   21  C4  UNL     1      28.112  -1.762  53.032  1.00  0.00     0.009 A 
HETATM   22  C3  UNL     1      29.466  -1.586  53.233  1.00  0.00     0.004 A 
HETATM   23  C2  UNL     1      29.959  -0.391  53.728  1.00  0.00     0.042 A 
HETATM   24  C1  UNL     1      29.095   0.646  54.027  1.00  0.00     0.117 A 
HETATM   25  F1  UNL     1      29.565   1.821  54.511  1.00  0.00    -0.206 F 
HETATM   26  C18 UNL     1      27.750   0.456  53.820  1.00  0.00     0.051 A 
ENDBRANCH  19  20
ENDBRANCH  18  19
ENDBRANCH   1  18
TORSDOF 4
ENDMDL
MODEL 9
REMARK VINA RESULT:      -8.1      7.165      9.015
REMARK  4 active torsions:
REMARK  status: ('A' for Active; 'I' for Inactive)
REMARK    1  A    between atoms: C5_6  and  C6_7 
REMARK    2  A    between atoms: C6_7  and  O1_8 
REMARK    3  A    between atoms: O1_8  and  C7_9 
REMARK    4  A    between atoms: C10_12  and  N1_13 
ROOT
HETATM    1  C7  UNL     1      26.089   4.426  49.693  1.00  0.00     0.091 A 
HETATM    2  C8  UNL     1      27.169   4.691  48.880  1.00  0.00     0.041 A 
HETATM    3  C9  UNL     1      27.520   6.000  48.529  1.00  0.00     0.032 A 
HETATM    4  C10 UNL     1      26.788   7.060  48.994  1.00  0.00     0.034 A 
HETATM    5  C16 UNL     1      25.720   6.746  49.802  1.00  0.00     0.056 A 
HETATM    6  C17 UNL     1      25.339   5.476  50.171  1.00  0.00     0.069 A 
HETATM    7 CL1  UNL     1      23.974   5.190  51.197  1.00  0.00    -0.081 Cl
ENDROOT
BRANCH   4   8
HETATM    8  N1  UNL     1      27.211   8.355  48.599  1.00  0.00    -0.344 N 
HETATM    9  C11 UNL     1      28.277   8.957  49.420  1.00  0.00     0.267 C 
HETATM   10  N2  UNL     1      28.197  10.407  49.434  1.00  0.00    -0.295 N 
HETATM   11  N3  UNL     1      26.926  10.922  49.151  1.00  0.00    -0.180 NA
HETATM   12  H10 UNL     1      29.072  10.928  49.649  1.00  0.00     0.184 HD
HETATM   13  C12 UNL     1      26.171  10.422  48.227  1.00  0.00     0.088 A 
HETATM   14  C13 UNL     1      24.850  10.753  47.742  1.00  0.00     0.039 A 
HETATM   15  C15 UNL     1      26.871   9.262  47.565  1.00  0.00     0.206 A 
HETATM   16  C14 UNL     1      24.425   9.961  46.772  1.00  0.00     0.049 A 
HETATM   17  S1  UNL     1      25.651   8.716  46.371  1.00  0.00    -0.109 SA
ENDBRANCH   4   8
BRANCH   1  18
HETATM   18  O1  UNL     1      25.718   3.131  50.057  1.00  0.00    -0.345 OA
BRANCH  18  19
HETATM   19  C6  UNL     1      26.632   2.398  50.849  1.00  0.00     0.214 C 
BRANCH  19  20
HETATM   20  C5  UNL     1      25.899   1.453  51.738  1.00  0.00    -0.031 A 
HETATM   21  C4  UNL     1      26.591   0.293  52.050  1.00  0.00     0.009 A 
HETATM   22  C3  UNL     1      25.988  -0.640  52.869  1.00  0.00     0.004 A 
HETATM   23  C2  UNL     1      24.717  -0.426  53.372  1.00  0.00     0.042 A 
HETATM   24  C1  UNL     1      24.032   0.732  53.058  1.00  0.00     0.117 A 
HETATM   25  F1  UNL     1      22.786   0.955  53.544  1.00  0.00    -0.206 F 
HETATM   26  C18 UNL     1      24.645   1.653  52.242  1.00  0.00     0.051 A 
ENDBRANCH  19  20
ENDBRANCH  18  19
ENDBRANCH   1  18
TORSDOF 4
ENDMDL
