MODEL 1
REMARK VINA RESULT:      -7.5      0.000      0.000
REMARK  4 active torsions:
REMARK  status: ('A' for Active; 'I' for Inactive)
REMARK    1  A    between atoms: C3_3  and  C4_4 
REMARK       I    between atoms: C4_4  and  N1_6 
REMARK    2  A    between atoms: N2_7  and  C5_8 
REMARK    3  A    between atoms: C9_13  and  N4_14 
REMARK    4  A    between atoms: N4_14  and  C10_15 
ROOT
HETATM    1  C1  UNL     1      26.699   3.667  49.421  1.00  0.00     0.112 C 
HETATM    2  C2  UNL     1      26.645   2.903  50.666  1.00  0.00    -0.101 C 
HETATM    3  C3  UNL     1      26.586   2.254  51.700  1.00  0.00    -0.002 C 
ENDROOT
BRANCH   3   4
HETATM    4  C4  UNL     1      26.501   1.500  52.937  1.00  0.00     0.339 C 
HETATM    5  O1  UNL     1      26.360   2.244  53.965  1.00  0.00    -0.254 OA
HETATM    6  N1  UNL     1      26.590   0.090  52.780  1.00  0.00    -0.103 NA
HETATM    7  N2  UNL     1      25.883  -0.715  53.460  1.00  0.00    -0.175 NA
BRANCH   7   8
HETATM    8  C5  UNL     1      24.942  -0.208  54.440  1.00  0.00     0.188 A 
HETATM    9  C6  UNL     1      24.149  -1.311  55.047  1.00  0.00     0.016 A 
HETATM   10  C7  UNL     1      22.968  -1.077  54.499  1.00  0.00    -0.031 A 
HETATM   11  C8  UNL     1      21.525  -1.282  54.210  1.00  0.00     0.190 A 
HETATM   12  C17 UNL     1      23.599   0.056  53.823  1.00  0.00    -0.017 A 
HETATM   13  N3  UNL     1      20.994  -0.318  53.307  1.00  0.00    -0.268 NA
HETATM   14  C9  UNL     1      21.588   0.651  52.744  1.00  0.00     0.123 A 
HETATM   15  C16 UNL     1      22.983   0.885  52.995  1.00  0.00     0.060 A 
BRANCH  14  16
HETATM   16  N4  UNL     1      20.837   1.505  51.857  1.00  0.00    -0.341 N 
HETATM   17  H8  UNL     1      19.929   1.915  52.231  1.00  0.00     0.167 HD
BRANCH  16  18
HETATM   18  C10 UNL     1      21.334   1.766  50.528  1.00  0.00     0.034 A 
HETATM   19  C11 UNL     1      21.295   0.931  49.432  1.00  0.00     0.029 A 
HETATM   20  C12 UNL     1      21.838   1.402  48.254  1.00  0.00     0.004 A 
HETATM   21  C13 UNL     1      22.399   2.663  48.167  1.00  0.00     0.019 A 
HETATM   22  C14 UNL     1      22.436   3.497  49.264  1.00  0.00     0.013 A 
HETATM   23 BR1  UNL     1      23.223   5.236  49.101  1.00  0.00    -0.051 Br
HETATM   24  C15 UNL     1      21.897   3.044  50.461  1.00  0.00     0.048 A 
ENDBRANCH  16  18
ENDBRANCH  14  16
ENDBRANCH   7   8
ENDBRANCH   3   4
TORSDOF 4
ENDMDL
MODEL 2
REMARK VINA RESULT:      -7.3      5.624      8.656
REMARK  4 active torsions:
REMARK  status: ('A' for Active; 'I' for Inactive)
REMARK    1  A    between atoms: C3_3  and  C4_4 
REMARK       I    between atoms: C4_4  and  N1_6 
REMARK    2  A    between atoms: N2_7  and  C5_8 
REMARK    3  A    between atoms: C9_13  and  N4_14 
REMARK    4  A    between atoms: N4_14  and  C10_15 
ROOT
HETATM    1  C1  UNL     1      32.049  -0.091  46.682  1.00  0.00     0.112 C 
HETATM    2  C2  UNL     1      32.159   1.358  46.848  1.00  0.00    -0.101 C 
HETATM    3  C3  UNL     1      32.267   2.568  46.976  1.00  0.00    -0.002 C 
ENDROOT
BRANCH   3   4
HETATM    4  C4  UNL     1      32.407   4.002  47.149  1.00  0.00     0.339 C 
HETATM    5  O1  UNL     1      32.542   4.626  46.042  1.00  0.00    -0.254 OA
HETATM    6  N1  UNL     1      32.371   4.444  48.500  1.00  0.00    -0.103 NA
HETATM    7  N2  UNL     1      31.780   5.511  48.849  1.00  0.00    -0.175 NA
BRANCH   7   8
HETATM    8  C5  UNL     1      31.110   6.331  47.858  1.00  0.00     0.188 A 
HETATM    9  C6  UNL     1      31.048   7.754  48.286  1.00  0.00     0.016 A 
HETATM   10  C7  UNL     1      29.757   7.861  48.550  1.00  0.00    -0.031 A 
HETATM   11  C8  UNL     1      28.493   8.520  48.969  1.00  0.00     0.190 A 
HETATM   12  C17 UNL     1      29.644   6.458  48.154  1.00  0.00    -0.017 A 
HETATM   13  N3  UNL     1      27.365   7.652  48.911  1.00  0.00    -0.268 NA
HETATM   14  C9  UNL     1      27.320   6.435  48.559  1.00  0.00     0.123 A 
HETATM   15  C16 UNL     1      28.520   5.760  48.147  1.00  0.00     0.060 A 
BRANCH  14  16
HETATM   16  N4  UNL     1      26.050   5.752  48.581  1.00  0.00    -0.341 N 
HETATM   17  H8  UNL     1      25.320   6.064  47.873  1.00  0.00     0.167 HD
BRANCH  16  18
HETATM   18  C10 UNL     1      25.825   4.698  49.538  1.00  0.00     0.034 A 
HETATM   19  C11 UNL     1      26.564   3.549  49.723  1.00  0.00     0.029 A 
HETATM   20  C12 UNL     1      26.153   2.678  50.712  1.00  0.00     0.004 A 
HETATM   21  C13 UNL     1      25.043   2.940  51.492  1.00  0.00     0.019 A 
HETATM   22  C14 UNL     1      24.303   4.090  51.307  1.00  0.00     0.013 A 
HETATM   23 BR1  UNL     1      22.772   4.415  52.411  1.00  0.00    -0.051 Br
HETATM   24  C15 UNL     1      24.698   4.981  50.318  1.00  0.00     0.048 A 
ENDBRANCH  16  18
ENDBRANCH  14  16
ENDBRANCH   7   8
ENDBRANCH   3   4
TORSDOF 4
ENDMDL
MODEL 3
REMARK VINA RESULT:      -6.8      2.775      5.044
REMARK  4 active torsions:
REMARK  status: ('A' for Active; 'I' for Inactive)
REMARK    1  A    between atoms: C3_3  and  C4_4 
REMARK       I    between atoms: C4_4  and  N1_6 
REMARK    2  A    between atoms: N2_7  and  C5_8 
REMARK    3  A    between atoms: C9_13  and  N4_14 
REMARK    4  A    between atoms: N4_14  and  C10_15 
ROOT
HETATM    1  C1  UNL     1      25.165  -0.855  56.258  1.00  0.00     0.112 C 
HETATM    2  C2  UNL     1      25.733  -0.406  54.988  1.00  0.00    -0.101 C 
HETATM    3  C3  UNL     1      26.221  -0.019  53.937  1.00  0.00    -0.002 C 
ENDROOT
BRANCH   3   4
HETATM    4  C4  UNL     1      26.781   0.456  52.685  1.00  0.00     0.339 C 
HETATM    5  O1  UNL     1      26.609  -0.362  51.719  1.00  0.00    -0.254 OA
HETATM    6  N1  UNL     1      27.412   1.728  52.762  1.00  0.00    -0.103 NA
HETATM    7  N2  UNL     1      27.310   2.593  51.839  1.00  0.00    -0.175 NA
BRANCH   7   8
HETATM    8  C5  UNL     1      26.529   2.303  50.652  1.00  0.00     0.188 A 
HETATM    9  C6  UNL     1      26.646   3.396  49.650  1.00  0.00     0.016 A 
HETATM   10  C7  UNL     1      25.435   3.920  49.735  1.00  0.00    -0.031 A 
HETATM   11  C8  UNL     1      24.317   4.848  49.425  1.00  0.00     0.190 A 
HETATM   12  C17 UNL     1      25.155   2.898  50.743  1.00  0.00    -0.017 A 
HETATM   13  N3  UNL     1      23.140   4.576  50.179  1.00  0.00    -0.268 NA
HETATM   14  C9  UNL     1      22.947   3.673  51.047  1.00  0.00     0.123 A 
HETATM   15  C16 UNL     1      24.002   2.755  51.377  1.00  0.00     0.060 A 
BRANCH  14  16
HETATM   16  N4  UNL     1      21.658   3.589  51.688  1.00  0.00    -0.341 N 
HETATM   17  H8  UNL     1      21.267   4.484  52.110  1.00  0.00     0.167 HD
BRANCH  16  18
HETATM   18  C10 UNL     1      20.964   2.325  51.730  1.00  0.00     0.034 A 
HETATM   19  C11 UNL     1      20.040   1.836  50.831  1.00  0.00     0.029 A 
HETATM   20  C12 UNL     1      19.506   0.589  51.082  1.00  0.00     0.004 A 
HETATM   21  C13 UNL     1      19.879  -0.150  52.189  1.00  0.00     0.019 A 
HETATM   22  C14 UNL     1      20.804   0.340  53.087  1.00  0.00     0.013 A 
HETATM   23 BR1  UNL     1      21.292  -0.717  54.609  1.00  0.00    -0.051 Br
HETATM   24  C15 UNL     1      21.355   1.593  52.856  1.00  0.00     0.048 A 
ENDBRANCH  16  18
ENDBRANCH  14  16
ENDBRANCH   7   8
ENDBRANCH   3   4
TORSDOF 4
ENDMDL
MODEL 4
REMARK VINA RESULT:      -6.7      2.829      4.066
REMARK  4 active torsions:
REMARK  status: ('A' for Active; 'I' for Inactive)
REMARK    1  A    between atoms: C3_3  and  C4_4 
REMARK       I    between atoms: C4_4  and  N1_6 
REMARK    2  A    between atoms: N2_7  and  C5_8 
REMARK    3  A    between atoms: C9_13  and  N4_14 
REMARK    4  A    between atoms: N4_14  and  C10_15 
ROOT
HETATM    1  C1  UNL     1      30.139   0.179  53.535  1.00  0.00     0.112 C 
HETATM    2  C2  UNL     1      28.713  -0.116  53.666  1.00  0.00    -0.101 C 
HETATM    3  C3  UNL     1      27.518  -0.344  53.772  1.00  0.00    -0.002 C 
ENDROOT
BRANCH   3   4
HETATM    4  C4  UNL     1      26.100  -0.613  53.922  1.00  0.00     0.339 C 
HETATM    5  O1  UNL     1      25.706  -0.547  55.136  1.00  0.00    -0.254 OA
HETATM    6  N1  UNL     1      25.417  -0.898  52.708  1.00  0.00    -0.103 NA
HETATM    7  N2  UNL     1      24.247  -0.469  52.470  1.00  0.00    -0.175 NA
BRANCH   7   8
HETATM    8  C5  UNL     1      23.555   0.343  53.453  1.00  0.00     0.188 A 
HETATM    9  C6  UNL     1      22.101   0.431  53.152  1.00  0.00     0.016 A 
HETATM   10  C7  UNL     1      22.022   1.692  52.759  1.00  0.00    -0.031 A 
HETATM   11  C8  UNL     1      21.377   2.936  52.266  1.00  0.00     0.190 A 
HETATM   12  C17 UNL     1      23.460   1.774  53.010  1.00  0.00    -0.017 A 
HETATM   13  N3  UNL     1      22.292   4.018  52.120  1.00  0.00    -0.268 NA
HETATM   14  C9  UNL     1      23.539   4.037  52.352  1.00  0.00     0.123 A 
HETATM   15  C16 UNL     1      24.201   2.855  52.829  1.00  0.00     0.060 A 
BRANCH  14  16
HETATM   16  N4  UNL     1      24.267   5.262  52.128  1.00  0.00    -0.341 N 
HETATM   17  H8  UNL     1      24.662   5.755  52.984  1.00  0.00     0.167 HD
BRANCH  16  18
HETATM   18  C10 UNL     1      24.429   5.759  50.784  1.00  0.00     0.034 A 
HETATM   19  C11 UNL     1      25.301   5.310  49.815  1.00  0.00     0.029 A 
HETATM   20  C12 UNL     1      25.275   5.947  48.590  1.00  0.00     0.004 A 
HETATM   21  C13 UNL     1      24.411   6.995  48.336  1.00  0.00     0.019 A 
HETATM   22  C14 UNL     1      23.539   7.443  49.307  1.00  0.00     0.013 A 
HETATM   23 BR1  UNL     1      22.357   8.898  48.913  1.00  0.00    -0.051 Br
HETATM   24  C15 UNL     1      23.547   6.818  50.546  1.00  0.00     0.048 A 
ENDBRANCH  16  18
ENDBRANCH  14  16
ENDBRANCH   7   8
ENDBRANCH   3   4
TORSDOF 4
ENDMDL
MODEL 5
REMARK VINA RESULT:      -6.7      2.077      2.757
REMARK  4 active torsions:
REMARK  status: ('A' for Active; 'I' for Inactive)
REMARK    1  A    between atoms: C3_3  and  C4_4 
REMARK       I    between atoms: C4_4  and  N1_6 
REMARK    2  A    between atoms: N2_7  and  C5_8 
REMARK    3  A    between atoms: C9_13  and  N4_14 
REMARK    4  A    between atoms: N4_14  and  C10_15 
ROOT
HETATM    1  C1  UNL     1      29.667   1.649  54.446  1.00  0.00     0.112 C 
HETATM    2  C2  UNL     1      28.420   0.891  54.522  1.00  0.00    -0.101 C 
HETATM    3  C3  UNL     1      27.375   0.259  54.567  1.00  0.00    -0.002 C 
ENDROOT
BRANCH   3   4
HETATM    4  C4  UNL     1      26.122  -0.471  54.628  1.00  0.00     0.339 C 
HETATM    5  O1  UNL     1      25.667  -0.582  55.817  1.00  0.00    -0.254 OA
HETATM    6  N1  UNL     1      25.636  -0.923  53.371  1.00  0.00    -0.103 NA
HETATM    7  N2  UNL     1      24.403  -0.899  53.071  1.00  0.00    -0.175 NA
BRANCH   7   8
HETATM    8  C5  UNL     1      23.431  -0.398  54.024  1.00  0.00     0.188 A 
HETATM    9  C6  UNL     1      22.214  -1.252  54.053  1.00  0.00     0.016 A 
HETATM   10  C7  UNL     1      21.348  -0.441  53.469  1.00  0.00    -0.031 A 
HETATM   11  C8  UNL     1      20.040   0.005  52.921  1.00  0.00     0.190 A 
HETATM   12  C17 UNL     1      22.444   0.521  53.365  1.00  0.00    -0.017 A 
HETATM   13  N3  UNL     1      20.082   1.321  52.379  1.00  0.00    -0.268 NA
HETATM   14  C9  UNL     1      21.065   2.119  52.312  1.00  0.00     0.123 A 
HETATM   15  C16 UNL     1      22.347   1.727  52.830  1.00  0.00     0.060 A 
BRANCH  14  16
HETATM   16  N4  UNL     1      20.868   3.415  51.712  1.00  0.00    -0.341 N 
HETATM   17  H8  UNL     1      20.025   3.977  52.037  1.00  0.00     0.167 HD
BRANCH  16  18
HETATM   18  C10 UNL     1      21.799   3.890  50.718  1.00  0.00     0.034 A 
HETATM   19  C11 UNL     1      22.115   3.309  49.508  1.00  0.00     0.029 A 
HETATM   20  C12 UNL     1      23.043   3.953  48.716  1.00  0.00     0.004 A 
HETATM   21  C13 UNL     1      23.638   5.136  49.111  1.00  0.00     0.019 A 
HETATM   22  C14 UNL     1      23.320   5.717  50.321  1.00  0.00     0.013 A 
HETATM   23 BR1  UNL     1      24.168   7.358  50.831  1.00  0.00    -0.051 Br
HETATM   24  C15 UNL     1      22.389   5.087  51.136  1.00  0.00     0.048 A 
ENDBRANCH  16  18
ENDBRANCH  14  16
ENDBRANCH   7   8
ENDBRANCH   3   4
TORSDOF 4
ENDMDL
MODEL 6
REMARK VINA RESULT:      -6.6      3.227      6.276
REMARK  4 active torsions:
REMARK  status: ('A' for Active; 'I' for Inactive)
REMARK    1  A    between atoms: C3_3  and  C4_4 
REMARK       I    between atoms: C4_4  and  N1_6 
REMARK    2  A    between atoms: N2_7  and  C5_8 
REMARK    3  A    between atoms: C9_13  and  N4_14 
REMARK    4  A    between atoms: N4_14  and  C10_15 
ROOT
HETATM    1  C1  UNL     1      16.135  -1.085  51.464  1.00  0.00     0.112 C 
HETATM    2  C2  UNL     1      17.429  -0.692  52.019  1.00  0.00    -0.101 C 
HETATM    3  C3  UNL     1      18.509  -0.347  52.473  1.00  0.00    -0.002 C 
ENDROOT
BRANCH   3   4
HETATM    4  C4  UNL     1      19.804   0.050  52.995  1.00  0.00     0.339 C 
HETATM    5  O1  UNL     1      20.449  -0.921  53.518  1.00  0.00    -0.254 OA
HETATM    6  N1  UNL     1      20.113   1.428  52.832  1.00  0.00    -0.103 NA
HETATM    7  N2  UNL     1      21.277   1.831  52.528  1.00  0.00    -0.175 NA
BRANCH   7   8
HETATM    8  C5  UNL     1      22.351   0.876  52.334  1.00  0.00     0.188 A 
HETATM    9  C6  UNL     1      23.231   0.803  53.531  1.00  0.00     0.016 A 
HETATM   10  C7  UNL     1      24.316   1.393  53.059  1.00  0.00    -0.031 A 
HETATM   11  C8  UNL     1      25.701   1.931  53.073  1.00  0.00     0.190 A 
HETATM   12  C17 UNL     1      23.586   1.543  51.801  1.00  0.00    -0.017 A 
HETATM   13  N3  UNL     1      26.087   2.510  51.831  1.00  0.00    -0.268 NA
HETATM   14  C9  UNL     1      25.412   2.617  50.763  1.00  0.00     0.123 A 
HETATM   15  C16 UNL     1      24.068   2.111  50.707  1.00  0.00     0.060 A 
BRANCH  14  16
HETATM   16  N4  UNL     1      26.018   3.249  49.617  1.00  0.00    -0.341 N 
HETATM   17  H8  UNL     1      26.396   2.612  48.854  1.00  0.00     0.167 HD
BRANCH  16  18
HETATM   18  C10 UNL     1      26.089   4.689  49.552  1.00  0.00     0.034 A 
HETATM   19  C11 UNL     1      25.268   5.605  50.174  1.00  0.00     0.029 A 
HETATM   20  C12 UNL     1      25.532   6.943  49.963  1.00  0.00     0.004 A 
HETATM   21  C13 UNL     1      26.578   7.358  49.160  1.00  0.00     0.019 A 
HETATM   22  C14 UNL     1      27.399   6.440  48.538  1.00  0.00     0.013 A 
HETATM   23 BR1  UNL     1      28.837   7.056  47.433  1.00  0.00    -0.051 Br
HETATM   24  C15 UNL     1      27.152   5.087  48.736  1.00  0.00     0.048 A 
ENDBRANCH  16  18
ENDBRANCH  14  16
ENDBRANCH   7   8
ENDBRANCH   3   4
TORSDOF 4
ENDMDL
MODEL 7
REMARK VINA RESULT:      -6.6      3.842      6.759
REMARK  4 active torsions:
REMARK  status: ('A' for Active; 'I' for Inactive)
REMARK    1  A    between atoms: C3_3  and  C4_4 
REMARK       I    between atoms: C4_4  and  N1_6 
REMARK    2  A    between atoms: N2_7  and  C5_8 
REMARK    3  A    between atoms: C9_13  and  N4_14 
REMARK    4  A    between atoms: N4_14  and  C10_15 
ROOT
HETATM    1  C1  UNL     1      23.297   7.865  44.437  1.00  0.00     0.112 C 
HETATM    2  C2  UNL     1      22.706   6.604  44.882  1.00  0.00    -0.101 C 
HETATM    3  C3  UNL     1      22.229   5.546  45.262  1.00  0.00    -0.002 C 
ENDROOT
BRANCH   3   4
HETATM    4  C4  UNL     1      21.666   4.279  45.692  1.00  0.00     0.339 C 
HETATM    5  O1  UNL     1      22.139   3.281  45.050  1.00  0.00    -0.254 OA
HETATM    6  N1  UNL     1      20.705   4.379  46.734  1.00  0.00    -0.103 NA
HETATM    7  N2  UNL     1      20.641   3.538  47.683  1.00  0.00    -0.175 NA
BRANCH   7   8
HETATM    8  C5  UNL     1      21.569   2.425  47.732  1.00  0.00     0.188 A 
HETATM    9  C6  UNL     1      21.098   1.371  48.671  1.00  0.00     0.016 A 
HETATM   10  C7  UNL     1      21.975   1.523  49.649  1.00  0.00    -0.031 A 
HETATM   11  C8  UNL     1      22.634   1.258  50.954  1.00  0.00     0.190 A 
HETATM   12  C17 UNL     1      22.564   2.592  48.843  1.00  0.00    -0.017 A 
HETATM   13  N3  UNL     1      23.750   2.107  51.199  1.00  0.00    -0.268 NA
HETATM   14  C9  UNL     1      24.223   3.025  50.463  1.00  0.00     0.123 A 
HETATM   15  C16 UNL     1      23.616   3.315  49.194  1.00  0.00     0.060 A 
BRANCH  14  16
HETATM   16  N4  UNL     1      25.374   3.762  50.925  1.00  0.00    -0.341 N 
HETATM   17  H8  UNL     1      25.663   3.624  51.940  1.00  0.00     0.167 HD
BRANCH  16  18
HETATM   18  C10 UNL     1      26.073   4.636  50.015  1.00  0.00     0.034 A 
HETATM   19  C11 UNL     1      27.123   4.322  49.179  1.00  0.00     0.029 A 
HETATM   20  C12 UNL     1      27.633   5.333  48.391  1.00  0.00     0.004 A 
HETATM   21  C13 UNL     1      27.117   6.615  48.431  1.00  0.00     0.019 A 
HETATM   22  C14 UNL     1      26.066   6.927  49.268  1.00  0.00     0.013 A 
HETATM   23 BR1  UNL     1      25.380   8.716  49.294  1.00  0.00    -0.051 Br
HETATM   24  C15 UNL     1      25.536   5.926  50.071  1.00  0.00     0.048 A 
ENDBRANCH  16  18
ENDBRANCH  14  16
ENDBRANCH   7   8
ENDBRANCH   3   4
TORSDOF 4
ENDMDL
MODEL 8
REMARK VINA RESULT:      -6.5      8.987     10.929
REMARK  4 active torsions:
REMARK  status: ('A' for Active; 'I' for Inactive)
REMARK    1  A    between atoms: C3_3  and  C4_4 
REMARK       I    between atoms: C4_4  and  N1_6 
REMARK    2  A    between atoms: N2_7  and  C5_8 
REMARK    3  A    between atoms: C9_13  and  N4_14 
REMARK    4  A    between atoms: N4_14  and  C10_15 
ROOT
HETATM    1  C1  UNL     1      32.015  -0.084  46.910  1.00  0.00     0.112 C 
HETATM    2  C2  UNL     1      32.304   1.344  46.784  1.00  0.00    -0.101 C 
HETATM    3  C3  UNL     1      32.560   2.533  46.667  1.00  0.00    -0.002 C 
ENDROOT
BRANCH   3   4
HETATM    4  C4  UNL     1      32.878   3.944  46.548  1.00  0.00     0.339 C 
HETATM    5  O1  UNL     1      32.751   4.384  45.356  1.00  0.00    -0.254 OA
HETATM    6  N1  UNL     1      33.268   4.570  47.764  1.00  0.00    -0.103 NA
HETATM    7  N2  UNL     1      32.904   5.746  48.069  1.00  0.00    -0.175 NA
BRANCH   7   8
HETATM    8  C5  UNL     1      32.060   6.505  47.165  1.00  0.00     0.188 A 
HETATM    9  C6  UNL     1      32.790   7.670  46.596  1.00  0.00     0.016 A 
HETATM   10  C7  UNL     1      32.179   8.658  47.229  1.00  0.00    -0.031 A 
HETATM   11  C8  UNL     1      31.877  10.061  47.613  1.00  0.00     0.190 A 
HETATM   12  C17 UNL     1      31.368   7.629  47.879  1.00  0.00    -0.017 A 
HETATM   13  N3  UNL     1      30.826  10.163  48.568  1.00  0.00    -0.268 NA
HETATM   14  C9  UNL     1      30.150   9.235  49.105  1.00  0.00     0.123 A 
HETATM   15  C16 UNL     1      30.410   7.864  48.761  1.00  0.00     0.060 A 
BRANCH  14  16
HETATM   16  N4  UNL     1      29.124   9.583  50.056  1.00  0.00    -0.341 N 
HETATM   17  H8  UNL     1      29.434   9.782  51.054  1.00  0.00     0.167 HD
BRANCH  16  18
HETATM   18  C10 UNL     1      27.747   9.647  49.629  1.00  0.00     0.034 A 
HETATM   19  C11 UNL     1      27.163  10.574  48.792  1.00  0.00     0.029 A 
HETATM   20  C12 UNL     1      25.817  10.430  48.523  1.00  0.00     0.004 A 
HETATM   21  C13 UNL     1      25.076   9.398  49.066  1.00  0.00     0.019 A 
HETATM   22  C14 UNL     1      25.661   8.471  49.903  1.00  0.00     0.013 A 
HETATM   23 BR1  UNL     1      24.597   7.056  50.635  1.00  0.00    -0.051 Br
HETATM   24  C15 UNL     1      27.014   8.596  50.189  1.00  0.00     0.048 A 
ENDBRANCH  16  18
ENDBRANCH  14  16
ENDBRANCH   7   8
ENDBRANCH   3   4
TORSDOF 4
ENDMDL
MODEL 9
REMARK VINA RESULT:      -6.5      2.863      4.707
REMARK  4 active torsions:
REMARK  status: ('A' for Active; 'I' for Inactive)
REMARK    1  A    between atoms: C3_3  and  C4_4 
REMARK       I    between atoms: C4_4  and  N1_6 
REMARK    2  A    between atoms: N2_7  and  C5_8 
REMARK    3  A    between atoms: C9_13  and  N4_14 
REMARK    4  A    between atoms: N4_14  and  C10_15 
ROOT
HETATM    1  C1  UNL     1      25.008   0.495  52.866  1.00  0.00     0.112 C 
HETATM    2  C2  UNL     1      23.681   0.172  53.385  1.00  0.00    -0.101 C 
HETATM    3  C3  UNL     1      22.564  -0.098  53.801  1.00  0.00    -0.002 C 
ENDROOT
BRANCH   3   4
HETATM    4  C4  UNL     1      21.234  -0.395  54.300  1.00  0.00     0.339 C 
HETATM    5  O1  UNL     1      20.711   0.582  54.937  1.00  0.00    -0.254 OA
HETATM    6  N1  UNL     1      20.763  -1.701  53.995  1.00  0.00    -0.103 NA
HETATM    7  N2  UNL     1      19.558  -1.929  53.670  1.00  0.00    -0.175 NA
BRANCH   7   8
HETATM    8  C5  UNL     1      18.603  -0.839  53.599  1.00  0.00     0.188 A 
HETATM    9  C6  UNL     1      17.270  -1.318  53.145  1.00  0.00     0.016 A 
HETATM   10  C7  UNL     1      17.235  -0.792  51.932  1.00  0.00    -0.031 A 
HETATM   11  C8  UNL     1      16.680  -0.473  50.591  1.00  0.00     0.190 A 
HETATM   12  C17 UNL     1      18.558  -0.241  52.223  1.00  0.00    -0.017 A 
HETATM   13  N3  UNL     1      17.552   0.332  49.804  1.00  0.00    -0.268 NA
HETATM   14  C9  UNL     1      18.697   0.787  50.104  1.00  0.00     0.123 A 
HETATM   15  C16 UNL     1      19.270   0.501  51.391  1.00  0.00     0.060 A 
BRANCH  14  16
HETATM   16  N4  UNL     1      19.402   1.589  49.135  1.00  0.00    -0.341 N 
HETATM   17  H8  UNL     1      18.930   1.737  48.193  1.00  0.00     0.167 HD
BRANCH  16  18
HETATM   18  C10 UNL     1      20.689   2.146  49.472  1.00  0.00     0.034 A 
HETATM   19  C11 UNL     1      21.921   1.533  49.402  1.00  0.00     0.029 A 
HETATM   20  C12 UNL     1      23.023   2.274  49.779  1.00  0.00     0.004 A 
HETATM   21  C13 UNL     1      22.905   3.581  50.212  1.00  0.00     0.019 A 
HETATM   22  C14 UNL     1      21.671   4.193  50.281  1.00  0.00     0.013 A 
HETATM   23 BR1  UNL     1      21.551   6.007  50.887  1.00  0.00    -0.051 Br
HETATM   24  C15 UNL     1      20.547   3.468  49.907  1.00  0.00     0.048 A 
ENDBRANCH  16  18
ENDBRANCH  14  16
ENDBRANCH   7   8
ENDBRANCH   3   4
TORSDOF 4
ENDMDL
