MODEL 1
REMARK VINA RESULT:      -7.7      0.000      0.000
REMARK  6 active torsions:
REMARK  status: ('A' for Active; 'I' for Inactive)
REMARK    1  A    between atoms: O1_2  and  C2_3 
REMARK    2  A    between atoms: C2_3  and  C3_4 
REMARK    3  A    between atoms: C3_4  and  O2_5 
REMARK    4  A    between atoms: O2_5  and  C4_6 
REMARK    5  A    between atoms: C8_12  and  N3_13 
REMARK    6  A    between atoms: N3_13  and  C9_14 
ROOT
HETATM    1  C4  UNL     1      22.270   1.421  51.631  1.00  0.00     0.093 C 
HETATM    2  C5  UNL     1      22.136   1.700  50.334  1.00  0.00     0.065 C 
HETATM    3  C6  UNL     1      21.029   0.976  49.671  1.00  0.00     0.073 C 
HETATM    4  N1  UNL     1      22.813   2.541  49.413  1.00  0.00    -0.244 NA
HETATM    5  C7  UNL     1      23.985   3.080  49.357  1.00  0.00     0.235 C 
HETATM    6  N2  UNL     1      25.133   3.075  50.198  1.00  0.00    -0.225 NA
HETATM    7  C8  UNL     1      25.314   2.832  51.447  1.00  0.00     0.129 C 
HETATM    8  C17 UNL     1      24.422   2.453  52.550  1.00  0.00     0.053 C 
HETATM    9  C18 UNL     1      23.208   1.891  52.667  1.00  0.00     0.042 C 
ENDROOT
BRANCH   7  10
HETATM   10  N3  UNL     1      26.666   2.957  51.836  1.00  0.00    -0.341 N 
HETATM   11  H12 UNL     1      27.160   3.848  51.554  1.00  0.00     0.167 HD
BRANCH  10  12
HETATM   12  C9  UNL     1      27.356   1.963  52.562  1.00  0.00     0.034 C 
HETATM   13  C10 UNL     1      26.888   0.729  52.463  1.00  0.00     0.037 C 
HETATM   14  C11 UNL     1      27.446  -0.444  53.127  1.00  0.00    -0.049 C 
HETATM   15  C12 UNL     1      27.161  -1.760  52.452  1.00  0.00     0.049 C 
HETATM   16  C13 UNL     1      28.155  -0.546  54.216  1.00  0.00    -0.019 C 
HETATM   17  C14 UNL     1      28.945   0.383  54.677  1.00  0.00     0.013 C 
HETATM   18  C15 UNL     1      29.176   1.754  54.239  1.00  0.00     0.003 C 
HETATM   19  C16 UNL     1      28.515   2.463  53.336  1.00  0.00     0.029 C 
ENDBRANCH  10  12
ENDBRANCH   7  10
BRANCH   1  20
HETATM   20  O2  UNL     1      21.382   0.516  52.181  1.00  0.00    -0.347 OA
BRANCH  20  21
HETATM   21  C3  UNL     1      21.424   0.302  53.580  1.00  0.00     0.201 C 
BRANCH  21  22
HETATM   22  C2  UNL     1      20.532  -0.891  53.942  1.00  0.00     0.193 C 
BRANCH  22  23
HETATM   23  O1  UNL     1      21.243  -1.767  54.756  1.00  0.00    -0.394 OA
HETATM   24  C1  UNL     1      22.481  -1.161  55.041  1.00  0.00     0.201 C 
ENDBRANCH  22  23
ENDBRANCH  21  22
ENDBRANCH  20  21
ENDBRANCH   1  20
TORSDOF 6
ENDMDL
MODEL 2
REMARK VINA RESULT:      -7.6      3.774      6.067
REMARK  6 active torsions:
REMARK  status: ('A' for Active; 'I' for Inactive)
REMARK    1  A    between atoms: O1_2  and  C2_3 
REMARK    2  A    between atoms: C2_3  and  C3_4 
REMARK    3  A    between atoms: C3_4  and  O2_5 
REMARK    4  A    between atoms: O2_5  and  C4_6 
REMARK    5  A    between atoms: C8_12  and  N3_13 
REMARK    6  A    between atoms: N3_13  and  C9_14 
ROOT
HETATM    1  C4  UNL     1      25.563   0.808  52.437  1.00  0.00     0.093 C 
HETATM    2  C5  UNL     1      24.326   1.060  52.864  1.00  0.00     0.065 C 
HETATM    3  C6  UNL     1      23.713  -0.046  53.632  1.00  0.00     0.073 C 
HETATM    4  N1  UNL     1      23.432   2.158  52.757  1.00  0.00    -0.244 NA
HETATM    5  C7  UNL     1      23.308   3.162  51.955  1.00  0.00     0.235 C 
HETATM    6  N2  UNL     1      24.014   3.626  50.811  1.00  0.00    -0.225 NA
HETATM    7  C8  UNL     1      25.204   3.428  50.365  1.00  0.00     0.129 C 
HETATM    8  C17 UNL     1      26.350   2.640  50.836  1.00  0.00     0.053 C 
HETATM    9  C18 UNL     1      26.537   1.594  51.657  1.00  0.00     0.042 C 
ENDROOT
BRANCH   7  10
HETATM   10  N3  UNL     1      25.455   4.120  49.159  1.00  0.00    -0.341 N 
HETATM   11  H12 UNL     1      24.906   3.810  48.311  1.00  0.00     0.167 HD
BRANCH  10  12
HETATM   12  C9  UNL     1      26.384   5.176  49.055  1.00  0.00     0.034 C 
HETATM   13  C10 UNL     1      25.940   6.385  49.362  1.00  0.00     0.037 C 
HETATM   14  C11 UNL     1      26.728   7.612  49.322  1.00  0.00    -0.049 C 
HETATM   15  C12 UNL     1      26.244   8.715  50.228  1.00  0.00     0.049 C 
HETATM   16  C13 UNL     1      27.789   7.918  48.630  1.00  0.00    -0.019 C 
HETATM   17  C14 UNL     1      28.672   7.058  48.206  1.00  0.00     0.013 C 
HETATM   18  C15 UNL     1      28.697   5.601  48.253  1.00  0.00     0.003 C 
HETATM   19  C16 UNL     1      27.735   4.763  48.612  1.00  0.00     0.029 C 
ENDBRANCH  10  12
ENDBRANCH   7  10
BRANCH   1  20
HETATM   20  O2  UNL     1      26.107  -0.422  52.757  1.00  0.00    -0.347 OA
BRANCH  20  21
HETATM   21  C3  UNL     1      27.399  -0.455  53.332  1.00  0.00     0.201 C 
BRANCH  21  22
HETATM   22  C2  UNL     1      27.328   0.050  54.779  1.00  0.00     0.193 C 
BRANCH  22  23
HETATM   23  O1  UNL     1      28.437   0.846  55.044  1.00  0.00    -0.394 OA
HETATM   24  C1  UNL     1      29.355   0.646  53.996  1.00  0.00     0.201 C 
ENDBRANCH  22  23
ENDBRANCH  21  22
ENDBRANCH  20  21
ENDBRANCH   1  20
TORSDOF 6
ENDMDL
MODEL 3
REMARK VINA RESULT:      -7.4      1.585      2.253
REMARK  6 active torsions:
REMARK  status: ('A' for Active; 'I' for Inactive)
REMARK    1  A    between atoms: O1_2  and  C2_3 
REMARK    2  A    between atoms: C2_3  and  C3_4 
REMARK    3  A    between atoms: C3_4  and  O2_5 
REMARK    4  A    between atoms: O2_5  and  C4_6 
REMARK    5  A    between atoms: C8_12  and  N3_13 
REMARK    6  A    between atoms: N3_13  and  C9_14 
ROOT
HETATM    1  C4  UNL     1      22.043   1.249  50.982  1.00  0.00     0.093 C 
HETATM    2  C5  UNL     1      22.422   1.830  49.844  1.00  0.00     0.065 C 
HETATM    3  C6  UNL     1      21.739   1.308  48.640  1.00  0.00     0.073 C 
HETATM    4  N1  UNL     1      23.345   2.852  49.498  1.00  0.00    -0.244 NA
HETATM    5  C7  UNL     1      24.393   3.364  50.052  1.00  0.00     0.235 C 
HETATM    6  N2  UNL     1      25.100   3.136  51.265  1.00  0.00    -0.225 NA
HETATM    7  C8  UNL     1      24.779   2.599  52.389  1.00  0.00     0.129 C 
HETATM    8  C17 UNL     1      23.550   1.988  52.911  1.00  0.00     0.053 C 
HETATM    9  C18 UNL     1      22.441   1.440  52.389  1.00  0.00     0.042 C 
ENDROOT
BRANCH   7  10
HETATM   10  N3  UNL     1      25.844   2.600  53.316  1.00  0.00    -0.341 N 
HETATM   11  H12 UNL     1      25.834   3.362  54.050  1.00  0.00     0.167 HD
BRANCH  10  12
HETATM   12  C9  UNL     1      26.887   1.650  53.296  1.00  0.00     0.034 C 
HETATM   13  C10 UNL     1      26.529   0.387  53.131  1.00  0.00     0.037 C 
HETATM   14  C11 UNL     1      27.440  -0.751  53.080  1.00  0.00    -0.049 C 
HETATM   15  C12 UNL     1      26.926  -1.952  52.330  1.00  0.00     0.049 C 
HETATM   16  C13 UNL     1      28.635  -0.906  53.579  1.00  0.00    -0.019 C 
HETATM   17  C14 UNL     1      29.480   0.063  53.794  1.00  0.00     0.013 C 
HETATM   18  C15 UNL     1      29.337   1.509  53.677  1.00  0.00     0.003 C 
HETATM   19  C16 UNL     1      28.241   2.223  53.464  1.00  0.00     0.029 C 
ENDBRANCH  10  12
ENDBRANCH   7  10
BRANCH   1  20
HETATM   20  O2  UNL     1      21.083   0.258  50.900  1.00  0.00    -0.347 OA
BRANCH  20  21
HETATM   21  C3  UNL     1      20.022   0.272  51.837  1.00  0.00     0.201 C 
BRANCH  21  22
HETATM   22  C2  UNL     1      18.848   1.079  51.268  1.00  0.00     0.193 C 
BRANCH  22  23
HETATM   23  O1  UNL     1      18.823   2.336  51.861  1.00  0.00    -0.394 OA
HETATM   24  C1  UNL     1      18.966   3.286  50.833  1.00  0.00     0.201 C 
ENDBRANCH  22  23
ENDBRANCH  21  22
ENDBRANCH  20  21
ENDBRANCH   1  20
TORSDOF 6
ENDMDL
MODEL 4
REMARK VINA RESULT:      -7.3      2.760      6.719
REMARK  6 active torsions:
REMARK  status: ('A' for Active; 'I' for Inactive)
REMARK    1  A    between atoms: O1_2  and  C2_3 
REMARK    2  A    between atoms: C2_3  and  C3_4 
REMARK    3  A    between atoms: C3_4  and  O2_5 
REMARK    4  A    between atoms: O2_5  and  C4_6 
REMARK    5  A    between atoms: C8_12  and  N3_13 
REMARK    6  A    between atoms: N3_13  and  C9_14 
ROOT
HETATM    1  C4  UNL     1      25.948   2.489  51.140  1.00  0.00     0.093 C 
HETATM    2  C5  UNL     1      25.683   3.193  50.039  1.00  0.00     0.065 C 
HETATM    3  C6  UNL     1      26.855   3.896  49.473  1.00  0.00     0.073 C 
HETATM    4  N1  UNL     1      24.521   3.437  49.261  1.00  0.00    -0.244 NA
HETATM    5  C7  UNL     1      23.249   3.382  49.473  1.00  0.00     0.235 C 
HETATM    6  N2  UNL     1      22.431   3.049  50.588  1.00  0.00    -0.225 NA
HETATM    7  C8  UNL     1      22.631   2.366  51.659  1.00  0.00     0.129 C 
HETATM    8  C17 UNL     1      23.783   1.634  52.200  1.00  0.00     0.053 C 
HETATM    9  C18 UNL     1      25.114   1.652  52.022  1.00  0.00     0.042 C 
ENDROOT
BRANCH   7  10
HETATM   10  N3  UNL     1      21.490   2.312  52.491  1.00  0.00    -0.341 N 
HETATM   11  H12 UNL     1      21.322   3.146  53.119  1.00  0.00     0.167 HD
BRANCH  10  12
HETATM   12  C9  UNL     1      20.599   1.220  52.509  1.00  0.00     0.034 C 
HETATM   13  C10 UNL     1      19.568   1.286  51.681  1.00  0.00     0.037 C 
HETATM   14  C11 UNL     1      18.529   0.272  51.538  1.00  0.00    -0.049 C 
HETATM   15  C12 UNL     1      17.829   0.254  50.205  1.00  0.00     0.049 C 
HETATM   16  C13 UNL     1      18.102  -0.630  52.377  1.00  0.00    -0.019 C 
HETATM   17  C14 UNL     1      18.821  -1.161  53.325  1.00  0.00     0.013 C 
HETATM   18  C15 UNL     1      20.168  -0.862  53.795  1.00  0.00     0.003 C 
HETATM   19  C16 UNL     1      20.959   0.150  53.466  1.00  0.00     0.029 C 
ENDBRANCH  10  12
ENDBRANCH   7  10
BRANCH   1  20
HETATM   20  O2  UNL     1      27.250   2.502  51.604  1.00  0.00    -0.347 OA
BRANCH  20  21
HETATM   21  C3  UNL     1      27.549   1.775  52.781  1.00  0.00     0.201 C 
BRANCH  21  22
HETATM   22  C2  UNL     1      28.620   2.523  53.585  1.00  0.00     0.193 C 
BRANCH  22  23
HETATM   23  O1  UNL     1      28.953   1.779  54.712  1.00  0.00    -0.394 OA
HETATM   24  C1  UNL     1      28.900   0.421  54.347  1.00  0.00     0.201 C 
ENDBRANCH  22  23
ENDBRANCH  21  22
ENDBRANCH  20  21
ENDBRANCH   1  20
TORSDOF 6
ENDMDL
MODEL 5
REMARK VINA RESULT:      -7.1      3.916      6.027
REMARK  6 active torsions:
REMARK  status: ('A' for Active; 'I' for Inactive)
REMARK    1  A    between atoms: O1_2  and  C2_3 
REMARK    2  A    between atoms: C2_3  and  C3_4 
REMARK    3  A    between atoms: C3_4  and  O2_5 
REMARK    4  A    between atoms: O2_5  and  C4_6 
REMARK    5  A    between atoms: C8_12  and  N3_13 
REMARK    6  A    between atoms: N3_13  and  C9_14 
ROOT
HETATM    1  C4  UNL     1      25.470   5.524  50.091  1.00  0.00     0.093 C 
HETATM    2  C5  UNL     1      24.441   5.835  50.880  1.00  0.00     0.065 C 
HETATM    3  C6  UNL     1      24.251   7.288  51.083  1.00  0.00     0.073 C 
HETATM    4  N1  UNL     1      23.462   5.093  51.590  1.00  0.00    -0.244 NA
HETATM    5  C7  UNL     1      23.374   3.883  52.034  1.00  0.00     0.235 C 
HETATM    6  N2  UNL     1      24.223   2.742  52.012  1.00  0.00    -0.225 NA
HETATM    7  C8  UNL     1      25.211   2.388  51.269  1.00  0.00     0.129 C 
HETATM    8  C17 UNL     1      25.894   3.002  50.124  1.00  0.00     0.053 C 
HETATM    9  C18 UNL     1      26.024   4.241  49.621  1.00  0.00     0.042 C 
ENDROOT
BRANCH   7  10
HETATM   10  N3  UNL     1      25.751   1.137  51.641  1.00  0.00    -0.341 N 
HETATM   11  H12 UNL     1      25.217   0.279  51.330  1.00  0.00     0.167 HD
BRANCH  10  12
HETATM   12  C9  UNL     1      26.939   1.001  52.389  1.00  0.00     0.034 C 
HETATM   13  C10 UNL     1      27.317  -0.235  52.676  1.00  0.00     0.037 C 
HETATM   14  C11 UNL     1      28.507  -0.602  53.435  1.00  0.00    -0.049 C 
HETATM   15  C12 UNL     1      29.050  -1.978  53.152  1.00  0.00     0.049 C 
HETATM   16  C13 UNL     1      29.185   0.066  54.325  1.00  0.00    -0.019 C 
HETATM   17  C14 UNL     1      29.267   1.366  54.375  1.00  0.00     0.013 C 
HETATM   18  C15 UNL     1      28.591   2.403  53.605  1.00  0.00     0.003 C 
HETATM   19  C16 UNL     1      27.590   2.282  52.745  1.00  0.00     0.029 C 
ENDBRANCH  10  12
ENDBRANCH   7  10
BRANCH   1  20
HETATM   20  O2  UNL     1      26.212   6.569  49.573  1.00  0.00    -0.347 OA
BRANCH  20  21
HETATM   21  C3  UNL     1      26.324   6.679  48.166  1.00  0.00     0.201 C 
BRANCH  21  22
HETATM   22  C2  UNL     1      27.611   7.435  47.813  1.00  0.00     0.193 C 
BRANCH  22  23
HETATM   23  O1  UNL     1      28.686   6.553  47.842  1.00  0.00    -0.394 OA
HETATM   24  C1  UNL     1      29.787   7.254  48.368  1.00  0.00     0.201 C 
ENDBRANCH  22  23
ENDBRANCH  21  22
ENDBRANCH  20  21
ENDBRANCH   1  20
TORSDOF 6
ENDMDL
MODEL 6
REMARK VINA RESULT:      -7.1      3.850      8.275
REMARK  6 active torsions:
REMARK  status: ('A' for Active; 'I' for Inactive)
REMARK    1  A    between atoms: O1_2  and  C2_3 
REMARK    2  A    between atoms: C2_3  and  C3_4 
REMARK    3  A    between atoms: C3_4  and  O2_5 
REMARK    4  A    between atoms: O2_5  and  C4_6 
REMARK    5  A    between atoms: C8_12  and  N3_13 
REMARK    6  A    between atoms: N3_13  and  C9_14 
ROOT
HETATM    1  C4  UNL     1      23.215   0.364  52.845  1.00  0.00     0.093 C 
HETATM    2  C5  UNL     1      22.892   1.028  51.735  1.00  0.00     0.065 C 
HETATM    3  C6  UNL     1      23.925   1.983  51.278  1.00  0.00     0.073 C 
HETATM    4  N1  UNL     1      21.771   1.041  50.864  1.00  0.00    -0.244 NA
HETATM    5  C7  UNL     1      20.528   0.707  50.968  1.00  0.00     0.235 C 
HETATM    6  N2  UNL     1      19.716   0.172  52.006  1.00  0.00    -0.225 NA
HETATM    7  C8  UNL     1      19.973  -0.484  53.082  1.00  0.00     0.129 C 
HETATM    8  C17 UNL     1      21.210  -0.967  53.709  1.00  0.00     0.053 C 
HETATM    9  C18 UNL     1      22.515  -0.659  53.644  1.00  0.00     0.042 C 
ENDROOT
BRANCH   7  10
HETATM   10  N3  UNL     1      18.809  -0.807  53.814  1.00  0.00    -0.341 N 
HETATM   11  H12 UNL     1      18.711  -0.364  54.769  1.00  0.00     0.167 HD
BRANCH  10  12
HETATM   12  C9  UNL     1      17.806  -1.672  53.328  1.00  0.00     0.034 C 
HETATM   13  C10 UNL     1      16.890  -1.129  52.543  1.00  0.00     0.037 C 
HETATM   14  C11 UNL     1      15.769  -1.838  51.934  1.00  0.00    -0.049 C 
HETATM   15  C12 UNL     1      15.226  -1.218  50.673  1.00  0.00     0.049 C 
HETATM   16  C13 UNL     1      15.153  -2.926  52.300  1.00  0.00    -0.019 C 
HETATM   17  C14 UNL     1      15.697  -3.892  52.986  1.00  0.00     0.013 C 
HETATM   18  C15 UNL     1      17.008  -4.006  53.615  1.00  0.00     0.003 C 
HETATM   19  C16 UNL     1      17.936  -3.076  53.779  1.00  0.00     0.029 C 
ENDBRANCH  10  12
ENDBRANCH   7  10
BRANCH   1  20
HETATM   20  O2  UNL     1      24.443   0.643  53.417  1.00  0.00    -0.347 OA
BRANCH  20  21
HETATM   21  C3  UNL     1      25.132  -0.408  54.068  1.00  0.00     0.201 C 
BRANCH  21  22
HETATM   22  C2  UNL     1      26.383   0.151  54.758  1.00  0.00     0.193 C 
BRANCH  22  23
HETATM   23  O1  UNL     1      27.513  -0.234  54.045  1.00  0.00    -0.394 OA
HETATM   24  C1  UNL     1      28.633   0.073  54.840  1.00  0.00     0.201 C 
ENDBRANCH  22  23
ENDBRANCH  21  22
ENDBRANCH  20  21
ENDBRANCH   1  20
TORSDOF 6
ENDMDL
MODEL 7
REMARK VINA RESULT:      -7.0      2.855      5.604
REMARK  6 active torsions:
REMARK  status: ('A' for Active; 'I' for Inactive)
REMARK    1  A    between atoms: O1_2  and  C2_3 
REMARK    2  A    between atoms: C2_3  and  C3_4 
REMARK    3  A    between atoms: C3_4  and  O2_5 
REMARK    4  A    between atoms: O2_5  and  C4_6 
REMARK    5  A    between atoms: C8_12  and  N3_13 
REMARK    6  A    between atoms: N3_13  and  C9_14 
ROOT
HETATM    1  C4  UNL     1      23.839   0.344  53.384  1.00  0.00     0.093 C 
HETATM    2  C5  UNL     1      22.518   0.160  53.373  1.00  0.00     0.065 C 
HETATM    3  C6  UNL     1      22.057  -0.966  54.215  1.00  0.00     0.073 C 
HETATM    4  N1  UNL     1      21.422   0.798  52.736  1.00  0.00    -0.244 NA
HETATM    5  C7  UNL     1      21.277   1.541  51.690  1.00  0.00     0.235 C 
HETATM    6  N2  UNL     1      22.155   2.061  50.699  1.00  0.00    -0.225 NA
HETATM    7  C8  UNL     1      23.423   2.272  50.664  1.00  0.00     0.129 C 
HETATM    8  C17 UNL     1      24.516   2.071  51.623  1.00  0.00     0.053 C 
HETATM    9  C18 UNL     1      24.723   1.316  52.714  1.00  0.00     0.042 C 
ENDROOT
BRANCH   7  10
HETATM   10  N3  UNL     1      23.850   2.815  49.431  1.00  0.00    -0.341 N 
HETATM   11  H12 UNL     1      23.461   2.368  48.556  1.00  0.00     0.167 HD
BRANCH  10  12
HETATM   12  C9  UNL     1      24.748   3.899  49.335  1.00  0.00     0.034 C 
HETATM   13  C10 UNL     1      24.210   5.106  49.262  1.00  0.00     0.037 C 
HETATM   14  C11 UNL     1      24.951   6.358  49.157  1.00  0.00    -0.049 C 
HETATM   15  C12 UNL     1      24.226   7.577  49.664  1.00  0.00     0.049 C 
HETATM   16  C13 UNL     1      26.144   6.602  48.694  1.00  0.00    -0.019 C 
HETATM   17  C14 UNL     1      27.127   5.747  48.688  1.00  0.00     0.013 C 
HETATM   18  C15 UNL     1      27.177   4.334  49.046  1.00  0.00     0.003 C 
HETATM   19  C16 UNL     1      26.177   3.512  49.330  1.00  0.00     0.029 C 
ENDBRANCH  10  12
ENDBRANCH   7  10
BRANCH   1  20
HETATM   20  O2  UNL     1      24.593  -0.516  54.159  1.00  0.00    -0.347 OA
BRANCH  20  21
HETATM   21  C3  UNL     1      25.978  -0.626  53.884  1.00  0.00     0.201 C 
BRANCH  21  22
HETATM   22  C2  UNL     1      26.773   0.130  54.956  1.00  0.00     0.193 C 
BRANCH  22  23
HETATM   23  O1  UNL     1      28.092  -0.311  54.946  1.00  0.00    -0.394 OA
HETATM   24  C1  UNL     1      28.888   0.764  54.508  1.00  0.00     0.201 C 
ENDBRANCH  22  23
ENDBRANCH  21  22
ENDBRANCH  20  21
ENDBRANCH   1  20
TORSDOF 6
ENDMDL
MODEL 8
REMARK VINA RESULT:      -6.9      4.091      6.293
REMARK  6 active torsions:
REMARK  status: ('A' for Active; 'I' for Inactive)
REMARK    1  A    between atoms: O1_2  and  C2_3 
REMARK    2  A    between atoms: C2_3  and  C3_4 
REMARK    3  A    between atoms: C3_4  and  O2_5 
REMARK    4  A    between atoms: O2_5  and  C4_6 
REMARK    5  A    between atoms: C8_12  and  N3_13 
REMARK    6  A    between atoms: N3_13  and  C9_14 
ROOT
HETATM    1  C4  UNL     1      25.680   5.481  49.606  1.00  0.00     0.093 C 
HETATM    2  C5  UNL     1      24.997   6.271  50.435  1.00  0.00     0.065 C 
HETATM    3  C6  UNL     1      25.538   7.643  50.546  1.00  0.00     0.073 C 
HETATM    4  N1  UNL     1      23.850   6.111  51.256  1.00  0.00    -0.244 NA
HETATM    5  C7  UNL     1      23.239   5.106  51.789  1.00  0.00     0.235 C 
HETATM    6  N2  UNL     1      23.439   3.698  51.793  1.00  0.00    -0.225 NA
HETATM    7  C8  UNL     1      24.070   2.891  51.016  1.00  0.00     0.129 C 
HETATM    8  C17 UNL     1      24.858   3.066  49.790  1.00  0.00     0.053 C 
HETATM    9  C18 UNL     1      25.514   4.075  49.194  1.00  0.00     0.042 C 
ENDROOT
BRANCH   7  10
HETATM   10  N3  UNL     1      23.982   1.547  51.441  1.00  0.00    -0.341 N 
HETATM   11  H12 UNL     1      23.175   0.981  51.060  1.00  0.00     0.167 HD
BRANCH  10  12
HETATM   12  C9  UNL     1      24.907   0.955  52.327  1.00  0.00     0.034 C 
HETATM   13  C10 UNL     1      24.410   0.447  53.444  1.00  0.00     0.037 C 
HETATM   14  C11 UNL     1      25.184  -0.207  54.494  1.00  0.00    -0.049 C 
HETATM   15  C12 UNL     1      24.416  -1.189  55.340  1.00  0.00     0.049 C 
HETATM   16  C13 UNL     1      26.438  -0.083  54.827  1.00  0.00    -0.019 C 
HETATM   17  C14 UNL     1      27.393   0.255  54.007  1.00  0.00     0.013 C 
HETATM   18  C15 UNL     1      27.359   0.687  52.615  1.00  0.00     0.003 C 
HETATM   19  C16 UNL     1      26.312   0.996  51.865  1.00  0.00     0.029 C 
ENDBRANCH  10  12
ENDBRANCH   7  10
BRANCH   1  20
HETATM   20  O2  UNL     1      26.779   6.026  48.970  1.00  0.00    -0.347 OA
BRANCH  20  21
HETATM   21  C3  UNL     1      27.789   5.149  48.507  1.00  0.00     0.201 C 
BRANCH  21  22
HETATM   22  C2  UNL     1      29.044   5.956  48.151  1.00  0.00     0.193 C 
BRANCH  22  23
HETATM   23  O1  UNL     1      30.139   5.423  48.822  1.00  0.00    -0.394 OA
HETATM   24  C1  UNL     1      31.129   6.423  48.866  1.00  0.00     0.201 C 
ENDBRANCH  22  23
ENDBRANCH  21  22
ENDBRANCH  20  21
ENDBRANCH   1  20
TORSDOF 6
ENDMDL
MODEL 9
REMARK VINA RESULT:      -6.8      5.372      7.823
REMARK  6 active torsions:
REMARK  status: ('A' for Active; 'I' for Inactive)
REMARK    1  A    between atoms: O1_2  and  C2_3 
REMARK    2  A    between atoms: C2_3  and  C3_4 
REMARK    3  A    between atoms: C3_4  and  O2_5 
REMARK    4  A    between atoms: O2_5  and  C4_6 
REMARK    5  A    between atoms: C8_12  and  N3_13 
REMARK    6  A    between atoms: N3_13  and  C9_14 
ROOT
HETATM    1  C4  UNL     1      27.533   7.423  49.047  1.00  0.00     0.093 C 
HETATM    2  C5  UNL     1      26.630   8.047  49.804  1.00  0.00     0.065 C 
HETATM    3  C6  UNL     1      27.026   9.411  50.219  1.00  0.00     0.073 C 
HETATM    4  N1  UNL     1      25.351   7.713  50.321  1.00  0.00    -0.244 NA
HETATM    5  C7  UNL     1      24.721   6.612  50.563  1.00  0.00     0.235 C 
HETATM    6  N2  UNL     1      25.025   5.229  50.419  1.00  0.00    -0.225 NA
HETATM    7  C8  UNL     1      25.868   4.579  49.697  1.00  0.00     0.129 C 
HETATM    8  C17 UNL     1      26.882   4.973  48.712  1.00  0.00     0.053 C 
HETATM    9  C18 UNL     1      27.568   6.089  48.419  1.00  0.00     0.042 C 
ENDROOT
BRANCH   7  10
HETATM   10  N3  UNL     1      25.797   3.183  49.904  1.00  0.00    -0.341 N 
HETATM   11  H12 UNL     1      25.675   2.582  49.043  1.00  0.00     0.167 HD
BRANCH  10  12
HETATM   12  C9  UNL     1      25.881   2.587  51.180  1.00  0.00     0.034 C 
HETATM   13  C10 UNL     1      27.086   2.529  51.725  1.00  0.00     0.037 C 
HETATM   14  C11 UNL     1      27.399   1.956  53.029  1.00  0.00    -0.049 C 
HETATM   15  C12 UNL     1      28.642   2.497  53.687  1.00  0.00     0.049 C 
HETATM   16  C13 UNL     1      26.778   1.048  53.729  1.00  0.00    -0.019 C 
HETATM   17  C14 UNL     1      25.498   0.811  53.669  1.00  0.00     0.013 C 
HETATM   18  C15 UNL     1      24.460   1.345  52.795  1.00  0.00     0.003 C 
HETATM   19  C16 UNL     1      24.589   2.109  51.720  1.00  0.00     0.029 C 
ENDBRANCH  10  12
ENDBRANCH   7  10
BRANCH   1  20
HETATM   20  O2  UNL     1      28.696   8.109  48.750  1.00  0.00    -0.347 OA
BRANCH  20  21
HETATM   21  C3  UNL     1      29.543   7.587  47.744  1.00  0.00     0.201 C 
BRANCH  21  22
HETATM   22  C2  UNL     1      30.941   8.205  47.881  1.00  0.00     0.193 C 
BRANCH  22  23
HETATM   23  O1  UNL     1      31.274   8.296  49.227  1.00  0.00    -0.394 OA
HETATM   24  C1  UNL     1      32.035   7.156  49.548  1.00  0.00     0.201 C 
ENDBRANCH  22  23
ENDBRANCH  21  22
ENDBRANCH  20  21
ENDBRANCH   1  20
TORSDOF 6
ENDMDL
