MODEL 1
REMARK VINA RESULT:      -9.5      0.000      0.000
REMARK  5 active torsions:
REMARK  status: ('A' for Active; 'I' for Inactive)
REMARK    1  A    between atoms: O1_2  and  C2_3 
REMARK    2  A    between atoms: C5_6  and  N1_7 
REMARK    3  A    between atoms: C9_12  and  N3_13 
REMARK    4  A    between atoms: N5_21  and  C16_22 
REMARK    5  A    between atoms: C19_25  and  O2_26 
ROOT
HETATM    1  N1  UNL     1      25.612   3.929  49.929  1.00  0.00    -0.295 N 
HETATM    2  C6  UNL     1      24.217   4.025  49.540  1.00  0.00     0.178 A 
HETATM    3  C7  UNL     1      23.421   3.045  50.282  1.00  0.00     0.025 A 
HETATM    4  C8  UNL     1      22.073   3.137  49.912  1.00  0.00     0.149 A 
HETATM    5  N2  UNL     1      21.129   2.322  50.469  1.00  0.00    -0.074 NA
HETATM    6  C9  UNL     1      21.515   1.404  51.404  1.00  0.00     0.730 A 
HETATM    7  N4  UNL     1      22.804   1.299  51.773  1.00  0.00    -0.044 NA
HETATM    8  C15 UNL     1      23.707   2.091  51.228  1.00  0.00     0.162 A 
HETATM    9  N5  UNL     1      25.111   2.060  51.556  1.00  0.00    -0.278 N 
HETATM   10  C21 UNL     1      25.977   2.975  50.893  1.00  0.00     0.331 A 
HETATM   11  O3  UNL     1      27.141   2.840  51.265  1.00  0.00    -0.246 OA
ENDROOT
BRANCH   1  12
HETATM   12  C5  UNL     1      26.502   4.812  49.303  1.00  0.00     0.039 A 
HETATM   13  C4  UNL     1      27.732   4.575  48.772  1.00  0.00     0.032 A 
HETATM   14  C3  UNL     1      28.556   5.474  48.173  1.00  0.00     0.039 A 
HETATM   15  C2  UNL     1      28.151   6.788  48.065  1.00  0.00     0.068 A 
HETATM   16  C23 UNL     1      26.923   7.139  48.570  1.00  0.00     0.039 A 
HETATM   17  C22 UNL     1      26.152   6.163  49.160  1.00  0.00     0.032 A 
BRANCH  15  18
HETATM   18  O1  UNL     1      28.923   7.758  47.475  1.00  0.00    -0.356 OA
HETATM   19  C1  UNL     1      29.855   8.577  48.146  1.00  0.00     0.210 C 
ENDBRANCH  15  18
ENDBRANCH   1  12
BRANCH   9  20
HETATM   20  C16 UNL     1      25.532   1.101  52.535  1.00  0.00     0.099 C 
HETATM   21  C17 UNL     1      26.184   1.616  53.760  1.00  0.00     0.028 C 
HETATM   22  C18 UNL     1      26.523   0.284  54.449  1.00  0.00     0.034 C 
HETATM   23  C19 UNL     1      26.863  -0.659  53.301  1.00  0.00     0.120 C 
HETATM   24  C20 UNL     1      26.484   0.068  52.022  1.00  0.00     0.057 C 
BRANCH  23  25
HETATM   25  O2  UNL     1      28.207  -1.006  53.313  1.00  0.00    -0.396 OA
HETATM   26  H21 UNL     1      28.370  -1.485  54.146  1.00  0.00     0.210 HD
ENDBRANCH  23  25
ENDBRANCH   9  20
BRANCH   6  27
HETATM   27  N3  UNL     1      20.609   0.507  52.044  1.00  0.00    -0.186 N 
HETATM   28  C10 UNL     1      19.250   0.331  51.638  1.00  0.00     0.109 A 
HETATM   29  C11 UNL     1      18.449  -0.506  52.253  1.00  0.00     0.018 A 
HETATM   30  C12 UNL     1      18.888  -1.310  53.387  1.00  0.00    -0.001 A 
HETATM   31  C13 UNL     1      20.144  -1.152  53.767  1.00  0.00    -0.006 A 
HETATM   32  C14 UNL     1      21.142  -0.247  53.161  1.00  0.00     0.174 A 
ENDBRANCH   6  27
TORSDOF 5
ENDMDL
MODEL 2
REMARK VINA RESULT:      -9.4      2.316      8.295
REMARK  5 active torsions:
REMARK  status: ('A' for Active; 'I' for Inactive)
REMARK    1  A    between atoms: O1_2  and  C2_3 
REMARK    2  A    between atoms: C5_6  and  N1_7 
REMARK    3  A    between atoms: C9_12  and  N3_13 
REMARK    4  A    between atoms: N5_21  and  C16_22 
REMARK    5  A    between atoms: C19_25  and  O2_26 
ROOT
HETATM    1  N1  UNL     1      22.399   1.330  51.800  1.00  0.00    -0.295 N 
HETATM    2  C6  UNL     1      22.130   2.403  50.861  1.00  0.00     0.178 A 
HETATM    3  C7  UNL     1      23.382   3.059  50.478  1.00  0.00     0.025 A 
HETATM    4  C8  UNL     1      23.127   4.093  49.568  1.00  0.00     0.149 A 
HETATM    5  N2  UNL     1      24.139   4.857  49.061  1.00  0.00    -0.074 NA
HETATM    6  C9  UNL     1      25.422   4.600  49.454  1.00  0.00     0.730 A 
HETATM    7  N4  UNL     1      25.689   3.612  50.326  1.00  0.00    -0.044 NA
HETATM    8  C15 UNL     1      24.703   2.882  50.809  1.00  0.00     0.162 A 
HETATM    9  N5  UNL     1      24.883   1.800  51.747  1.00  0.00    -0.278 N 
HETATM   10  C21 UNL     1      23.729   1.091  52.185  1.00  0.00     0.331 A 
HETATM   11  O3  UNL     1      24.026   0.200  52.978  1.00  0.00    -0.246 OA
ENDROOT
BRANCH   1  12
HETATM   12  C5  UNL     1      21.294   0.601  52.258  1.00  0.00     0.039 A 
HETATM   13  C4  UNL     1      21.176  -0.209  53.346  1.00  0.00     0.032 A 
HETATM   14  C3  UNL     1      20.073  -0.893  53.744  1.00  0.00     0.039 A 
HETATM   15  C2  UNL     1      18.915  -0.794  53.002  1.00  0.00     0.068 A 
HETATM   16  C23 UNL     1      18.922  -0.001  51.881  1.00  0.00     0.039 A 
HETATM   17  C22 UNL     1      20.084   0.659  51.550  1.00  0.00     0.032 A 
BRANCH  15  18
HETATM   18  O1  UNL     1      17.758  -1.453  53.336  1.00  0.00    -0.356 OA
HETATM   19  C1  UNL     1      17.667  -2.820  53.671  1.00  0.00     0.210 C 
ENDBRANCH  15  18
ENDBRANCH   1  12
BRANCH   9  20
HETATM   20  C16 UNL     1      26.224   1.519  52.169  1.00  0.00     0.099 C 
HETATM   21  C17 UNL     1      26.660   0.105  52.164  1.00  0.00     0.028 C 
HETATM   22  C18 UNL     1      28.073   0.270  52.745  1.00  0.00     0.034 C 
HETATM   23  C19 UNL     1      27.937   1.405  53.753  1.00  0.00     0.120 C 
HETATM   24  C20 UNL     1      26.552   1.996  53.548  1.00  0.00     0.057 C 
BRANCH  23  25
HETATM   25  O2  UNL     1      28.110   0.949  55.053  1.00  0.00    -0.396 OA
HETATM   26  H21 UNL     1      27.530   0.174  55.163  1.00  0.00     0.210 HD
ENDBRANCH  23  25
ENDBRANCH   9  20
BRANCH   6  27
HETATM   27  N3  UNL     1      26.549   5.338  48.986  1.00  0.00    -0.186 N 
HETATM   28  C10 UNL     1      27.795   4.737  48.623  1.00  0.00     0.109 A 
HETATM   29  C11 UNL     1      28.807   5.453  48.196  1.00  0.00     0.018 A 
HETATM   30  C12 UNL     1      28.732   6.903  48.061  1.00  0.00    -0.001 A 
HETATM   31  C13 UNL     1      27.583   7.464  48.394  1.00  0.00    -0.006 A 
HETATM   32  C14 UNL     1      26.373   6.774  48.887  1.00  0.00     0.174 A 
ENDBRANCH   6  27
TORSDOF 5
ENDMDL
MODEL 3
REMARK VINA RESULT:      -9.2      3.337      9.011
REMARK  5 active torsions:
REMARK  status: ('A' for Active; 'I' for Inactive)
REMARK    1  A    between atoms: O1_2  and  C2_3 
REMARK    2  A    between atoms: C5_6  and  N1_7 
REMARK    3  A    between atoms: C9_12  and  N3_13 
REMARK    4  A    between atoms: N5_21  and  C16_22 
REMARK    5  A    between atoms: C19_25  and  O2_26 
ROOT
HETATM    1  N1  UNL     1      20.452   0.376  52.264  1.00  0.00    -0.295 N 
HETATM    2  C6  UNL     1      21.300  -0.545  52.999  1.00  0.00     0.178 A 
HETATM    3  C7  UNL     1      22.651   0.008  53.123  1.00  0.00     0.025 A 
HETATM    4  C8  UNL     1      23.471  -0.876  53.836  1.00  0.00     0.149 A 
HETATM    5  N2  UNL     1      24.782  -0.582  54.083  1.00  0.00    -0.074 NA
HETATM    6  C9  UNL     1      25.293   0.598  53.624  1.00  0.00     0.730 A 
HETATM    7  N4  UNL     1      24.523   1.460  52.938  1.00  0.00    -0.044 NA
HETATM    8  C15 UNL     1      23.259   1.166  52.705  1.00  0.00     0.162 A 
HETATM    9  N5  UNL     1      22.350   2.022  51.982  1.00  0.00    -0.278 N 
HETATM   10  C21 UNL     1      21.008   1.581  51.805  1.00  0.00     0.331 A 
HETATM   11  O3  UNL     1      20.347   2.404  51.174  1.00  0.00    -0.246 OA
ENDROOT
BRANCH   1  12
HETATM   12  C5  UNL     1      19.121  -0.015  52.067  1.00  0.00     0.039 A 
HETATM   13  C4  UNL     1      18.277   0.264  51.036  1.00  0.00     0.032 A 
HETATM   14  C3  UNL     1      16.990  -0.144  50.896  1.00  0.00     0.039 A 
HETATM   15  C2  UNL     1      16.423  -0.931  51.877  1.00  0.00     0.068 A 
HETATM   16  C23 UNL     1      17.187  -1.273  52.965  1.00  0.00     0.039 A 
HETATM   17  C22 UNL     1      18.485  -0.817  53.027  1.00  0.00     0.032 A 
BRANCH  15  18
HETATM   18  O1  UNL     1      15.129  -1.385  51.812  1.00  0.00    -0.356 OA
HETATM   19  C1  UNL     1      14.678  -2.632  52.293  1.00  0.00     0.210 C 
ENDBRANCH  15  18
ENDBRANCH   1  12
BRANCH   9  20
HETATM   20  C16 UNL     1      22.873   3.264  51.493  1.00  0.00     0.099 C 
HETATM   21  C17 UNL     1      24.290   3.286  51.064  1.00  0.00     0.028 C 
HETATM   22  C18 UNL     1      24.427   4.776  50.710  1.00  0.00     0.034 C 
HETATM   23  C19 UNL     1      23.545   5.488  51.729  1.00  0.00     0.120 C 
HETATM   24  C20 UNL     1      22.766   4.404  52.455  1.00  0.00     0.057 C 
BRANCH  23  25
HETATM   25  O2  UNL     1      24.303   6.248  52.610  1.00  0.00    -0.396 OA
HETATM   26  H21 UNL     1      24.659   5.637  53.281  1.00  0.00     0.210 HD
ENDBRANCH  23  25
ENDBRANCH   9  20
BRANCH   6  27
HETATM   27  N3  UNL     1      26.647   0.998  53.827  1.00  0.00    -0.186 N 
HETATM   28  C10 UNL     1      27.211   2.192  53.278  1.00  0.00     0.109 A 
HETATM   29  C11 UNL     1      28.462   2.525  53.489  1.00  0.00     0.018 A 
HETATM   30  C12 UNL     1      29.359   1.705  54.296  1.00  0.00    -0.001 A 
HETATM   31  C13 UNL     1      28.843   0.601  54.806  1.00  0.00    -0.006 A 
HETATM   32  C14 UNL     1      27.457   0.116  54.643  1.00  0.00     0.174 A 
ENDBRANCH   6  27
TORSDOF 5
ENDMDL
MODEL 4
REMARK VINA RESULT:      -8.8      4.259      6.493
REMARK  5 active torsions:
REMARK  status: ('A' for Active; 'I' for Inactive)
REMARK    1  A    between atoms: O1_2  and  C2_3 
REMARK    2  A    between atoms: C5_6  and  N1_7 
REMARK    3  A    between atoms: C9_12  and  N3_13 
REMARK    4  A    between atoms: N5_21  and  C16_22 
REMARK    5  A    between atoms: C19_25  and  O2_26 
ROOT
HETATM    1  N1  UNL     1      23.978   0.219  52.960  1.00  0.00    -0.295 N 
HETATM    2  C6  UNL     1      23.044  -0.592  53.719  1.00  0.00     0.178 A 
HETATM    3  C7  UNL     1      21.684  -0.397  53.211  1.00  0.00     0.025 A 
HETATM    4  C8  UNL     1      20.780  -1.181  53.939  1.00  0.00     0.149 A 
HETATM    5  N2  UNL     1      19.444  -1.172  53.653  1.00  0.00    -0.074 NA
HETATM    6  C9  UNL     1      18.991  -0.381  52.636  1.00  0.00     0.730 A 
HETATM    7  N4  UNL     1      19.842   0.380  51.925  1.00  0.00    -0.044 NA
HETATM    8  C15 UNL     1      21.129   0.363  52.211  1.00  0.00     0.162 A 
HETATM    9  N5  UNL     1      22.123   1.138  51.508  1.00  0.00    -0.278 N 
HETATM   10  C21 UNL     1      23.481   1.022  51.920  1.00  0.00     0.331 A 
HETATM   11  O3  UNL     1      24.217   1.734  51.240  1.00  0.00    -0.246 OA
ENDROOT
BRANCH   1  12
HETATM   12  C5  UNL     1      25.328   0.135  53.328  1.00  0.00     0.039 A 
HETATM   13  C4  UNL     1      26.026   0.863  54.241  1.00  0.00     0.032 A 
HETATM   14  C3  UNL     1      27.340   0.738  54.560  1.00  0.00     0.039 A 
HETATM   15  C2  UNL     1      28.100  -0.217  53.917  1.00  0.00     0.068 A 
HETATM   16  C23 UNL     1      27.494  -1.009  52.973  1.00  0.00     0.039 A 
HETATM   17  C22 UNL     1      26.156  -0.816  52.713  1.00  0.00     0.032 A 
BRANCH  15  18
HETATM   18  O1  UNL     1      29.434  -0.408  54.180  1.00  0.00    -0.356 OA
HETATM   19  C1  UNL     1      30.195  -1.519  53.763  1.00  0.00     0.210 C 
ENDBRANCH  15  18
ENDBRANCH   1  12
BRANCH   9  20
HETATM   20  C16 UNL     1      21.662   1.974  50.439  1.00  0.00     0.099 C 
HETATM   21  C17 UNL     1      20.752   3.088  50.787  1.00  0.00     0.028 C 
HETATM   22  C18 UNL     1      20.466   3.635  49.380  1.00  0.00     0.034 C 
HETATM   23  C19 UNL     1      20.446   2.397  48.491  1.00  0.00     0.120 C 
HETATM   24  C20 UNL     1      20.945   1.246  49.347  1.00  0.00     0.057 C 
BRANCH  23  25
HETATM   25  O2  UNL     1      19.172   2.151  47.996  1.00  0.00    -0.396 OA
HETATM   26  H21 UNL     1      19.282   1.719  47.129  1.00  0.00     0.210 HD
ENDBRANCH  23  25
ENDBRANCH   9  20
BRANCH   6  27
HETATM   27  N3  UNL     1      17.618  -0.298  52.258  1.00  0.00    -0.186 N 
HETATM   28  C10 UNL     1      16.640  -1.281  52.607  1.00  0.00     0.109 A 
HETATM   29  C11 UNL     1      15.386  -1.167  52.240  1.00  0.00     0.018 A 
HETATM   30  C12 UNL     1      14.906  -0.035  51.456  1.00  0.00    -0.001 A 
HETATM   31  C13 UNL     1      15.805   0.877  51.131  1.00  0.00    -0.006 A 
HETATM   32  C14 UNL     1      17.240   0.865  51.480  1.00  0.00     0.174 A 
ENDBRANCH   6  27
TORSDOF 5
ENDMDL
MODEL 5
REMARK VINA RESULT:      -8.7      2.316      4.173
REMARK  5 active torsions:
REMARK  status: ('A' for Active; 'I' for Inactive)
REMARK    1  A    between atoms: O1_2  and  C2_3 
REMARK    2  A    between atoms: C5_6  and  N1_7 
REMARK    3  A    between atoms: C9_12  and  N3_13 
REMARK    4  A    between atoms: N5_21  and  C16_22 
REMARK    5  A    between atoms: C19_25  and  O2_26 
ROOT
HETATM    1  N1  UNL     1      25.662   4.433  49.516  1.00  0.00    -0.295 N 
HETATM    2  C6  UNL     1      26.168   3.560  50.559  1.00  0.00     0.178 A 
HETATM    3  C7  UNL     1      25.081   2.738  51.097  1.00  0.00     0.025 A 
HETATM    4  C8  UNL     1      25.567   1.891  52.100  1.00  0.00     0.149 A 
HETATM    5  N2  UNL     1      24.740   1.025  52.758  1.00  0.00    -0.074 NA
HETATM    6  C9  UNL     1      23.417   0.991  52.422  1.00  0.00     0.730 A 
HETATM    7  N4  UNL     1      22.930   1.796  51.462  1.00  0.00    -0.044 NA
HETATM    8  C15 UNL     1      23.738   2.628  50.835  1.00  0.00     0.162 A 
HETATM    9  N5  UNL     1      23.316   3.530  49.790  1.00  0.00    -0.278 N 
HETATM   10  C21 UNL     1      24.295   4.375  49.195  1.00  0.00     0.331 A 
HETATM   11  O3  UNL     1      23.801   5.088  48.324  1.00  0.00    -0.246 OA
ENDROOT
BRANCH   1  12
HETATM   12  C5  UNL     1      26.591   5.281  48.899  1.00  0.00     0.039 A 
HETATM   13  C4  UNL     1      26.440   6.560  48.458  1.00  0.00     0.032 A 
HETATM   14  C3  UNL     1      27.381   7.340  47.864  1.00  0.00     0.039 A 
HETATM   15  C2  UNL     1      28.646   6.829  47.661  1.00  0.00     0.068 A 
HETATM   16  C23 UNL     1      28.908   5.545  48.069  1.00  0.00     0.039 A 
HETATM   17  C22 UNL     1      27.896   4.825  48.664  1.00  0.00     0.032 A 
BRANCH  15  18
HETATM   18  O1  UNL     1      29.653   7.551  47.069  1.00  0.00    -0.356 OA
HETATM   19  C1  UNL     1      30.468   8.500  47.721  1.00  0.00     0.210 C 
ENDBRANCH  15  18
ENDBRANCH   1  12
BRANCH   9  20
HETATM   20  C16 UNL     1      21.929   3.506  49.429  1.00  0.00     0.099 C 
HETATM   21  C17 UNL     1      20.944   3.861  50.475  1.00  0.00     0.028 C 
HETATM   22  C18 UNL     1      19.642   3.628  49.691  1.00  0.00     0.034 C 
HETATM   23  C19 UNL     1      19.952   2.439  48.790  1.00  0.00     0.120 C 
HETATM   24  C20 UNL     1      21.447   2.191  48.906  1.00  0.00     0.057 C 
BRANCH  23  25
HETATM   25  O2  UNL     1      19.219   1.319  49.160  1.00  0.00    -0.396 OA
HETATM   26  H21 UNL     1      19.834   0.563  49.158  1.00  0.00     0.210 HD
ENDBRANCH  23  25
ENDBRANCH   9  20
BRANCH   6  27
HETATM   27  N3  UNL     1      22.471   0.125  53.048  1.00  0.00    -0.186 N 
HETATM   28  C10 UNL     1      22.828  -0.891  53.988  1.00  0.00     0.109 A 
HETATM   29  C11 UNL     1      21.927  -1.666  54.542  1.00  0.00     0.018 A 
HETATM   30  C12 UNL     1      20.505  -1.546  54.238  1.00  0.00    -0.001 A 
HETATM   31  C13 UNL     1      20.169  -0.608  53.370  1.00  0.00    -0.006 A 
HETATM   32  C14 UNL     1      21.083   0.325  52.680  1.00  0.00     0.174 A 
ENDBRANCH   6  27
TORSDOF 5
ENDMDL
MODEL 6
REMARK VINA RESULT:      -8.4      3.060      6.275
REMARK  5 active torsions:
REMARK  status: ('A' for Active; 'I' for Inactive)
REMARK    1  A    between atoms: O1_2  and  C2_3 
REMARK    2  A    between atoms: C5_6  and  N1_7 
REMARK    3  A    between atoms: C9_12  and  N3_13 
REMARK    4  A    between atoms: N5_21  and  C16_22 
REMARK    5  A    between atoms: C19_25  and  O2_26 
ROOT
HETATM    1  N1  UNL     1      24.059   1.129  52.625  1.00  0.00    -0.295 N 
HETATM    2  C6  UNL     1      22.896   0.293  52.857  1.00  0.00     0.178 A 
HETATM    3  C7  UNL     1      21.681   0.995  52.436  1.00  0.00     0.025 A 
HETATM    4  C8  UNL     1      20.557   0.189  52.654  1.00  0.00     0.149 A 
HETATM    5  N2  UNL     1      19.301   0.625  52.341  1.00  0.00    -0.074 NA
HETATM    6  C9  UNL     1      19.149   1.872  51.803  1.00  0.00     0.730 A 
HETATM    7  N4  UNL     1      20.215   2.662  51.586  1.00  0.00    -0.044 NA
HETATM    8  C15 UNL     1      21.423   2.230  51.893  1.00  0.00     0.162 A 
HETATM    9  N5  UNL     1      22.629   2.996  51.697  1.00  0.00    -0.278 N 
HETATM   10  C21 UNL     1      23.869   2.406  52.071  1.00  0.00     0.331 A 
HETATM   11  O3  UNL     1      24.811   3.166  51.851  1.00  0.00    -0.246 OA
ENDROOT
BRANCH   1  12
HETATM   12  C5  UNL     1      25.303   0.589  52.976  1.00  0.00     0.039 A 
HETATM   13  C4  UNL     1      26.176  -0.141  52.228  1.00  0.00     0.032 A 
HETATM   14  C3  UNL     1      27.375  -0.642  52.621  1.00  0.00     0.039 A 
HETATM   15  C2  UNL     1      27.807  -0.416  53.912  1.00  0.00     0.068 A 
HETATM   16  C23 UNL     1      27.003   0.310  54.754  1.00  0.00     0.039 A 
HETATM   17  C22 UNL     1      25.802   0.782  54.273  1.00  0.00     0.032 A 
BRANCH  15  18
HETATM   18  O1  UNL     1      29.006  -0.887  54.388  1.00  0.00    -0.356 OA
HETATM   19  C1  UNL     1      30.210  -0.939  53.655  1.00  0.00     0.210 C 
ENDBRANCH  15  18
ENDBRANCH   1  12
BRANCH   9  20
HETATM   20  C16 UNL     1      22.485   4.307  51.135  1.00  0.00     0.099 C 
HETATM   21  C17 UNL     1      23.238   4.606  49.896  1.00  0.00     0.028 C 
HETATM   22  C18 UNL     1      22.859   6.085  49.716  1.00  0.00     0.034 C 
HETATM   23  C19 UNL     1      22.765   6.626  51.138  1.00  0.00     0.120 C 
HETATM   24  C20 UNL     1      22.851   5.423  52.062  1.00  0.00     0.057 C 
BRANCH  23  25
HETATM   25  O2  UNL     1      23.776   7.543  51.397  1.00  0.00    -0.396 OA
HETATM   26  H21 UNL     1      23.612   7.901  52.289  1.00  0.00     0.210 HD
ENDBRANCH  23  25
ENDBRANCH   9  20
BRANCH   6  27
HETATM   27  N3  UNL     1      17.883   2.422  51.443  1.00  0.00    -0.186 N 
HETATM   28  C10 UNL     1      17.637   3.824  51.310  1.00  0.00     0.109 A 
HETATM   29  C11 UNL     1      16.458   4.289  50.975  1.00  0.00     0.018 A 
HETATM   30  C12 UNL     1      15.322   3.412  50.715  1.00  0.00    -0.001 A 
HETATM   31  C13 UNL     1      15.543   2.115  50.836  1.00  0.00    -0.006 A 
HETATM   32  C14 UNL     1      16.819   1.467  51.205  1.00  0.00     0.174 A 
ENDBRANCH   6  27
TORSDOF 5
ENDMDL
MODEL 7
REMARK VINA RESULT:      -8.2      2.273      3.517
REMARK  5 active torsions:
REMARK  status: ('A' for Active; 'I' for Inactive)
REMARK    1  A    between atoms: O1_2  and  C2_3 
REMARK    2  A    between atoms: C5_6  and  N1_7 
REMARK    3  A    between atoms: C9_12  and  N3_13 
REMARK    4  A    between atoms: N5_21  and  C16_22 
REMARK    5  A    between atoms: C19_25  and  O2_26 
ROOT
HETATM    1  N1  UNL     1      23.118   3.765  50.742  1.00  0.00    -0.295 N 
HETATM    2  C6  UNL     1      21.893   3.766  49.963  1.00  0.00     0.178 A 
HETATM    3  C7  UNL     1      20.980   2.736  50.463  1.00  0.00     0.025 A 
HETATM    4  C8  UNL     1      19.795   2.737  49.717  1.00  0.00     0.149 A 
HETATM    5  N2  UNL     1      18.783   1.862  49.992  1.00  0.00    -0.074 NA
HETATM    6  C9  UNL     1      18.938   0.974  51.018  1.00  0.00     0.730 A 
HETATM    7  N4  UNL     1      20.068   0.956  51.748  1.00  0.00    -0.044 NA
HETATM    8  C15 UNL     1      21.038   1.806  51.471  1.00  0.00     0.162 A 
HETATM    9  N5  UNL     1      22.285   1.869  52.193  1.00  0.00    -0.278 N 
HETATM   10  C21 UNL     1      23.247   2.839  51.790  1.00  0.00     0.331 A 
HETATM   11  O3  UNL     1      24.258   2.783  52.487  1.00  0.00    -0.246 OA
ENDROOT
BRANCH   1  12
HETATM   12  C5  UNL     1      24.093   4.705  50.383  1.00  0.00     0.039 A 
HETATM   13  C4  UNL     1      24.249   5.994  50.790  1.00  0.00     0.032 A 
HETATM   14  C3  UNL     1      25.219   6.864  50.407  1.00  0.00     0.039 A 
HETATM   15  C2  UNL     1      26.179   6.448  49.508  1.00  0.00     0.068 A 
HETATM   16  C23 UNL     1      26.116   5.163  49.031  1.00  0.00     0.039 A 
HETATM   17  C22 UNL     1      25.099   4.346  49.473  1.00  0.00     0.032 A 
BRANCH  15  18
HETATM   18  O1  UNL     1      27.193   7.265  49.071  1.00  0.00    -0.356 OA
HETATM   19  C1  UNL     1      28.164   6.914  48.110  1.00  0.00     0.210 C 
ENDBRANCH  15  18
ENDBRANCH   1  12
BRANCH   9  20
HETATM   20  C16 UNL     1      22.463   0.942  53.272  1.00  0.00     0.099 C 
HETATM   21  C17 UNL     1      23.150  -0.334  52.969  1.00  0.00     0.028 C 
HETATM   22  C18 UNL     1      23.045  -1.014  54.344  1.00  0.00     0.034 C 
HETATM   23  C19 UNL     1      21.694  -0.560  54.887  1.00  0.00     0.120 C 
HETATM   24  C20 UNL     1      21.195   0.523  53.944  1.00  0.00     0.057 C 
BRANCH  23  25
HETATM   25  O2  UNL     1      20.800  -1.619  54.967  1.00  0.00    -0.396 OA
HETATM   26  H21 UNL     1      20.876  -2.120  54.134  1.00  0.00     0.210 HD
ENDBRANCH  23  25
ENDBRANCH   9  20
BRANCH   6  27
HETATM   27  N3  UNL     1      17.945   0.019  51.387  1.00  0.00    -0.186 N 
HETATM   28  C10 UNL     1      18.028  -0.800  52.556  1.00  0.00     0.109 A 
HETATM   29  C11 UNL     1      17.091  -1.666  52.860  1.00  0.00     0.018 A 
HETATM   30  C12 UNL     1      15.906  -1.851  52.031  1.00  0.00    -0.001 A 
HETATM   31  C13 UNL     1      15.823  -1.097  50.950  1.00  0.00    -0.006 A 
HETATM   32  C14 UNL     1      16.805  -0.089  50.499  1.00  0.00     0.174 A 
ENDBRANCH   6  27
TORSDOF 5
ENDMDL
MODEL 8
REMARK VINA RESULT:      -8.0      2.854      9.300
REMARK  5 active torsions:
REMARK  status: ('A' for Active; 'I' for Inactive)
REMARK    1  A    between atoms: O1_2  and  C2_3 
REMARK    2  A    between atoms: C5_6  and  N1_7 
REMARK    3  A    between atoms: C9_12  and  N3_13 
REMARK    4  A    between atoms: N5_21  and  C16_22 
REMARK    5  A    between atoms: C19_25  and  O2_26 
ROOT
HETATM    1  N1  UNL     1      22.750   2.361  51.408  1.00  0.00    -0.295 N 
HETATM    2  C6  UNL     1      24.144   2.001  51.221  1.00  0.00     0.178 A 
HETATM    3  C7  UNL     1      24.847   3.072  50.510  1.00  0.00     0.025 A 
HETATM    4  C8  UNL     1      26.193   2.729  50.331  1.00  0.00     0.149 A 
HETATM    5  N2  UNL     1      27.058   3.570  49.691  1.00  0.00    -0.074 NA
HETATM    6  C9  UNL     1      26.594   4.766  49.222  1.00  0.00     0.730 A 
HETATM    7  N4  UNL     1      25.305   5.114  49.383  1.00  0.00    -0.044 NA
HETATM    8  C15 UNL     1      24.479   4.293  50.002  1.00  0.00     0.162 A 
HETATM    9  N5  UNL     1      23.081   4.572  50.228  1.00  0.00    -0.278 N 
HETATM   10  C21 UNL     1      22.303   3.597  50.913  1.00  0.00     0.331 A 
HETATM   11  O3  UNL     1      21.135   3.963  51.036  1.00  0.00    -0.246 OA
ENDROOT
BRANCH   1  12
HETATM   12  C5  UNL     1      21.945   1.433  52.081  1.00  0.00     0.039 A 
HETATM   13  C4  UNL     1      22.082   0.907  53.329  1.00  0.00     0.032 A 
HETATM   14  C3  UNL     1      21.266   0.005  53.934  1.00  0.00     0.039 A 
HETATM   15  C2  UNL     1      20.161  -0.463  53.255  1.00  0.00     0.068 A 
HETATM   16  C23 UNL     1      19.926   0.003  51.985  1.00  0.00     0.039 A 
HETATM   17  C22 UNL     1      20.804   0.917  51.448  1.00  0.00     0.032 A 
BRANCH  15  18
HETATM   18  O1  UNL     1      19.287  -1.374  53.795  1.00  0.00    -0.356 OA
HETATM   19  C1  UNL     1      17.975  -1.616  53.335  1.00  0.00     0.210 C 
ENDBRANCH  15  18
ENDBRANCH   1  12
BRANCH   9  20
HETATM   20  C16 UNL     1      22.579   5.823  49.739  1.00  0.00     0.099 C 
HETATM   21  C17 UNL     1      22.558   6.025  48.273  1.00  0.00     0.028 C 
HETATM   22  C18 UNL     1      22.042   7.472  48.220  1.00  0.00     0.034 C 
HETATM   23  C19 UNL     1      22.663   8.138  49.442  1.00  0.00     0.120 C 
HETATM   24  C20 UNL     1      23.296   7.026  50.262  1.00  0.00     0.057 C 
BRANCH  23  25
HETATM   25  O2  UNL     1      23.598   9.098  49.075  1.00  0.00    -0.396 OA
HETATM   26  H21 UNL     1      24.476   8.739  49.297  1.00  0.00     0.210 HD
ENDBRANCH  23  25
ENDBRANCH   9  20
BRANCH   6  27
HETATM   27  N3  UNL     1      27.413   5.713  48.540  1.00  0.00    -0.186 N 
HETATM   28  C10 UNL     1      28.815   5.534  48.318  1.00  0.00     0.109 A 
HETATM   29  C11 UNL     1      29.534   6.430  47.685  1.00  0.00     0.018 A 
HETATM   30  C12 UNL     1      28.956   7.664  47.166  1.00  0.00    -0.001 A 
HETATM   31  C13 UNL     1      27.661   7.835  47.368  1.00  0.00    -0.006 A 
HETATM   32  C14 UNL     1      26.745   6.907  48.062  1.00  0.00     0.174 A 
ENDBRANCH   6  27
TORSDOF 5
ENDMDL
MODEL 9
REMARK VINA RESULT:      -7.8      5.769     12.141
REMARK  5 active torsions:
REMARK  status: ('A' for Active; 'I' for Inactive)
REMARK    1  A    between atoms: O1_2  and  C2_3 
REMARK    2  A    between atoms: C5_6  and  N1_7 
REMARK    3  A    between atoms: C9_12  and  N3_13 
REMARK    4  A    between atoms: N5_21  and  C16_22 
REMARK    5  A    between atoms: C19_25  and  O2_26 
ROOT
HETATM    1  N1  UNL     1      29.379   6.589  47.632  1.00  0.00    -0.295 N 
HETATM    2  C6  UNL     1      29.262   7.892  47.004  1.00  0.00     0.178 A 
HETATM    3  C7  UNL     1      30.541   8.276  46.404  1.00  0.00     0.025 A 
HETATM    4  C8  UNL     1      30.431   9.532  45.794  1.00  0.00     0.149 A 
HETATM    5  N2  UNL     1      31.496  10.109  45.163  1.00  0.00    -0.074 NA
HETATM    6  C9  UNL     1      32.687   9.441  45.131  1.00  0.00     0.730 A 
HETATM    7  N4  UNL     1      32.815   8.235  45.711  1.00  0.00    -0.044 NA
HETATM    8  C15 UNL     1      31.779   7.688  46.317  1.00  0.00     0.162 A 
HETATM    9  N5  UNL     1      31.811   6.401  46.967  1.00  0.00    -0.278 N 
HETATM   10  C21 UNL     1      30.618   5.928  47.583  1.00  0.00     0.331 A 
HETATM   11  O3  UNL     1      30.786   4.823  48.096  1.00  0.00    -0.246 OA
ENDROOT
BRANCH   1  12
HETATM   12  C5  UNL     1      28.228   6.081  48.249  1.00  0.00     0.039 A 
HETATM   13  C4  UNL     1      27.909   4.798  48.571  1.00  0.00     0.032 A 
HETATM   14  C3  UNL     1      26.773   4.360  49.172  1.00  0.00     0.039 A 
HETATM   15  C2  UNL     1      25.800   5.275  49.517  1.00  0.00     0.068 A 
HETATM   16  C23 UNL     1      26.019   6.601  49.237  1.00  0.00     0.039 A 
HETATM   17  C22 UNL     1      27.200   6.958  48.626  1.00  0.00     0.032 A 
BRANCH  15  18
HETATM   18  O1  UNL     1      24.623   4.916  50.128  1.00  0.00    -0.356 OA
HETATM   19  C1  UNL     1      23.921   5.699  51.067  1.00  0.00     0.210 C 
ENDBRANCH  15  18
ENDBRANCH   1  12
BRANCH   9  20
HETATM   20  C16 UNL     1      33.055   5.689  46.943  1.00  0.00     0.099 C 
HETATM   21  C17 UNL     1      33.069   4.360  46.290  1.00  0.00     0.028 C 
HETATM   22  C18 UNL     1      34.526   3.954  46.566  1.00  0.00     0.034 C 
HETATM   23  C19 UNL     1      34.827   4.539  47.941  1.00  0.00     0.120 C 
HETATM   24  C20 UNL     1      33.653   5.438  48.291  1.00  0.00     0.057 C 
BRANCH  23  25
HETATM   25  O2  UNL     1      35.004   3.539  48.888  1.00  0.00    -0.396 OA
HETATM   26  H21 UNL     1      35.765   3.800  49.438  1.00  0.00     0.210 HD
ENDBRANCH  23  25
ENDBRANCH   9  20
BRANCH   6  27
HETATM   27  N3  UNL     1      33.858   9.956  44.500  1.00  0.00    -0.186 N 
HETATM   28  C10 UNL     1      35.140   9.327  44.576  1.00  0.00     0.109 A 
HETATM   29  C11 UNL     1      36.193   9.833  43.980  1.00  0.00     0.018 A 
HETATM   30  C12 UNL     1      36.129  11.064  43.202  1.00  0.00    -0.001 A 
HETATM   31  C13 UNL     1      34.947  11.650  43.128  1.00  0.00    -0.006 A 
HETATM   32  C14 UNL     1      33.690  11.185  43.750  1.00  0.00     0.174 A 
ENDBRANCH   6  27
TORSDOF 5
ENDMDL
