MODEL 1
REMARK VINA RESULT:     -10.0      0.000      0.000
REMARK  4 active torsions:
REMARK  status: ('A' for Active; 'I' for Inactive)
REMARK    1  A    between atoms: N1_1  and  C1_2 
REMARK    2  A    between atoms: C3_4  and  C4_5 
REMARK    3  A    between atoms: C7_8  and  O1_9 
REMARK    4  A    between atoms: O1_9  and  C8_10 
ROOT
HETATM    1  C1  UNL     1      23.755   6.045  51.783  1.00  0.00     0.145 A 
HETATM    2  C2  UNL     1      23.499   5.139  50.859  1.00  0.00     0.111 A 
HETATM    3  C3  UNL     1      23.333   3.962  51.693  1.00  0.00     0.097 C 
HETATM    4  N2  UNL     1      22.275   3.481  52.146  1.00  0.00    -0.258 NA
HETATM    5  C16 UNL     1      20.938   3.882  52.021  1.00  0.00     0.123 C 
HETATM    6  C17 UNL     1      20.100   4.151  51.038  1.00  0.00     0.093 C 
HETATM    7  C18 UNL     1      20.458   4.073  49.657  1.00  0.00     0.244 C 
HETATM    8  O2  UNL     1      19.524   4.342  48.951  1.00  0.00    -0.268 OA
HETATM    9  N3  UNL     1      21.199   3.891  48.420  1.00  0.00    -0.347 N 
HETATM   10  C19 UNL     1      20.796   3.963  46.983  1.00  0.00     0.126 C 
HETATM   11  C20 UNL     1      21.648   5.002  46.302  1.00  0.00     0.022 C 
HETATM   12  C21 UNL     1      22.454   5.798  47.302  1.00  0.00     0.029 C 
HETATM   13  C22 UNL     1      23.268   4.942  48.217  1.00  0.00     0.109 C 
HETATM   14  C23 UNL     1      22.593   3.593  48.288  1.00  0.00     0.151 C 
HETATM   15  N4  UNL     1      23.477   5.560  49.514  1.00  0.00    -0.329 N 
HETATM   16  C24 UNL     1      23.741   6.952  49.326  1.00  0.00     0.233 A 
HETATM   17  N5  UNL     1      23.991   7.848  50.217  1.00  0.00    -0.168 NA
HETATM   18  N6  UNL     1      24.017   7.444  51.555  1.00  0.00    -0.260 N 
HETATM   19  H24 UNL     1      24.221   8.164  52.311  1.00  0.00     0.191 HD
ENDROOT
BRANCH   3  20
HETATM   20  C4  UNL     1      24.536   3.257  52.094  1.00  0.00    -0.005 A 
HETATM   21  C5  UNL     1      25.601   3.039  51.206  1.00  0.00     0.016 A 
HETATM   22  C6  UNL     1      26.754   2.371  51.580  1.00  0.00     0.038 A 
HETATM   23  C7  UNL     1      26.876   1.890  52.892  1.00  0.00     0.076 A 
HETATM   24  C14 UNL     1      25.818   2.102  53.793  1.00  0.00     0.038 A 
HETATM   25  C15 UNL     1      24.708   2.770  53.358  1.00  0.00     0.016 A 
BRANCH  23  26
HETATM   26  O1  UNL     1      28.078   1.249  53.103  1.00  0.00    -0.311 OA
BRANCH  26  27
HETATM   27  C8  UNL     1      28.265  -0.103  53.095  1.00  0.00     0.076 A 
HETATM   28  C9  UNL     1      27.253  -0.997  52.715  1.00  0.00     0.037 A 
HETATM   29  C10 UNL     1      27.472  -2.368  52.715  1.00  0.00     0.003 A 
HETATM   30  C11 UNL     1      28.690  -2.899  53.088  1.00  0.00     0.000 A 
HETATM   31  C12 UNL     1      29.630  -1.977  53.446  1.00  0.00     0.003 A 
HETATM   32  C13 UNL     1      29.513  -0.609  53.478  1.00  0.00     0.037 A 
ENDBRANCH  26  27
ENDBRANCH  23  26
ENDBRANCH   3  20
BRANCH   1  33
HETATM   33  N1  UNL     1      23.762   5.536  53.091  1.00  0.00    -0.382 N 
HETATM   34  H1  UNL     1      23.602   5.385  54.091  1.00  0.00     0.157 HD
HETATM   35  H2  UNL     1      24.302   4.678  53.326  1.00  0.00     0.157 HD
ENDBRANCH   1  33
TORSDOF 4
ENDMDL
MODEL 2
REMARK VINA RESULT:      -9.0      2.014      2.835
REMARK  4 active torsions:
REMARK  status: ('A' for Active; 'I' for Inactive)
REMARK    1  A    between atoms: N1_1  and  C1_2 
REMARK    2  A    between atoms: C3_4  and  C4_5 
REMARK    3  A    between atoms: C7_8  and  O1_9 
REMARK    4  A    between atoms: O1_9  and  C8_10 
ROOT
HETATM    1  C1  UNL     1      24.865   7.380  50.736  1.00  0.00     0.145 A 
HETATM    2  C2  UNL     1      24.171   6.763  49.799  1.00  0.00     0.111 A 
HETATM    3  C3  UNL     1      23.354   5.887  50.620  1.00  0.00     0.097 C 
HETATM    4  N2  UNL     1      22.197   6.083  51.041  1.00  0.00    -0.258 NA
HETATM    5  C16 UNL     1      21.316   7.163  50.885  1.00  0.00     0.123 C 
HETATM    6  C17 UNL     1      20.797   7.845  49.882  1.00  0.00     0.093 C 
HETATM    7  C18 UNL     1      21.085   7.568  48.510  1.00  0.00     0.244 C 
HETATM    8  O2  UNL     1      20.480   8.307  47.782  1.00  0.00    -0.268 OA
HETATM    9  N3  UNL     1      21.630   6.992  47.292  1.00  0.00    -0.347 N 
HETATM   10  C19 UNL     1      21.373   7.264  45.845  1.00  0.00     0.126 C 
HETATM   11  C20 UNL     1      22.677   7.643  45.194  1.00  0.00     0.022 C 
HETATM   12  C21 UNL     1      23.764   7.862  46.221  1.00  0.00     0.029 C 
HETATM   13  C22 UNL     1      23.937   6.705  47.151  1.00  0.00     0.109 C 
HETATM   14  C23 UNL     1      22.622   5.965  47.194  1.00  0.00     0.151 C 
HETATM   15  N4  UNL     1      24.422   7.113  48.457  1.00  0.00    -0.329 N 
HETATM   16  C24 UNL     1      25.424   8.118  48.286  1.00  0.00     0.233 A 
HETATM   17  N5  UNL     1      26.109   8.729  49.189  1.00  0.00    -0.168 NA
HETATM   18  N6  UNL     1      25.871   8.391  50.525  1.00  0.00    -0.260 N 
HETATM   19  H24 UNL     1      26.422   8.881  51.290  1.00  0.00     0.191 HD
ENDROOT
BRANCH   3  20
HETATM   20  C4  UNL     1      23.947   4.634  51.048  1.00  0.00    -0.005 A 
HETATM   21  C5  UNL     1      23.564   3.998  52.239  1.00  0.00     0.016 A 
HETATM   22  C6  UNL     1      24.121   2.802  52.654  1.00  0.00     0.038 A 
HETATM   23  C7  UNL     1      25.108   2.192  51.866  1.00  0.00     0.076 A 
HETATM   24  C14 UNL     1      25.501   2.816  50.670  1.00  0.00     0.038 A 
HETATM   25  C15 UNL     1      24.909   3.997  50.319  1.00  0.00     0.016 A 
BRANCH  23  26
HETATM   26  O1  UNL     1      25.560   1.012  52.417  1.00  0.00    -0.311 OA
BRANCH  26  27
HETATM   27  C8  UNL     1      26.823   0.794  52.889  1.00  0.00     0.076 A 
HETATM   28  C9  UNL     1      27.603   1.820  53.442  1.00  0.00     0.037 A 
HETATM   29  C10 UNL     1      28.883   1.569  53.916  1.00  0.00     0.003 A 
HETATM   30  C11 UNL     1      29.433   0.304  53.860  1.00  0.00     0.000 A 
HETATM   31  C12 UNL     1      28.624  -0.647  53.312  1.00  0.00     0.003 A 
HETATM   32  C13 UNL     1      27.350  -0.501  52.818  1.00  0.00     0.037 A 
ENDBRANCH  26  27
ENDBRANCH  23  26
ENDBRANCH   3  20
BRANCH   1  33
HETATM   33  N1  UNL     1      24.553   6.965  52.040  1.00  0.00    -0.382 N 
HETATM   34  H1  UNL     1      24.129   6.517  52.857  1.00  0.00     0.157 HD
HETATM   35  H2  UNL     1      25.094   7.319  52.856  1.00  0.00     0.157 HD
ENDBRANCH   1  33
TORSDOF 4
ENDMDL
MODEL 3
REMARK VINA RESULT:      -8.9      5.036      6.780
REMARK  4 active torsions:
REMARK  status: ('A' for Active; 'I' for Inactive)
REMARK    1  A    between atoms: N1_1  and  C1_2 
REMARK    2  A    between atoms: C3_4  and  C4_5 
REMARK    3  A    between atoms: C7_8  and  O1_9 
REMARK    4  A    between atoms: O1_9  and  C8_10 
ROOT
HETATM    1  C1  UNL     1      28.239   8.981  49.588  1.00  0.00     0.145 A 
HETATM    2  C2  UNL     1      28.019   8.632  48.335  1.00  0.00     0.111 A 
HETATM    3  C3  UNL     1      26.679   8.084  48.452  1.00  0.00     0.097 C 
HETATM    4  N2  UNL     1      25.591   8.660  48.253  1.00  0.00    -0.258 NA
HETATM    5  C16 UNL     1      25.286   9.973  47.867  1.00  0.00     0.123 C 
HETATM    6  C17 UNL     1      25.610  10.788  46.882  1.00  0.00     0.093 C 
HETATM    7  C18 UNL     1      26.501  10.426  45.825  1.00  0.00     0.244 C 
HETATM    8  O2  UNL     1      26.626  11.325  45.037  1.00  0.00    -0.268 OA
HETATM    9  N3  UNL     1      27.427   9.698  44.972  1.00  0.00    -0.347 N 
HETATM   10  C19 UNL     1      28.082  10.038  43.673  1.00  0.00     0.126 C 
HETATM   11  C20 UNL     1      29.575   9.954  43.858  1.00  0.00     0.022 C 
HETATM   12  C21 UNL     1      29.942   9.795  45.315  1.00  0.00     0.029 C 
HETATM   13  C22 UNL     1      29.248   8.650  45.977  1.00  0.00     0.109 C 
HETATM   14  C23 UNL     1      27.972   8.396  45.210  1.00  0.00     0.151 C 
HETATM   15  N4  UNL     1      29.043   8.873  47.397  1.00  0.00    -0.329 N 
HETATM   16  C24 UNL     1      30.215   9.482  47.945  1.00  0.00     0.233 A 
HETATM   17  N5  UNL     1      30.443   9.828  49.163  1.00  0.00    -0.168 NA
HETATM   18  N6  UNL     1      29.437   9.593  50.105  1.00  0.00    -0.260 N 
HETATM   19  H24 UNL     1      29.600   9.870  51.118  1.00  0.00     0.191 HD
ENDROOT
BRANCH   3  20
HETATM   20  C4  UNL     1      26.561   6.706  48.888  1.00  0.00    -0.005 A 
HETATM   21  C5  UNL     1      27.489   5.723  48.509  1.00  0.00     0.016 A 
HETATM   22  C6  UNL     1      27.387   4.407  48.922  1.00  0.00     0.038 A 
HETATM   23  C7  UNL     1      26.322   4.026  49.751  1.00  0.00     0.076 A 
HETATM   24  C14 UNL     1      25.385   4.999  50.141  1.00  0.00     0.038 A 
HETATM   25  C15 UNL     1      25.546   6.282  49.696  1.00  0.00     0.016 A 
BRANCH  23  26
HETATM   26  O1  UNL     1      26.363   2.686  50.071  1.00  0.00    -0.311 OA
BRANCH  26  27
HETATM   27  C8  UNL     1      26.233   2.170  51.329  1.00  0.00     0.076 A 
HETATM   28  C9  UNL     1      27.280   2.201  52.262  1.00  0.00     0.037 A 
HETATM   29  C10 UNL     1      27.119   1.669  53.535  1.00  0.00     0.003 A 
HETATM   30  C11 UNL     1      25.927   1.093  53.926  1.00  0.00     0.000 A 
HETATM   31  C12 UNL     1      24.951   1.095  52.972  1.00  0.00     0.003 A 
HETATM   32  C13 UNL     1      25.010   1.593  51.693  1.00  0.00     0.037 A 
ENDBRANCH  26  27
ENDBRANCH  23  26
ENDBRANCH   3  20
BRANCH   1  33
HETATM   33  N1  UNL     1      27.169   8.698  50.452  1.00  0.00    -0.382 N 
HETATM   34  H1  UNL     1      26.517   8.246  51.099  1.00  0.00     0.157 HD
HETATM   35  H2  UNL     1      26.437   9.412  50.646  1.00  0.00     0.157 HD
ENDBRANCH   1  33
TORSDOF 4
ENDMDL
MODEL 4
REMARK VINA RESULT:      -8.7      6.336      8.924
REMARK  4 active torsions:
REMARK  status: ('A' for Active; 'I' for Inactive)
REMARK    1  A    between atoms: N1_1  and  C1_2 
REMARK    2  A    between atoms: C3_4  and  C4_5 
REMARK    3  A    between atoms: C7_8  and  O1_9 
REMARK    4  A    between atoms: O1_9  and  C8_10 
ROOT
HETATM    1  C1  UNL     1      29.733   8.710  48.895  1.00  0.00     0.145 A 
HETATM    2  C2  UNL     1      30.122   7.601  48.295  1.00  0.00     0.111 A 
HETATM    3  C3  UNL     1      29.008   7.399  47.385  1.00  0.00     0.097 C 
HETATM    4  N2  UNL     1      28.914   7.751  46.192  1.00  0.00    -0.258 NA
HETATM    5  C16 UNL     1      29.799   8.435  45.347  1.00  0.00     0.123 C 
HETATM    6  C17 UNL     1      31.048   8.297  44.945  1.00  0.00     0.093 C 
HETATM    7  C18 UNL     1      31.897   7.231  45.373  1.00  0.00     0.244 C 
HETATM    8  O2  UNL     1      32.980   7.306  44.857  1.00  0.00    -0.268 OA
HETATM    9  N3  UNL     1      32.417   6.045  46.035  1.00  0.00    -0.347 N 
HETATM   10  C19 UNL     1      33.722   5.325  45.935  1.00  0.00     0.126 C 
HETATM   11  C20 UNL     1      34.346   5.279  47.306  1.00  0.00     0.022 C 
HETATM   12  C21 UNL     1      33.600   6.160  48.281  1.00  0.00     0.029 C 
HETATM   13  C22 UNL     1      32.136   5.866  48.341  1.00  0.00     0.109 C 
HETATM   14  C23 UNL     1      31.750   5.247  47.018  1.00  0.00     0.151 C 
HETATM   15  N4  UNL     1      31.351   7.035  48.691  1.00  0.00    -0.329 N 
HETATM   16  C24 UNL     1      32.031   7.760  49.718  1.00  0.00     0.233 A 
HETATM   17  N5  UNL     1      31.666   8.842  50.312  1.00  0.00    -0.168 NA
HETATM   18  N6  UNL     1      30.448   9.414  49.930  1.00  0.00    -0.260 N 
HETATM   19  H24 UNL     1      30.123  10.308  50.405  1.00  0.00     0.191 HD
ENDROOT
BRANCH   3  20
HETATM   20  C4  UNL     1      27.831   6.736  47.913  1.00  0.00    -0.005 A 
HETATM   21  C5  UNL     1      26.551   7.306  47.817  1.00  0.00     0.016 A 
HETATM   22  C6  UNL     1      25.422   6.681  48.315  1.00  0.00     0.038 A 
HETATM   23  C7  UNL     1      25.545   5.432  48.942  1.00  0.00     0.076 A 
HETATM   24  C14 UNL     1      26.820   4.849  49.045  1.00  0.00     0.038 A 
HETATM   25  C15 UNL     1      27.894   5.521  48.531  1.00  0.00     0.016 A 
BRANCH  23  26
HETATM   26  O1  UNL     1      24.332   4.947  49.383  1.00  0.00    -0.311 OA
BRANCH  26  27
HETATM   27  C8  UNL     1      24.155   4.120  50.455  1.00  0.00     0.076 A 
HETATM   28  C9  UNL     1      23.948   4.610  51.752  1.00  0.00     0.037 A 
HETATM   29  C10 UNL     1      23.770   3.745  52.823  1.00  0.00     0.003 A 
HETATM   30  C11 UNL     1      23.790   2.376  52.650  1.00  0.00     0.000 A 
HETATM   31  C12 UNL     1      23.996   1.965  51.365  1.00  0.00     0.003 A 
HETATM   32  C13 UNL     1      24.181   2.736  50.243  1.00  0.00     0.037 A 
ENDBRANCH  26  27
ENDBRANCH  23  26
ENDBRANCH   3  20
BRANCH   1  33
HETATM   33  N1  UNL     1      28.498   9.198  48.442  1.00  0.00    -0.382 N 
HETATM   34  H1  UNL     1      27.499   9.366  48.292  1.00  0.00     0.157 HD
HETATM   35  H2  UNL     1      28.452   9.948  47.722  1.00  0.00     0.157 HD
ENDBRANCH   1  33
TORSDOF 4
ENDMDL
MODEL 5
REMARK VINA RESULT:      -8.5      6.607      8.492
REMARK  4 active torsions:
REMARK  status: ('A' for Active; 'I' for Inactive)
REMARK    1  A    between atoms: N1_1  and  C1_2 
REMARK    2  A    between atoms: C3_4  and  C4_5 
REMARK    3  A    between atoms: C7_8  and  O1_9 
REMARK    4  A    between atoms: O1_9  and  C8_10 
ROOT
HETATM    1  C1  UNL     1      30.100   8.657  49.216  1.00  0.00     0.145 A 
HETATM    2  C2  UNL     1      29.993   8.309  47.948  1.00  0.00     0.111 A 
HETATM    3  C3  UNL     1      28.549   8.336  47.796  1.00  0.00     0.097 C 
HETATM    4  N2  UNL     1      27.835   9.267  47.373  1.00  0.00    -0.258 NA
HETATM    5  C16 UNL     1      28.153  10.555  46.920  1.00  0.00     0.123 C 
HETATM    6  C17 UNL     1      28.948  11.090  46.014  1.00  0.00     0.093 C 
HETATM    7  C18 UNL     1      29.799  10.318  45.163  1.00  0.00     0.244 C 
HETATM    8  O2  UNL     1      30.411  11.023  44.408  1.00  0.00    -0.268 OA
HETATM    9  N3  UNL     1      30.498   9.215  44.524  1.00  0.00    -0.347 N 
HETATM   10  C19 UNL     1      31.459   9.156  43.382  1.00  0.00     0.126 C 
HETATM   11  C20 UNL     1      32.735   8.518  43.867  1.00  0.00     0.022 C 
HETATM   12  C21 UNL     1      32.737   8.361  45.370  1.00  0.00     0.029 C 
HETATM   13  C22 UNL     1      31.536   7.638  45.889  1.00  0.00     0.109 C 
HETATM   14  C23 UNL     1      30.428   7.830  44.881  1.00  0.00     0.151 C 
HETATM   15  N4  UNL     1      31.181   8.050  47.235  1.00  0.00    -0.329 N 
HETATM   16  C24 UNL     1      32.377   8.204  48.003  1.00  0.00     0.233 A 
HETATM   17  N5  UNL     1      32.497   8.543  49.239  1.00  0.00    -0.168 NA
HETATM   18  N6  UNL     1      31.327   8.802  49.959  1.00  0.00    -0.260 N 
HETATM   19  H24 UNL     1      31.398   9.084  50.982  1.00  0.00     0.191 HD
ENDROOT
BRANCH   3  20
HETATM   20  C4  UNL     1      27.816   7.155  48.213  1.00  0.00    -0.005 A 
HETATM   21  C5  UNL     1      28.408   5.883  48.242  1.00  0.00     0.016 A 
HETATM   22  C6  UNL     1      27.718   4.753  48.641  1.00  0.00     0.038 A 
HETATM   23  C7  UNL     1      26.377   4.867  49.034  1.00  0.00     0.076 A 
HETATM   24  C14 UNL     1      25.770   6.135  49.012  1.00  0.00     0.038 A 
HETATM   25  C15 UNL     1      26.510   7.211  48.606  1.00  0.00     0.016 A 
BRANCH  23  26
HETATM   26  O1  UNL     1      25.835   3.653  49.400  1.00  0.00    -0.311 OA
BRANCH  26  27
HETATM   27  C8  UNL     1      25.628   3.236  50.684  1.00  0.00     0.076 A 
HETATM   28  C9  UNL     1      24.481   3.588  51.410  1.00  0.00     0.037 A 
HETATM   29  C10 UNL     1      24.297   3.148  52.714  1.00  0.00     0.003 A 
HETATM   30  C11 UNL     1      25.234   2.351  53.341  1.00  0.00     0.000 A 
HETATM   31  C12 UNL     1      26.326   2.047  52.580  1.00  0.00     0.003 A 
HETATM   32  C13 UNL     1      26.599   2.429  51.289  1.00  0.00     0.037 A 
ENDBRANCH  26  27
ENDBRANCH  23  26
ENDBRANCH   3  20
BRANCH   1  33
HETATM   33  N1  UNL     1      28.868   8.890  49.847  1.00  0.00    -0.382 N 
HETATM   34  H1  UNL     1      28.059   9.323  50.301  1.00  0.00     0.157 HD
HETATM   35  H2  UNL     1      28.220   8.103  50.058  1.00  0.00     0.157 HD
ENDBRANCH   1  33
TORSDOF 4
ENDMDL
MODEL 6
REMARK VINA RESULT:      -8.4      4.060      5.524
REMARK  4 active torsions:
REMARK  status: ('A' for Active; 'I' for Inactive)
REMARK    1  A    between atoms: N1_1  and  C1_2 
REMARK    2  A    between atoms: C3_4  and  C4_5 
REMARK    3  A    between atoms: C7_8  and  O1_9 
REMARK    4  A    between atoms: O1_9  and  C8_10 
ROOT
HETATM    1  C1  UNL     1      23.400   6.030  50.761  1.00  0.00     0.145 A 
HETATM    2  C2  UNL     1      23.161   5.519  49.568  1.00  0.00     0.111 A 
HETATM    3  C3  UNL     1      24.313   4.648  49.426  1.00  0.00     0.097 C 
HETATM    4  N2  UNL     1      24.397   3.431  49.689  1.00  0.00    -0.258 NA
HETATM    5  C16 UNL     1      23.460   2.517  50.191  1.00  0.00     0.123 C 
HETATM    6  C17 UNL     1      22.246   2.109  49.874  1.00  0.00     0.093 C 
HETATM    7  C18 UNL     1      21.517   2.611  48.752  1.00  0.00     0.244 C 
HETATM    8  O2  UNL     1      20.447   2.073  48.655  1.00  0.00    -0.268 OA
HETATM    9  N3  UNL     1      21.123   3.362  47.571  1.00  0.00    -0.347 N 
HETATM   10  C19 UNL     1      19.915   3.301  46.695  1.00  0.00     0.126 C 
HETATM   11  C20 UNL     1      19.265   4.661  46.687  1.00  0.00     0.022 C 
HETATM   12  C21 UNL     1      19.877   5.570  47.727  1.00  0.00     0.029 C 
HETATM   13  C22 UNL     1      21.363   5.678  47.615  1.00  0.00     0.109 C 
HETATM   14  C23 UNL     1      21.853   4.419  46.941  1.00  0.00     0.151 C 
HETATM   15  N4  UNL     1      21.997   5.942  48.894  1.00  0.00    -0.329 N 
HETATM   16  C24 UNL     1      21.210   6.893  49.614  1.00  0.00     0.233 A 
HETATM   17  N5  UNL     1      21.430   7.400  50.777  1.00  0.00    -0.168 NA
HETATM   18  N6  UNL     1      22.581   6.991  51.457  1.00  0.00    -0.260 N 
HETATM   19  H24 UNL     1      22.787   7.394  52.419  1.00  0.00     0.191 HD
ENDROOT
BRANCH   3  20
HETATM   20  C4  UNL     1      25.546   5.249  48.954  1.00  0.00    -0.005 A 
HETATM   21  C5  UNL     1      25.578   6.532  48.388  1.00  0.00     0.016 A 
HETATM   22  C6  UNL     1      26.749   7.116  47.937  1.00  0.00     0.038 A 
HETATM   23  C7  UNL     1      27.956   6.409  48.045  1.00  0.00     0.076 A 
HETATM   24  C14 UNL     1      27.940   5.123  48.612  1.00  0.00     0.038 A 
HETATM   25  C15 UNL     1      26.748   4.607  49.037  1.00  0.00     0.016 A 
BRANCH  23  26
HETATM   26  O1  UNL     1      29.026   7.126  47.553  1.00  0.00    -0.311 OA
BRANCH  26  27
HETATM   27  C8  UNL     1      30.322   6.993  47.964  1.00  0.00     0.076 A 
HETATM   28  C9  UNL     1      31.187   6.036  47.415  1.00  0.00     0.037 A 
HETATM   29  C10 UNL     1      32.500   5.925  47.853  1.00  0.00     0.003 A 
HETATM   30  C11 UNL     1      32.999   6.751  48.840  1.00  0.00     0.000 A 
HETATM   31  C12 UNL     1      32.107   7.658  49.332  1.00  0.00     0.003 A 
HETATM   32  C13 UNL     1      30.796   7.847  48.967  1.00  0.00     0.037 A 
ENDBRANCH  26  27
ENDBRANCH  23  26
ENDBRANCH   3  20
BRANCH   1  33
HETATM   33  N1  UNL     1      24.581   5.558  51.354  1.00  0.00    -0.382 N 
HETATM   34  H1  UNL     1      25.471   5.086  51.541  1.00  0.00     0.157 HD
HETATM   35  H2  UNL     1      24.836   5.830  52.326  1.00  0.00     0.157 HD
ENDBRANCH   1  33
TORSDOF 4
ENDMDL
MODEL 7
REMARK VINA RESULT:      -8.4      4.108      6.595
REMARK  4 active torsions:
REMARK  status: ('A' for Active; 'I' for Inactive)
REMARK    1  A    between atoms: N1_1  and  C1_2 
REMARK    2  A    between atoms: C3_4  and  C4_5 
REMARK    3  A    between atoms: C7_8  and  O1_9 
REMARK    4  A    between atoms: O1_9  and  C8_10 
ROOT
HETATM    1  C1  UNL     1      22.894   4.961  47.761  1.00  0.00     0.145 A 
HETATM    2  C2  UNL     1      23.242   4.322  48.861  1.00  0.00     0.111 A 
HETATM    3  C3  UNL     1      23.977   5.370  49.546  1.00  0.00     0.097 C 
HETATM    4  N2  UNL     1      23.558   6.171  50.406  1.00  0.00    -0.258 NA
HETATM    5  C16 UNL     1      22.293   6.339  50.987  1.00  0.00     0.123 C 
HETATM    6  C17 UNL     1      21.418   5.587  51.625  1.00  0.00     0.093 C 
HETATM    7  C18 UNL     1      21.624   4.198  51.894  1.00  0.00     0.244 C 
HETATM    8  O2  UNL     1      20.699   3.733  52.503  1.00  0.00    -0.268 OA
HETATM    9  N3  UNL     1      22.194   2.862  51.954  1.00  0.00    -0.347 N 
HETATM   10  C19 UNL     1      21.734   1.599  52.606  1.00  0.00     0.126 C 
HETATM   11  C20 UNL     1      21.609   0.535  51.546  1.00  0.00     0.022 C 
HETATM   12  C21 UNL     1      21.747   1.120  50.160  1.00  0.00     0.029 C 
HETATM   13  C22 UNL     1      22.994   1.922  49.979  1.00  0.00     0.109 C 
HETATM   14  C23 UNL     1      23.409   2.417  51.344  1.00  0.00     0.151 C 
HETATM   15  N4  UNL     1      22.835   2.979  48.997  1.00  0.00    -0.329 N 
HETATM   16  C24 UNL     1      22.079   2.476  47.893  1.00  0.00     0.233 A 
HETATM   17  N5  UNL     1      21.732   3.087  46.814  1.00  0.00    -0.168 NA
HETATM   18  N6  UNL     1      22.129   4.420  46.666  1.00  0.00    -0.260 N 
HETATM   19  H24 UNL     1      21.855   4.948  45.785  1.00  0.00     0.191 HD
ENDROOT
BRANCH   3  20
HETATM   20  C4  UNL     1      25.368   5.555  49.177  1.00  0.00    -0.005 A 
HETATM   21  C5  UNL     1      26.260   4.476  49.075  1.00  0.00     0.016 A 
HETATM   22  C6  UNL     1      27.587   4.641  48.721  1.00  0.00     0.038 A 
HETATM   23  C7  UNL     1      28.073   5.929  48.453  1.00  0.00     0.076 A 
HETATM   24  C14 UNL     1      27.192   7.020  48.550  1.00  0.00     0.038 A 
HETATM   25  C15 UNL     1      25.892   6.785  48.904  1.00  0.00     0.016 A 
BRANCH  23  26
HETATM   26  O1  UNL     1      29.410   5.923  48.117  1.00  0.00    -0.311 OA
BRANCH  26  27
HETATM   27  C8  UNL     1      30.176   7.034  47.905  1.00  0.00     0.076 A 
HETATM   28  C9  UNL     1      30.850   7.688  48.946  1.00  0.00     0.037 A 
HETATM   29  C10 UNL     1      31.623   8.816  48.700  1.00  0.00     0.003 A 
HETATM   30  C11 UNL     1      31.754   9.331  47.426  1.00  0.00     0.000 A 
HETATM   31  C12 UNL     1      31.073   8.649  46.460  1.00  0.00     0.003 A 
HETATM   32  C13 UNL     1      30.288   7.530  46.600  1.00  0.00     0.037 A 
ENDBRANCH  26  27
ENDBRANCH  23  26
ENDBRANCH   3  20
BRANCH   1  33
HETATM   33  N1  UNL     1      23.346   6.289  47.709  1.00  0.00    -0.382 N 
HETATM   34  H1  UNL     1      23.889   7.140  47.538  1.00  0.00     0.157 HD
HETATM   35  H2  UNL     1      22.787   7.059  48.130  1.00  0.00     0.157 HD
ENDBRANCH   1  33
TORSDOF 4
ENDMDL
MODEL 8
REMARK VINA RESULT:      -8.1      6.074      9.265
REMARK  4 active torsions:
REMARK  status: ('A' for Active; 'I' for Inactive)
REMARK    1  A    between atoms: N1_1  and  C1_2 
REMARK    2  A    between atoms: C3_4  and  C4_5 
REMARK    3  A    between atoms: C7_8  and  O1_9 
REMARK    4  A    between atoms: O1_9  and  C8_10 
ROOT
HETATM    1  C1  UNL     1      29.171   9.481  48.396  1.00  0.00     0.145 A 
HETATM    2  C2  UNL     1      29.576   8.271  48.062  1.00  0.00     0.111 A 
HETATM    3  C3  UNL     1      28.565   7.923  47.080  1.00  0.00     0.097 C 
HETATM    4  N2  UNL     1      28.620   8.046  45.840  1.00  0.00    -0.258 NA
HETATM    5  C16 UNL     1      29.623   8.539  44.994  1.00  0.00     0.123 C 
HETATM    6  C17 UNL     1      30.902   8.301  44.775  1.00  0.00     0.093 C 
HETATM    7  C18 UNL     1      31.651   7.317  45.491  1.00  0.00     0.244 C 
HETATM    8  O2  UNL     1      32.787   7.271  45.102  1.00  0.00    -0.268 OA
HETATM    9  N3  UNL     1      32.042   6.268  46.418  1.00  0.00    -0.347 N 
HETATM   10  C19 UNL     1      33.318   5.514  46.609  1.00  0.00     0.126 C 
HETATM   11  C20 UNL     1      33.781   5.715  48.028  1.00  0.00     0.022 C 
HETATM   12  C21 UNL     1      32.969   6.780  48.728  1.00  0.00     0.029 C 
HETATM   13  C22 UNL     1      31.496   6.534  48.667  1.00  0.00     0.109 C 
HETATM   14  C23 UNL     1      31.235   5.684  47.446  1.00  0.00     0.151 C 
HETATM   15  N4  UNL     1      30.727   7.764  48.699  1.00  0.00    -0.329 N 
HETATM   16  C24 UNL     1      31.318   8.656  49.647  1.00  0.00     0.233 A 
HETATM   17  N5  UNL     1      30.935   9.839  49.983  1.00  0.00    -0.168 NA
HETATM   18  N6  UNL     1      29.794  10.353  49.360  1.00  0.00    -0.260 N 
HETATM   19  H24 UNL     1      29.457  11.327  49.619  1.00  0.00     0.191 HD
ENDROOT
BRANCH   3  20
HETATM   20  C4  UNL     1      27.308   7.398  47.579  1.00  0.00    -0.005 A 
HETATM   21  C5  UNL     1      27.258   6.394  48.558  1.00  0.00     0.016 A 
HETATM   22  C6  UNL     1      26.064   5.888  49.042  1.00  0.00     0.038 A 
HETATM   23  C7  UNL     1      24.852   6.389  48.545  1.00  0.00     0.076 A 
HETATM   24  C14 UNL     1      24.886   7.396  47.565  1.00  0.00     0.038 A 
HETATM   25  C15 UNL     1      26.100   7.850  47.131  1.00  0.00     0.016 A 
BRANCH  23  26
HETATM   26  O1  UNL     1      23.759   5.783  49.127  1.00  0.00    -0.311 OA
BRANCH  26  27
HETATM   27  C8  UNL     1      23.217   4.591  48.738  1.00  0.00     0.076 A 
HETATM   28  C9  UNL     1      23.332   3.428  49.513  1.00  0.00     0.037 A 
HETATM   29  C10 UNL     1      22.770   2.230  49.092  1.00  0.00     0.003 A 
HETATM   30  C11 UNL     1      22.079   2.142  47.900  1.00  0.00     0.000 A 
HETATM   31  C12 UNL     1      22.004   3.308  47.195  1.00  0.00     0.003 A 
HETATM   32  C13 UNL     1      22.523   4.537  47.523  1.00  0.00     0.037 A 
ENDBRANCH  26  27
ENDBRANCH  23  26
ENDBRANCH   3  20
BRANCH   1  33
HETATM   33  N1  UNL     1      28.016   9.901  47.717  1.00  0.00    -0.382 N 
HETATM   34  H1  UNL     1      27.355  10.244  47.014  1.00  0.00     0.157 HD
HETATM   35  H2  UNL     1      27.091   9.908  48.193  1.00  0.00     0.157 HD
ENDBRANCH   1  33
TORSDOF 4
ENDMDL
MODEL 9
REMARK VINA RESULT:      -8.0      5.326      7.671
REMARK  4 active torsions:
REMARK  status: ('A' for Active; 'I' for Inactive)
REMARK    1  A    between atoms: N1_1  and  C1_2 
REMARK    2  A    between atoms: C3_4  and  C4_5 
REMARK    3  A    between atoms: C7_8  and  O1_9 
REMARK    4  A    between atoms: O1_9  and  C8_10 
ROOT
HETATM    1  C1  UNL     1      17.039   2.084  49.326  1.00  0.00     0.145 A 
HETATM    2  C2  UNL     1      16.684   1.582  50.492  1.00  0.00     0.111 A 
HETATM    3  C3  UNL     1      17.528   2.366  51.377  1.00  0.00     0.097 C 
HETATM    4  N2  UNL     1      17.241   3.414  51.988  1.00  0.00    -0.258 NA
HETATM    5  C16 UNL     1      16.063   4.174  52.036  1.00  0.00     0.123 C 
HETATM    6  C17 UNL     1      14.790   3.963  52.311  1.00  0.00     0.093 C 
HETATM    7  C18 UNL     1      14.268   2.684  52.677  1.00  0.00     0.244 C 
HETATM    8  O2  UNL     1      13.089   2.745  52.899  1.00  0.00    -0.268 OA
HETATM    9  N3  UNL     1      14.141   1.270  52.988  1.00  0.00    -0.347 N 
HETATM   10  C19 UNL     1      12.988   0.439  53.450  1.00  0.00     0.126 C 
HETATM   11  C20 UNL     1      12.773  -0.670  52.453  1.00  0.00     0.022 C 
HETATM   12  C21 UNL     1      13.605  -0.463  51.209  1.00  0.00     0.029 C 
HETATM   13  C22 UNL     1      15.058  -0.267  51.497  1.00  0.00     0.109 C 
HETATM   14  C23 UNL     1      15.166   0.275  52.902  1.00  0.00     0.151 C 
HETATM   15  N4  UNL     1      15.714   0.560  50.500  1.00  0.00    -0.329 N 
HETATM   16  C24 UNL     1      15.230   0.195  49.205  1.00  0.00     0.233 A 
HETATM   17  N5  UNL     1      15.566   0.676  48.059  1.00  0.00    -0.168 NA
HETATM   18  N6  UNL     1      16.529   1.690  48.036  1.00  0.00    -0.260 N 
HETATM   19  H24 UNL     1      16.824   2.105  47.103  1.00  0.00     0.191 HD
ENDROOT
BRANCH   3  20
HETATM   20  C4  UNL     1      18.894   1.914  51.564  1.00  0.00    -0.005 A 
HETATM   21  C5  UNL     1      19.892   2.757  52.078  1.00  0.00     0.016 A 
HETATM   22  C6  UNL     1      21.197   2.335  52.263  1.00  0.00     0.038 A 
HETATM   23  C7  UNL     1      21.549   1.019  51.928  1.00  0.00     0.076 A 
HETATM   24  C14 UNL     1      20.560   0.163  51.413  1.00  0.00     0.038 A 
HETATM   25  C15 UNL     1      19.290   0.645  51.256  1.00  0.00     0.016 A 
BRANCH  23  26
HETATM   26  O1  UNL     1      22.881   0.758  52.169  1.00  0.00    -0.311 OA
BRANCH  26  27
HETATM   27  C8  UNL     1      23.370   0.081  53.250  1.00  0.00     0.076 A 
HETATM   28  C9  UNL     1      22.534  -0.598  54.148  1.00  0.00     0.037 A 
HETATM   29  C10 UNL     1      23.060  -1.279  55.238  1.00  0.00     0.003 A 
HETATM   30  C11 UNL     1      24.419  -1.311  55.476  1.00  0.00     0.000 A 
HETATM   31  C12 UNL     1      25.175  -0.631  54.566  1.00  0.00     0.003 A 
HETATM   32  C13 UNL     1      24.754   0.068  53.461  1.00  0.00     0.037 A 
ENDBRANCH  26  27
ENDBRANCH  23  26
ENDBRANCH   3  20
BRANCH   1  33
HETATM   33  N1  UNL     1      18.014   3.091  49.414  1.00  0.00    -0.382 N 
HETATM   34  H1  UNL     1      18.502   3.983  49.536  1.00  0.00     0.157 HD
HETATM   35  H2  UNL     1      19.018   2.877  49.247  1.00  0.00     0.157 HD
ENDBRANCH   1  33
TORSDOF 4
ENDMDL
