MODEL 1
REMARK VINA RESULT:      -8.8      0.000      0.000
REMARK  5 active torsions:
REMARK  status: ('A' for Active; 'I' for Inactive)
REMARK    1  A    between atoms: C1_2  and  C2_3 
REMARK    2  A    between atoms: C3_4  and  C4_5 
REMARK    3  A    between atoms: C4_5  and  C5_6 
REMARK    4  A    between atoms: C9_11  and  N3_12 
REMARK    5  A    between atoms: N3_12  and  C10_13 
ROOT
HETATM    1  C5  UNL     1      24.111   1.703  51.598  1.00  0.00     0.246 C 
HETATM    2  N2  UNL     1      22.838   1.097  51.829  1.00  0.00     0.090 N 
HETATM    3  C6  UNL     1      21.736   2.035  51.761  1.00  0.00     0.270 C 
HETATM    4  C7  UNL     1      21.610   2.655  50.387  1.00  0.00     0.032 C 
HETATM    5  C8  UNL     1      22.934   2.481  49.655  1.00  0.00     0.029 C 
HETATM    6  C9  UNL     1      24.017   2.909  50.657  1.00  0.00     0.115 C 
HETATM    7  H7  UNL     1      22.610   0.334  51.147  1.00  0.00     0.316 HD
ENDROOT
BRANCH   1   8
HETATM    8  C4  UNL     1      24.873   2.061  52.854  1.00  0.00     0.072 C 
BRANCH   8   9
HETATM    9  C3  UNL     1      25.833   0.966  53.169  1.00  0.00    -0.064 C 
HETATM   10  C2  UNL     1      25.937   0.390  54.568  1.00  0.00     0.104 C 
HETATM   11  C19 UNL     1      27.406   0.151  54.598  1.00  0.00     0.055 A 
HETATM   12  C17 UNL     1      27.344  -0.658  53.352  1.00  0.00     0.181 A 
HETATM   13  N5  UNL     1      28.662   0.170  54.971  1.00  0.00    -0.248 NA
HETATM   14  C16 UNL     1      26.730   0.296  52.402  1.00  0.00     0.010 C 
HETATM   15  N4  UNL     1      28.681  -1.061  53.068  1.00  0.00    -0.268 NA
HETATM   16  C18 UNL     1      29.426  -0.573  54.020  1.00  0.00     0.228 A 
BRANCH  10  17
HETATM   17  C1  UNL     1      25.246  -0.879  54.700  1.00  0.00     0.095 C 
HETATM   18  N1  UNL     1      25.079  -1.233  55.940  1.00  0.00    -0.315 NA
HETATM   19  H1  UNL     1      25.459  -0.569  56.643  1.00  0.00     0.185 HD
ENDBRANCH  10  17
ENDBRANCH   8   9
ENDBRANCH   1   8
BRANCH   6  20
HETATM   20  N3  UNL     1      25.258   3.132  49.969  1.00  0.00    -0.383 N 
HETATM   21  H15 UNL     1      25.895   2.288  49.851  1.00  0.00     0.160 HD
BRANCH  20  22
HETATM   22  C10 UNL     1      25.800   4.323  49.402  1.00  0.00     0.030 A 
HETATM   23  C11 UNL     1      25.060   5.486  49.161  1.00  0.00     0.032 A 
HETATM   24  C12 UNL     1      25.728   6.553  48.601  1.00  0.00     0.046 A 
HETATM   25  C13 UNL     1      27.058   6.542  48.268  1.00  0.00     0.138 A 
HETATM   26  F1  UNL     1      27.623   7.647  47.719  1.00  0.00    -0.204 F 
HETATM   27  C14 UNL     1      27.775   5.383  48.513  1.00  0.00     0.074 A 
HETATM   28 CL1  UNL     1      29.470   5.441  48.063  1.00  0.00    -0.081 Cl
HETATM   29  C15 UNL     1      27.147   4.296  49.072  1.00  0.00     0.056 A 
ENDBRANCH  20  22
ENDBRANCH   6  20
TORSDOF 5
ENDMDL
MODEL 2
REMARK VINA RESULT:      -8.7      1.758      2.228
REMARK  5 active torsions:
REMARK  status: ('A' for Active; 'I' for Inactive)
REMARK    1  A    between atoms: C1_2  and  C2_3 
REMARK    2  A    between atoms: C3_4  and  C4_5 
REMARK    3  A    between atoms: C4_5  and  C5_6 
REMARK    4  A    between atoms: C9_11  and  N3_12 
REMARK    5  A    between atoms: N3_12  and  C10_13 
ROOT
HETATM    1  C5  UNL     1      23.189   0.607  52.266  1.00  0.00     0.246 C 
HETATM    2  N2  UNL     1      22.284  -0.396  52.728  1.00  0.00     0.090 N 
HETATM    3  C6  UNL     1      20.902   0.039  52.741  1.00  0.00     0.270 C 
HETATM    4  C7  UNL     1      20.407   0.378  51.351  1.00  0.00     0.032 C 
HETATM    5  C8  UNL     1      21.613   0.619  50.454  1.00  0.00     0.029 C 
HETATM    6  C9  UNL     1      22.537   1.552  51.250  1.00  0.00     0.115 C 
HETATM    7  H7  UNL     1      22.305  -1.273  52.152  1.00  0.00     0.316 HD
ENDROOT
BRANCH   1   8
HETATM    8  C4  UNL     1      23.872   1.390  53.364  1.00  0.00     0.072 C 
BRANCH   8   9
HETATM    9  C3  UNL     1      25.348   1.242  53.219  1.00  0.00    -0.064 C 
HETATM   10  C2  UNL     1      26.061  -0.015  53.678  1.00  0.00     0.104 C 
HETATM   11  C19 UNL     1      27.313   0.614  54.182  1.00  0.00     0.055 A 
HETATM   12  C17 UNL     1      27.547   1.293  52.880  1.00  0.00     0.181 A 
HETATM   13  N5  UNL     1      28.306   0.952  54.966  1.00  0.00    -0.248 NA
HETATM   14  C16 UNL     1      26.298   2.069  52.715  1.00  0.00     0.010 C 
HETATM   15  N4  UNL     1      28.746   2.048  53.032  1.00  0.00    -0.268 NA
HETATM   16  C18 UNL     1      29.169   1.833  54.246  1.00  0.00     0.228 A 
BRANCH  10  17
HETATM   17  C1  UNL     1      26.384  -0.904  52.577  1.00  0.00     0.095 C 
HETATM   18  N1  UNL     1      26.898  -2.030  52.975  1.00  0.00    -0.315 NA
HETATM   19  H1  UNL     1      27.002  -2.127  54.005  1.00  0.00     0.185 HD
ENDBRANCH  10  17
ENDBRANCH   8   9
ENDBRANCH   1   8
BRANCH   6  20
HETATM   20  N3  UNL     1      23.517   2.133  50.374  1.00  0.00    -0.383 N 
HETATM   21  H15 UNL     1      23.897   1.506  49.603  1.00  0.00     0.160 HD
BRANCH  20  22
HETATM   22  C10 UNL     1      24.085   3.440  50.359  1.00  0.00     0.030 A 
HETATM   23  C11 UNL     1      23.547   4.539  51.039  1.00  0.00     0.032 A 
HETATM   24  C12 UNL     1      24.211   5.740  50.920  1.00  0.00     0.046 A 
HETATM   25  C13 UNL     1      25.353   5.921  50.184  1.00  0.00     0.138 A 
HETATM   26  F1  UNL     1      25.932   7.147  50.130  1.00  0.00    -0.204 F 
HETATM   27  C14 UNL     1      25.872   4.823  49.518  1.00  0.00     0.074 A 
HETATM   28 CL1  UNL     1      27.335   5.128  48.597  1.00  0.00    -0.081 Cl
HETATM   29  C15 UNL     1      25.242   3.606  49.610  1.00  0.00     0.056 A 
ENDBRANCH  20  22
ENDBRANCH   6  20
TORSDOF 5
ENDMDL
MODEL 3
REMARK VINA RESULT:      -8.7      4.616      6.336
REMARK  5 active torsions:
REMARK  status: ('A' for Active; 'I' for Inactive)
REMARK    1  A    between atoms: C1_2  and  C2_3 
REMARK    2  A    between atoms: C3_4  and  C4_5 
REMARK    3  A    between atoms: C4_5  and  C5_6 
REMARK    4  A    between atoms: C9_11  and  N3_12 
REMARK    5  A    between atoms: N3_12  and  C10_13 
ROOT
HETATM    1  C5  UNL     1      23.804   2.611  52.208  1.00  0.00     0.246 C 
HETATM    2  N2  UNL     1      24.278   3.943  52.412  1.00  0.00     0.090 N 
HETATM    3  C6  UNL     1      23.690   4.907  51.505  1.00  0.00     0.270 C 
HETATM    4  C7  UNL     1      22.191   5.012  51.693  1.00  0.00     0.032 C 
HETATM    5  C8  UNL     1      21.706   3.761  52.412  1.00  0.00     0.029 C 
HETATM    6  C9  UNL     1      22.365   2.583  51.680  1.00  0.00     0.115 C 
HETATM    7  H7  UNL     1      24.096   4.306  53.379  1.00  0.00     0.316 HD
ENDROOT
BRANCH   1   8
HETATM    8  C4  UNL     1      24.705   1.748  51.353  1.00  0.00     0.072 C 
BRANCH   8   9
HETATM    9  C3  UNL     1      25.500   0.851  52.239  1.00  0.00    -0.064 C 
HETATM   10  C2  UNL     1      25.106   0.626  53.686  1.00  0.00     0.104 C 
HETATM   11  C19 UNL     1      26.471   0.543  54.275  1.00  0.00     0.055 A 
HETATM   12  C17 UNL     1      26.862  -0.533  53.326  1.00  0.00     0.181 A 
HETATM   13  N5  UNL     1      27.512   0.768  55.038  1.00  0.00    -0.248 NA
HETATM   14  C16 UNL     1      26.616   0.114  52.018  1.00  0.00     0.010 C 
HETATM   15  N4  UNL     1      28.216  -0.859  53.626  1.00  0.00    -0.268 NA
HETATM   16  C18 UNL     1      28.570  -0.097  54.622  1.00  0.00     0.228 A 
BRANCH  10  17
HETATM   17  C1  UNL     1      24.424  -0.640  53.885  1.00  0.00     0.095 C 
HETATM   18  N1  UNL     1      23.133  -0.507  53.960  1.00  0.00    -0.315 NA
HETATM   19  H1  UNL     1      22.783   0.467  53.869  1.00  0.00     0.185 HD
ENDBRANCH  10  17
ENDBRANCH   8   9
ENDBRANCH   1   8
BRANCH   6  20
HETATM   20  N3  UNL     1      21.703   1.358  52.032  1.00  0.00    -0.383 N 
HETATM   21  H15 UNL     1      22.238   0.695  52.670  1.00  0.00     0.160 HD
BRANCH  20  22
HETATM   22  C10 UNL     1      20.419   0.861  51.663  1.00  0.00     0.030 A 
HETATM   23  C11 UNL     1      19.784   1.150  50.451  1.00  0.00     0.032 A 
HETATM   24  C12 UNL     1      18.538   0.598  50.244  1.00  0.00     0.046 A 
HETATM   25  C13 UNL     1      17.892  -0.207  51.147  1.00  0.00     0.138 A 
HETATM   26  F1  UNL     1      16.664  -0.702  50.849  1.00  0.00    -0.204 F 
HETATM   27  C14 UNL     1      18.536  -0.483  52.342  1.00  0.00     0.074 A 
HETATM   28 CL1  UNL     1      17.651  -1.519  53.448  1.00  0.00    -0.081 Cl
HETATM   29  C15 UNL     1      19.779   0.047  52.587  1.00  0.00     0.056 A 
ENDBRANCH  20  22
ENDBRANCH   6  20
TORSDOF 5
ENDMDL
MODEL 4
REMARK VINA RESULT:      -8.6      3.578      5.990
REMARK  5 active torsions:
REMARK  status: ('A' for Active; 'I' for Inactive)
REMARK    1  A    between atoms: C1_2  and  C2_3 
REMARK    2  A    between atoms: C3_4  and  C4_5 
REMARK    3  A    between atoms: C4_5  and  C5_6 
REMARK    4  A    between atoms: C9_11  and  N3_12 
REMARK    5  A    between atoms: N3_12  and  C10_13 
ROOT
HETATM    1  C5  UNL     1      24.158   3.472  51.084  1.00  0.00     0.246 C 
HETATM    2  N2  UNL     1      23.474   4.591  50.518  1.00  0.00     0.090 N 
HETATM    3  C6  UNL     1      24.258   5.809  50.530  1.00  0.00     0.270 C 
HETATM    4  C7  UNL     1      25.513   5.678  49.695  1.00  0.00     0.032 C 
HETATM    5  C8  UNL     1      25.810   4.197  49.499  1.00  0.00     0.029 C 
HETATM    6  C9  UNL     1      25.676   3.564  50.892  1.00  0.00     0.115 C 
HETATM    7  H7  UNL     1      23.186   4.442  49.521  1.00  0.00     0.316 HD
ENDROOT
BRANCH   1   8
HETATM    8  C4  UNL     1      23.817   3.194  52.531  1.00  0.00     0.072 C 
BRANCH   8   9
HETATM    9  C3  UNL     1      23.053   1.917  52.612  1.00  0.00    -0.064 C 
HETATM   10  C2  UNL     1      21.537   1.904  52.570  1.00  0.00     0.104 C 
HETATM   11  C19 UNL     1      21.301   0.790  53.529  1.00  0.00     0.055 A 
HETATM   12  C17 UNL     1      22.177  -0.124  52.750  1.00  0.00     0.181 A 
HETATM   13  N5  UNL     1      20.854   0.103  54.551  1.00  0.00    -0.248 NA
HETATM   14  C16 UNL     1      23.453   0.626  52.728  1.00  0.00     0.010 C 
HETATM   15  N4  UNL     1      22.185  -1.365  53.450  1.00  0.00    -0.268 NA
HETATM   16  C18 UNL     1      21.410  -1.212  54.487  1.00  0.00     0.228 A 
BRANCH  10  17
HETATM   17  C1  UNL     1      21.021   1.528  51.267  1.00  0.00     0.095 C 
HETATM   18  N1  UNL     1      20.765   2.557  50.514  1.00  0.00    -0.315 NA
HETATM   19  H1  UNL     1      20.962   3.481  50.946  1.00  0.00     0.185 HD
ENDBRANCH  10  17
ENDBRANCH   8   9
ENDBRANCH   1   8
BRANCH   6  20
HETATM   20  N3  UNL     1      26.282   2.261  50.896  1.00  0.00    -0.383 N 
HETATM   21  H15 UNL     1      26.199   1.695  49.998  1.00  0.00     0.160 HD
BRANCH  20  22
HETATM   22  C10 UNL     1      26.994   1.575  51.923  1.00  0.00     0.030 A 
HETATM   23  C11 UNL     1      27.735   2.211  52.924  1.00  0.00     0.032 A 
HETATM   24  C12 UNL     1      28.373   1.407  53.843  1.00  0.00     0.046 A 
HETATM   25  C13 UNL     1      28.327   0.037  53.833  1.00  0.00     0.138 A 
HETATM   26  F1  UNL     1      28.992  -0.666  54.784  1.00  0.00    -0.204 F 
HETATM   27  C14 UNL     1      27.588  -0.577  52.835  1.00  0.00     0.074 A 
HETATM   28 CL1  UNL     1      27.573  -2.331  52.884  1.00  0.00    -0.081 Cl
HETATM   29  C15 UNL     1      26.936   0.189  51.899  1.00  0.00     0.056 A 
ENDBRANCH  20  22
ENDBRANCH   6  20
TORSDOF 5
ENDMDL
MODEL 5
REMARK VINA RESULT:      -8.5      2.322      5.016
REMARK  5 active torsions:
REMARK  status: ('A' for Active; 'I' for Inactive)
REMARK    1  A    between atoms: C1_2  and  C2_3 
REMARK    2  A    between atoms: C3_4  and  C4_5 
REMARK    3  A    between atoms: C4_5  and  C5_6 
REMARK    4  A    between atoms: C9_11  and  N3_12 
REMARK    5  A    between atoms: N3_12  and  C10_13 
ROOT
HETATM    1  C5  UNL     1      25.759   0.939  53.466  1.00  0.00     0.246 C 
HETATM    2  N2  UNL     1      26.601   0.874  54.618  1.00  0.00     0.090 N 
HETATM    3  C6  UNL     1      27.960   0.474  54.314  1.00  0.00     0.270 C 
HETATM    4  C7  UNL     1      28.648   1.469  53.405  1.00  0.00     0.032 C 
HETATM    5  C8  UNL     1      27.583   2.307  52.712  1.00  0.00     0.029 C 
HETATM    6  C9  UNL     1      26.540   1.304  52.198  1.00  0.00     0.115 C 
HETATM    7  H7  UNL     1      26.676   1.786  55.130  1.00  0.00     0.316 HD
ENDROOT
BRANCH   1   8
HETATM    8  C4  UNL     1      24.912  -0.293  53.237  1.00  0.00     0.072 C 
BRANCH   8   9
HETATM    9  C3  UNL     1      23.474   0.082  53.343  1.00  0.00    -0.064 C 
HETATM   10  C2  UNL     1      22.399  -0.972  53.529  1.00  0.00     0.104 C 
HETATM   11  C19 UNL     1      21.332  -0.347  52.701  1.00  0.00     0.055 A 
HETATM   12  C17 UNL     1      21.417   0.921  53.473  1.00  0.00     0.181 A 
HETATM   13  N5  UNL     1      20.405  -0.172  51.792  1.00  0.00    -0.248 NA
HETATM   14  C16 UNL     1      22.843   1.281  53.307  1.00  0.00     0.010 C 
HETATM   15  N4  UNL     1      20.468   1.810  52.889  1.00  0.00    -0.268 NA
HETATM   16  C18 UNL     1      19.892   1.155  51.921  1.00  0.00     0.228 A 
BRANCH  10  17
HETATM   17  C1  UNL     1      21.943  -1.064  54.904  1.00  0.00     0.095 C 
HETATM   18  N1  UNL     1      22.706  -1.820  55.636  1.00  0.00    -0.315 NA
HETATM   19  H1  UNL     1      23.516  -2.243  55.140  1.00  0.00     0.185 HD
ENDBRANCH  10  17
ENDBRANCH   8   9
ENDBRANCH   1   8
BRANCH   6  20
HETATM   20  N3  UNL     1      25.691   1.937  51.227  1.00  0.00    -0.383 N 
HETATM   21  H15 UNL     1      24.803   1.415  50.959  1.00  0.00     0.160 HD
BRANCH  20  22
HETATM   22  C10 UNL     1      25.837   3.178  50.539  1.00  0.00     0.030 A 
HETATM   23  C11 UNL     1      26.791   3.417  49.545  1.00  0.00     0.032 A 
HETATM   24  C12 UNL     1      26.810   4.673  48.978  1.00  0.00     0.046 A 
HETATM   25  C13 UNL     1      25.960   5.690  49.329  1.00  0.00     0.138 A 
HETATM   26  F1  UNL     1      26.060   6.894  48.710  1.00  0.00    -0.204 F 
HETATM   27  C14 UNL     1      25.022   5.435  50.315  1.00  0.00     0.074 A 
HETATM   28 CL1  UNL     1      23.968   6.781  50.712  1.00  0.00    -0.081 Cl
HETATM   29  C15 UNL     1      24.968   4.196  50.905  1.00  0.00     0.056 A 
ENDBRANCH  20  22
ENDBRANCH   6  20
TORSDOF 5
ENDMDL
MODEL 6
REMARK VINA RESULT:      -8.4      3.513      7.302
REMARK  5 active torsions:
REMARK  status: ('A' for Active; 'I' for Inactive)
REMARK    1  A    between atoms: C1_2  and  C2_3 
REMARK    2  A    between atoms: C3_4  and  C4_5 
REMARK    3  A    between atoms: C4_5  and  C5_6 
REMARK    4  A    between atoms: C9_11  and  N3_12 
REMARK    5  A    between atoms: N3_12  and  C10_13 
ROOT
HETATM    1  C5  UNL     1      24.296   3.131  51.091  1.00  0.00     0.246 C 
HETATM    2  N2  UNL     1      22.870   3.090  51.041  1.00  0.00     0.090 N 
HETATM    3  C6  UNL     1      22.330   1.749  51.132  1.00  0.00     0.270 C 
HETATM    4  C7  UNL     1      22.677   1.092  52.451  1.00  0.00     0.032 C 
HETATM    5  C8  UNL     1      23.861   1.830  53.061  1.00  0.00     0.029 C 
HETATM    6  C9  UNL     1      24.880   1.985  51.924  1.00  0.00     0.115 C 
HETATM    7  H7  UNL     1      22.411   3.639  51.809  1.00  0.00     0.316 HD
ENDROOT
BRANCH   1   8
HETATM    8  C4  UNL     1      24.970   3.209  49.739  1.00  0.00     0.072 C 
BRANCH   8   9
HETATM    9  C3  UNL     1      25.013   4.632  49.299  1.00  0.00    -0.064 C 
HETATM   10  C2  UNL     1      26.155   5.544  49.703  1.00  0.00     0.104 C 
HETATM   11  C19 UNL     1      25.379   6.803  49.876  1.00  0.00     0.055 A 
HETATM   12  C17 UNL     1      24.823   6.700  48.501  1.00  0.00     0.181 A 
HETATM   13  N5  UNL     1      24.883   7.896  50.402  1.00  0.00    -0.248 NA
HETATM   14  C16 UNL     1      24.170   5.372  48.538  1.00  0.00     0.010 C 
HETATM   15  N4  UNL     1      23.962   7.823  48.333  1.00  0.00    -0.268 NA
HETATM   16  C18 UNL     1      24.016   8.503  49.444  1.00  0.00     0.228 A 
BRANCH  10  17
HETATM   17  C1  UNL     1      27.124   5.725  48.638  1.00  0.00     0.095 C 
HETATM   18  N1  UNL     1      28.276   5.186  48.911  1.00  0.00    -0.315 NA
HETATM   19  H1  UNL     1      28.334   4.714  49.834  1.00  0.00     0.185 HD
ENDBRANCH  10  17
ENDBRANCH   8   9
ENDBRANCH   1   8
BRANCH   6  20
HETATM   20  N3  UNL     1      26.165   2.333  52.464  1.00  0.00    -0.383 N 
HETATM   21  H15 UNL     1      26.380   3.372  52.547  1.00  0.00     0.160 HD
BRANCH  20  22
HETATM   22  C10 UNL     1      27.233   1.505  52.919  1.00  0.00     0.030 A 
HETATM   23  C11 UNL     1      28.380   1.985  53.560  1.00  0.00     0.032 A 
HETATM   24  C12 UNL     1      29.327   1.057  53.935  1.00  0.00     0.046 A 
HETATM   25  C13 UNL     1      29.214  -0.292  53.718  1.00  0.00     0.138 A 
HETATM   26  F1  UNL     1      30.205  -1.125  54.125  1.00  0.00    -0.204 F 
HETATM   27  C14 UNL     1      28.072  -0.749  53.082  1.00  0.00     0.074 A 
HETATM   28 CL1  UNL     1      27.994  -2.485  52.837  1.00  0.00    -0.081 Cl
HETATM   29  C15 UNL     1      27.102   0.143  52.692  1.00  0.00     0.056 A 
ENDBRANCH  20  22
ENDBRANCH   6  20
TORSDOF 5
ENDMDL
MODEL 7
REMARK VINA RESULT:      -8.4      3.508      6.718
REMARK  5 active torsions:
REMARK  status: ('A' for Active; 'I' for Inactive)
REMARK    1  A    between atoms: C1_2  and  C2_3 
REMARK    2  A    between atoms: C3_4  and  C4_5 
REMARK    3  A    between atoms: C4_5  and  C5_6 
REMARK    4  A    between atoms: C9_11  and  N3_12 
REMARK    5  A    between atoms: N3_12  and  C10_13 
ROOT
HETATM    1  C5  UNL     1      24.273   3.259  50.729  1.00  0.00     0.246 C 
HETATM    2  N2  UNL     1      24.197   4.122  49.593  1.00  0.00     0.090 N 
HETATM    3  C6  UNL     1      25.299   5.059  49.509  1.00  0.00     0.270 C 
HETATM    4  C7  UNL     1      26.627   4.350  49.352  1.00  0.00     0.032 C 
HETATM    5  C8  UNL     1      26.461   2.907  49.806  1.00  0.00     0.029 C 
HETATM    6  C9  UNL     1      25.720   2.981  51.149  1.00  0.00     0.115 C 
HETATM    7  H7  UNL     1      24.184   3.608  48.680  1.00  0.00     0.316 HD
ENDROOT
BRANCH   1   8
HETATM    8  C4  UNL     1      23.448   3.707  51.915  1.00  0.00     0.072 C 
BRANCH   8   9
HETATM    9  C3  UNL     1      22.215   2.874  51.990  1.00  0.00    -0.064 C 
HETATM   10  C2  UNL     1      22.248   1.391  51.675  1.00  0.00     0.104 C 
HETATM   11  C19 UNL     1      20.921   1.278  51.011  1.00  0.00     0.055 A 
HETATM   12  C17 UNL     1      20.235   1.879  52.185  1.00  0.00     0.181 A 
HETATM   13  N5  UNL     1      19.991   1.011  50.128  1.00  0.00    -0.248 NA
HETATM   14  C16 UNL     1      20.933   3.177  52.312  1.00  0.00     0.010 C 
HETATM   15  N4  UNL     1      18.849   1.935  51.854  1.00  0.00    -0.268 NA
HETATM   16  C18 UNL     1      18.731   1.425  50.661  1.00  0.00     0.228 A 
BRANCH  10  17
HETATM   17  C1  UNL     1      22.255   0.569  52.871  1.00  0.00     0.095 C 
HETATM   18  N1  UNL     1      23.454   0.225  53.237  1.00  0.00    -0.315 NA
HETATM   19  H1  UNL     1      24.219   0.580  52.631  1.00  0.00     0.185 HD
ENDBRANCH  10  17
ENDBRANCH   8   9
ENDBRANCH   1   8
BRANCH   6  20
HETATM   20  N3  UNL     1      25.832   1.724  51.837  1.00  0.00    -0.383 N 
HETATM   21  H15 UNL     1      24.943   1.145  51.917  1.00  0.00     0.160 HD
BRANCH  20  22
HETATM   22  C10 UNL     1      26.958   1.103  52.451  1.00  0.00     0.030 A 
HETATM   23  C11 UNL     1      27.999   1.801  53.073  1.00  0.00     0.032 A 
HETATM   24  C12 UNL     1      29.023   1.055  53.615  1.00  0.00     0.046 A 
HETATM   25  C13 UNL     1      29.082  -0.314  53.580  1.00  0.00     0.138 A 
HETATM   26  F1  UNL     1      30.136  -0.956  54.144  1.00  0.00    -0.204 F 
HETATM   27  C14 UNL     1      28.044  -0.989  52.961  1.00  0.00     0.074 A 
HETATM   28 CL1  UNL     1      28.186  -2.738  52.954  1.00  0.00    -0.081 Cl
HETATM   29  C15 UNL     1      27.003  -0.284  52.408  1.00  0.00     0.056 A 
ENDBRANCH  20  22
ENDBRANCH   6  20
TORSDOF 5
ENDMDL
MODEL 8
REMARK VINA RESULT:      -8.4      3.211      6.462
REMARK  5 active torsions:
REMARK  status: ('A' for Active; 'I' for Inactive)
REMARK    1  A    between atoms: C1_2  and  C2_3 
REMARK    2  A    between atoms: C3_4  and  C4_5 
REMARK    3  A    between atoms: C4_5  and  C5_6 
REMARK    4  A    between atoms: C9_11  and  N3_12 
REMARK    5  A    between atoms: N3_12  and  C10_13 
ROOT
HETATM    1  C5  UNL     1      22.223   1.766  51.638  1.00  0.00     0.246 C 
HETATM    2  N2  UNL     1      20.817   1.621  51.430  1.00  0.00     0.090 N 
HETATM    3  C6  UNL     1      20.349   0.261  51.601  1.00  0.00     0.270 C 
HETATM    4  C7  UNL     1      20.570  -0.236  53.014  1.00  0.00     0.032 C 
HETATM    5  C8  UNL     1      21.627   0.640  53.674  1.00  0.00     0.029 C 
HETATM    6  C9  UNL     1      22.766   0.751  52.650  1.00  0.00     0.115 C 
HETATM    7  H7  UNL     1      20.238   2.210  52.077  1.00  0.00     0.316 HD
ENDROOT
BRANCH   1   8
HETATM    8  C4  UNL     1      23.050   1.755  50.372  1.00  0.00     0.072 C 
BRANCH   8   9
HETATM    9  C3  UNL     1      23.527   3.138  50.092  1.00  0.00    -0.064 C 
HETATM   10  C2  UNL     1      24.755   3.700  50.782  1.00  0.00     0.104 C 
HETATM   11  C19 UNL     1      24.294   5.107  50.941  1.00  0.00     0.055 A 
HETATM   12  C17 UNL     1      24.011   5.224  49.486  1.00  0.00     0.181 A 
HETATM   13  N5  UNL     1      23.987   6.262  51.477  1.00  0.00    -0.248 NA
HETATM   14  C16 UNL     1      23.059   4.112  49.272  1.00  0.00     0.010 C 
HETATM   15  N4  UNL     1      23.504   6.540  49.281  1.00  0.00    -0.268 NA
HETATM   16  C18 UNL     1      23.502   7.123  50.446  1.00  0.00     0.228 A 
BRANCH  10  17
HETATM   17  C1  UNL     1      25.930   3.678  49.929  1.00  0.00     0.095 C 
HETATM   18  N1  UNL     1      27.039   3.635  50.605  1.00  0.00    -0.315 NA
HETATM   19  H1  UNL     1      26.927   3.625  51.638  1.00  0.00     0.185 HD
ENDBRANCH  10  17
ENDBRANCH   8   9
ENDBRANCH   1   8
BRANCH   6  20
HETATM   20  N3  UNL     1      23.954   1.240  53.294  1.00  0.00    -0.383 N 
HETATM   21  H15 UNL     1      23.840   2.097  53.915  1.00  0.00     0.160 HD
BRANCH  20  22
HETATM   22  C10 UNL     1      25.297   0.765  53.242  1.00  0.00     0.030 A 
HETATM   23  C11 UNL     1      25.652  -0.555  52.943  1.00  0.00     0.032 A 
HETATM   24  C12 UNL     1      26.996  -0.860  52.938  1.00  0.00     0.046 A 
HETATM   25  C13 UNL     1      27.993   0.041  53.207  1.00  0.00     0.138 A 
HETATM   26  F1  UNL     1      29.289  -0.360  53.178  1.00  0.00    -0.204 F 
HETATM   27  C14 UNL     1      27.624   1.343  53.501  1.00  0.00     0.074 A 
HETATM   28 CL1  UNL     1      28.951   2.442  53.834  1.00  0.00    -0.081 Cl
HETATM   29  C15 UNL     1      26.295   1.690  53.515  1.00  0.00     0.056 A 
ENDBRANCH  20  22
ENDBRANCH   6  20
TORSDOF 5
ENDMDL
MODEL 9
REMARK VINA RESULT:      -8.3      3.673      5.369
REMARK  5 active torsions:
REMARK  status: ('A' for Active; 'I' for Inactive)
REMARK    1  A    between atoms: C1_2  and  C2_3 
REMARK    2  A    between atoms: C3_4  and  C4_5 
REMARK    3  A    between atoms: C4_5  and  C5_6 
REMARK    4  A    between atoms: C9_11  and  N3_12 
REMARK    5  A    between atoms: N3_12  and  C10_13 
ROOT
HETATM    1  C5  UNL     1      25.166   3.007  51.519  1.00  0.00     0.246 C 
HETATM    2  N2  UNL     1      26.413   3.408  50.949  1.00  0.00     0.090 N 
HETATM    3  C6  UNL     1      26.276   4.024  49.645  1.00  0.00     0.270 C 
HETATM    4  C7  UNL     1      25.467   5.302  49.710  1.00  0.00     0.032 C 
HETATM    5  C8  UNL     1      24.656   5.295  50.998  1.00  0.00     0.029 C 
HETATM    6  C9  UNL     1      24.008   3.905  51.069  1.00  0.00     0.115 C 
HETATM    7  H7  UNL     1      26.939   4.096  51.540  1.00  0.00     0.316 HD
ENDROOT
BRANCH   1   8
HETATM    8  C4  UNL     1      24.823   1.549  51.318  1.00  0.00     0.072 C 
BRANCH   8   9
HETATM    9  C3  UNL     1      25.634   0.725  52.258  1.00  0.00    -0.064 C 
HETATM   10  C2  UNL     1      25.299   0.662  53.736  1.00  0.00     0.104 C 
HETATM   11  C19 UNL     1      26.686   0.599  54.273  1.00  0.00     0.055 A 
HETATM   12  C17 UNL     1      27.007  -0.580  53.426  1.00  0.00     0.181 A 
HETATM   13  N5  UNL     1      27.766   0.870  54.964  1.00  0.00    -0.248 NA
HETATM   14  C16 UNL     1      26.720  -0.065  52.069  1.00  0.00     0.010 C 
HETATM   15  N4  UNL     1      28.365  -0.915  53.702  1.00  0.00    -0.268 NA
HETATM   16  C18 UNL     1      28.782  -0.065  54.597  1.00  0.00     0.228 A 
BRANCH  10  17
HETATM   17  C1  UNL     1      24.595  -0.555  54.094  1.00  0.00     0.095 C 
HETATM   18  N1  UNL     1      23.345  -0.536  53.735  1.00  0.00    -0.315 NA
HETATM   19  H1  UNL     1      23.038   0.333  53.254  1.00  0.00     0.185 HD
ENDBRANCH  10  17
ENDBRANCH   8   9
ENDBRANCH   1   8
BRANCH   6  20
HETATM   20  N3  UNL     1      22.945   3.910  52.036  1.00  0.00    -0.383 N 
HETATM   21  H15 UNL     1      23.175   4.316  52.993  1.00  0.00     0.160 HD
BRANCH  20  22
HETATM   22  C10 UNL     1      21.599   3.452  51.933  1.00  0.00     0.030 A 
HETATM   23  C11 UNL     1      20.530   4.245  51.503  1.00  0.00     0.032 A 
HETATM   24  C12 UNL     1      19.284   3.657  51.465  1.00  0.00     0.046 A 
HETATM   25  C13 UNL     1      19.034   2.357  51.821  1.00  0.00     0.138 A 
HETATM   26  F1  UNL     1      17.769   1.871  51.748  1.00  0.00    -0.204 F 
HETATM   27  C14 UNL     1      20.104   1.586  52.244  1.00  0.00     0.074 A 
HETATM   28 CL1  UNL     1      19.709  -0.066  52.683  1.00  0.00    -0.081 Cl
HETATM   29  C15 UNL     1      21.362   2.134  52.297  1.00  0.00     0.056 A 
ENDBRANCH  20  22
ENDBRANCH   6  20
TORSDOF 5
ENDMDL
