MODEL 1
REMARK VINA RESULT:      -7.6      0.000      0.000
REMARK  2 active torsions:
REMARK  status: ('A' for Active; 'I' for Inactive)
REMARK    1  A    between atoms: C6_6  and  N1_7 
REMARK    2  A    between atoms: C18_21  and  O2_22 
ROOT
HETATM    1  C1  UNL     1      35.465   7.701  48.183  1.00  0.00     0.048 C 
HETATM    2  C2  UNL     1      34.292   6.862  47.997  1.00  0.00    -0.029 C 
HETATM    3  C3  UNL     1      33.789   5.837  48.798  1.00  0.00     0.014 C 
HETATM    4  C4  UNL     1      34.723   4.642  48.891  1.00  0.00     0.060 C 
HETATM    5  C5  UNL     1      35.002   4.051  47.542  1.00  0.00     0.046 C 
HETATM    6  C6  UNL     1      33.804   3.655  46.727  1.00  0.00     0.251 C 
HETATM    7  C7  UNL     1      32.797   4.789  46.646  1.00  0.00    -0.024 C 
HETATM    8  C8  UNL     1      33.255   5.905  45.940  1.00  0.00     0.018 C 
HETATM    9  C9  UNL     1      33.518   7.200  46.705  1.00  0.00     0.175 C 
HETATM   10  O1  UNL     1      32.390   7.755  47.171  1.00  0.00    -0.377 OA
HETATM   11  C10 UNL     1      31.373   8.215  46.426  1.00  0.00     0.180 C 
HETATM   12  C11 UNL     1      30.253   8.695  47.395  1.00  0.00     0.065 C 
HETATM   13  C12 UNL     1      28.913   8.404  46.911  1.00  0.00    -0.017 C 
HETATM   14  C13 UNL     1      28.304   7.242  47.232  1.00  0.00    -0.003 C 
HETATM   15  C14 UNL     1      29.006   6.185  48.019  1.00  0.00     0.012 C 
HETATM   16  C15 UNL     1      30.255   6.488  48.366  1.00  0.00    -0.002 C 
HETATM   17  C16 UNL     1      31.434   5.580  48.403  1.00  0.00     0.041 C 
HETATM   18  C17 UNL     1      31.425   4.659  47.352  1.00  0.00     0.039 C 
HETATM   19  N2  UNL     1      32.437   5.835  49.488  1.00  0.00    -0.359 N 
HETATM   20  C18 UNL     1      30.490   7.948  48.726  1.00  0.00     0.163 C 
HETATM   21  H20 UNL     1      32.069   5.955  50.431  1.00  0.00     0.166 HD
ENDROOT
BRANCH   6  22
HETATM   22  N1  UNL     1      33.305   2.430  47.256  1.00  0.00     0.087 N 
HETATM   23  H9  UNL     1      32.401   2.115  46.857  1.00  0.00     0.313 HD
HETATM   24  H10 UNL     1      33.269   2.466  48.319  1.00  0.00     0.313 HD
ENDBRANCH   6  22
BRANCH  20  25
HETATM   25  O2  UNL     1      29.585   8.355  49.677  1.00  0.00    -0.390 OA
HETATM   26  H22 UNL     1      28.888   7.662  49.837  1.00  0.00     0.210 HD
ENDBRANCH  20  25
TORSDOF 2
ENDMDL
MODEL 2
REMARK VINA RESULT:      -7.6      7.675      9.211
REMARK  2 active torsions:
REMARK  status: ('A' for Active; 'I' for Inactive)
REMARK    1  A    between atoms: C6_6  and  N1_7 
REMARK    2  A    between atoms: C18_21  and  O2_22 
ROOT
HETATM    1  C1  UNL     1      28.635   2.404  53.559  1.00  0.00     0.048 C 
HETATM    2  C2  UNL     1      27.258   2.173  53.154  1.00  0.00    -0.029 C 
HETATM    3  C3  UNL     1      26.087   2.195  53.911  1.00  0.00     0.014 C 
HETATM    4  C4  UNL     1      26.040   1.104  54.967  1.00  0.00     0.060 C 
HETATM    5  C5  UNL     1      26.144  -0.262  54.357  1.00  0.00     0.046 C 
HETATM    6  C6  UNL     1      25.142  -0.592  53.287  1.00  0.00     0.251 C 
HETATM    7  C7  UNL     1      25.094   0.496  52.227  1.00  0.00    -0.024 C 
HETATM    8  C8  UNL     1      26.268   0.612  51.480  1.00  0.00     0.018 C 
HETATM    9  C9  UNL     1      27.125   1.865  51.648  1.00  0.00     0.175 C 
HETATM   10  O1  UNL     1      26.521   2.963  51.172  1.00  0.00    -0.377 OA
HETATM   11  C10 UNL     1      26.173   3.179  49.894  1.00  0.00     0.180 C 
HETATM   12  C11 UNL     1      25.433   4.547  49.827  1.00  0.00     0.065 C 
HETATM   13  C12 UNL     1      24.325   4.554  48.885  1.00  0.00    -0.017 C 
HETATM   14  C13 UNL     1      23.080   4.217  49.288  1.00  0.00    -0.003 C 
HETATM   15  C14 UNL     1      22.809   3.750  50.679  1.00  0.00     0.012 C 
HETATM   16  C15 UNL     1      23.882   3.698  51.467  1.00  0.00    -0.002 C 
HETATM   17  C16 UNL     1      24.210   2.668  52.490  1.00  0.00     0.041 C 
HETATM   18  C17 UNL     1      23.833   1.384  52.087  1.00  0.00     0.039 C 
HETATM   19  N2  UNL     1      24.924   3.151  53.716  1.00  0.00    -0.359 N 
HETATM   20  C18 UNL     1      24.896   4.812  51.251  1.00  0.00     0.163 C 
HETATM   21  H20 UNL     1      24.538   3.977  54.175  1.00  0.00     0.166 HD
ENDROOT
BRANCH   6  22
HETATM   22  N1  UNL     1      23.902  -0.878  53.927  1.00  0.00     0.087 N 
HETATM   23  H9  UNL     1      23.105  -0.286  53.627  1.00  0.00     0.313 HD
HETATM   24  H10 UNL     1      24.014  -0.871  54.985  1.00  0.00     0.313 HD
ENDBRANCH   6  22
BRANCH  20  25
HETATM   25  O2  UNL     1      24.278   6.038  51.314  1.00  0.00    -0.390 OA
HETATM   26  H22 UNL     1      23.934   6.226  52.230  1.00  0.00     0.210 HD
ENDBRANCH  20  25
TORSDOF 2
ENDMDL
MODEL 3
REMARK VINA RESULT:      -7.4      8.028      9.747
REMARK  2 active torsions:
REMARK  status: ('A' for Active; 'I' for Inactive)
REMARK    1  A    between atoms: C6_6  and  N1_7 
REMARK    2  A    between atoms: C18_21  and  O2_22 
ROOT
HETATM    1  C1  UNL     1      26.725   2.272  51.363  1.00  0.00     0.048 C 
HETATM    2  C2  UNL     1      25.359   2.767  51.403  1.00  0.00    -0.029 C 
HETATM    3  C3  UNL     1      24.517   2.983  52.494  1.00  0.00     0.014 C 
HETATM    4  C4  UNL     1      24.156   1.703  53.229  1.00  0.00     0.060 C 
HETATM    5  C5  UNL     1      23.467   0.723  52.329  1.00  0.00     0.046 C 
HETATM    6  C6  UNL     1      22.244   1.220  51.613  1.00  0.00     0.251 C 
HETATM    7  C7  UNL     1      22.521   2.535  50.905  1.00  0.00    -0.024 C 
HETATM    8  C8  UNL     1      23.433   2.431  49.853  1.00  0.00     0.018 C 
HETATM    9  C9  UNL     1      24.803   3.092  50.000  1.00  0.00     0.175 C 
HETATM   10  O1  UNL     1      24.723   4.431  50.015  1.00  0.00    -0.377 OA
HETATM   11  C10 UNL     1      24.282   5.204  49.012  1.00  0.00     0.180 C 
HETATM   12  C11 UNL     1      24.296   6.680  49.507  1.00  0.00     0.065 C 
HETATM   13  C12 UNL     1      23.169   7.460  49.020  1.00  0.00    -0.017 C 
HETATM   14  C13 UNL     1      22.023   7.527  49.731  1.00  0.00    -0.003 C 
HETATM   15  C14 UNL     1      21.837   6.746  50.989  1.00  0.00     0.012 C 
HETATM   16  C15 UNL     1      22.882   5.997  51.338  1.00  0.00    -0.002 C 
HETATM   17  C16 UNL     1      22.865   4.633  51.931  1.00  0.00     0.041 C 
HETATM   18  C17 UNL     1      21.845   3.838  51.400  1.00  0.00     0.039 C 
HETATM   19  N2  UNL     1      23.947   4.324  52.921  1.00  0.00    -0.359 N 
HETATM   20  C18 UNL     1      24.244   6.614  51.050  1.00  0.00     0.163 C 
HETATM   21  H20 UNL     1      24.105   5.013  53.656  1.00  0.00     0.166 HD
ENDROOT
BRANCH   6  22
HETATM   22  N1  UNL     1      21.172   1.243  52.551  1.00  0.00     0.087 N 
HETATM   23  H9  UNL     1      20.244   0.989  52.164  1.00  0.00     0.313 HD
HETATM   24  H10 UNL     1      21.137   2.178  53.060  1.00  0.00     0.313 HD
ENDBRANCH   6  22
BRANCH  20  25
HETATM   25  O2  UNL     1      24.319   7.875  51.591  1.00  0.00    -0.390 OA
HETATM   26  H22 UNL     1      23.935   8.558  50.976  1.00  0.00     0.210 HD
ENDBRANCH  20  25
TORSDOF 2
ENDMDL
MODEL 4
REMARK VINA RESULT:      -7.3      8.627     11.057
REMARK  2 active torsions:
REMARK  status: ('A' for Active; 'I' for Inactive)
REMARK    1  A    between atoms: C6_6  and  N1_7 
REMARK    2  A    between atoms: C18_21  and  O2_22 
ROOT
HETATM    1  C1  UNL     1      20.340   3.233  52.707  1.00  0.00     0.048 C 
HETATM    2  C2  UNL     1      21.611   3.245  52.001  1.00  0.00    -0.029 C 
HETATM    3  C3  UNL     1      22.496   4.297  51.770  1.00  0.00     0.014 C 
HETATM    4  C4  UNL     1      21.909   5.386  50.888  1.00  0.00     0.060 C 
HETATM    5  C5  UNL     1      21.499   4.854  49.548  1.00  0.00     0.046 C 
HETATM    6  C6  UNL     1      22.558   4.129  48.767  1.00  0.00     0.251 C 
HETATM    7  C7  UNL     1      23.232   3.064  49.614  1.00  0.00    -0.024 C 
HETATM    8  C8  UNL     1      22.388   2.011  49.977  1.00  0.00     0.018 C 
HETATM    9  C9  UNL     1      21.996   1.857  51.445  1.00  0.00     0.175 C 
HETATM   10  O1  UNL     1      23.035   1.506  52.216  1.00  0.00    -0.377 OA
HETATM   11  C10 UNL     1      23.736   0.366  52.120  1.00  0.00     0.180 C 
HETATM   12  C11 UNL     1      24.891   0.429  53.163  1.00  0.00     0.065 C 
HETATM   13  C12 UNL     1      26.130  -0.163  52.683  1.00  0.00    -0.017 C 
HETATM   14  C13 UNL     1      27.047   0.592  52.040  1.00  0.00    -0.003 C 
HETATM   15  C14 UNL     1      26.793   2.029  51.724  1.00  0.00     0.012 C 
HETATM   16  C15 UNL     1      25.609   2.486  52.128  1.00  0.00    -0.002 C 
HETATM   17  C16 UNL     1      24.710   3.434  51.416  1.00  0.00     0.041 C 
HETATM   18  C17 UNL     1      24.713   3.230  50.034  1.00  0.00     0.039 C 
HETATM   19  N2  UNL     1      23.925   4.380  52.275  1.00  0.00    -0.359 N 
HETATM   20  C18 UNL     1      25.120   1.928  53.457  1.00  0.00     0.163 C 
HETATM   21  H20 UNL     1      24.444   4.879  52.998  1.00  0.00     0.166 HD
ENDROOT
BRANCH   6  22
HETATM   22  N1  UNL     1      23.429   5.107  48.207  1.00  0.00     0.087 N 
HETATM   23  H9  UNL     1      23.333   6.062  48.604  1.00  0.00     0.313 HD
HETATM   24  H10 UNL     1      23.351   5.118  47.146  1.00  0.00     0.313 HD
ENDBRANCH   6  22
BRANCH  20  25
HETATM   25  O2  UNL     1      26.083   2.089  54.425  1.00  0.00    -0.390 OA
HETATM   26  H22 UNL     1      26.258   3.053  54.607  1.00  0.00     0.210 HD
ENDBRANCH  20  25
TORSDOF 2
ENDMDL
MODEL 5
REMARK VINA RESULT:      -7.2      2.359      4.914
REMARK  2 active torsions:
REMARK  status: ('A' for Active; 'I' for Inactive)
REMARK    1  A    between atoms: C6_6  and  N1_7 
REMARK    2  A    between atoms: C18_21  and  O2_22 
ROOT
HETATM    1  C1  UNL     1      34.235   9.808  46.083  1.00  0.00     0.048 C 
HETATM    2  C2  UNL     1      33.376   8.789  46.665  1.00  0.00    -0.029 C 
HETATM    3  C3  UNL     1      32.017   8.547  46.468  1.00  0.00     0.014 C 
HETATM    4  C4  UNL     1      31.132   9.681  46.956  1.00  0.00     0.060 C 
HETATM    5  C5  UNL     1      31.324   9.943  48.419  1.00  0.00     0.046 C 
HETATM    6  C6  UNL     1      31.140   8.768  49.337  1.00  0.00     0.251 C 
HETATM    7  C7  UNL     1      31.952   7.573  48.868  1.00  0.00    -0.024 C 
HETATM    8  C8  UNL     1      33.334   7.764  48.939  1.00  0.00     0.018 C 
HETATM    9  C9  UNL     1      34.130   7.860  47.639  1.00  0.00     0.175 C 
HETATM   10  O1  UNL     1      34.161   6.696  46.974  1.00  0.00    -0.377 OA
HETATM   11  C10 UNL     1      34.711   5.553  47.413  1.00  0.00     0.180 C 
HETATM   12  C11 UNL     1      34.439   4.453  46.344  1.00  0.00     0.065 C 
HETATM   13  C12 UNL     1      34.159   3.149  46.922  1.00  0.00    -0.017 C 
HETATM   14  C13 UNL     1      32.890   2.786  47.212  1.00  0.00    -0.003 C 
HETATM   15  C14 UNL     1      31.747   3.728  47.030  1.00  0.00     0.012 C 
HETATM   16  C15 UNL     1      32.086   4.929  46.566  1.00  0.00    -0.002 C 
HETATM   17  C16 UNL     1      31.522   6.248  46.962  1.00  0.00     0.041 C 
HETATM   18  C17 UNL     1      31.234   6.312  48.328  1.00  0.00     0.039 C 
HETATM   19  N2  UNL     1      31.420   7.280  45.880  1.00  0.00    -0.359 N 
HETATM   20  C18 UNL     1      33.211   4.933  45.540  1.00  0.00     0.163 C 
HETATM   21  H20 UNL     1      31.000   6.981  45.000  1.00  0.00     0.166 HD
ENDROOT
BRANCH   6  22
HETATM   22  N1  UNL     1      29.740   8.540  49.474  1.00  0.00     0.087 N 
HETATM   23  H9  UNL     1      29.140   9.368  49.299  1.00  0.00     0.313 HD
HETATM   24  H10 UNL     1      29.522   8.095  50.416  1.00  0.00     0.313 HD
ENDBRANCH   6  22
BRANCH  20  25
HETATM   25  O2  UNL     1      32.928   4.056  44.521  1.00  0.00    -0.390 OA
HETATM   26  H22 UNL     1      32.025   3.649  44.631  1.00  0.00     0.210 HD
ENDBRANCH  20  25
TORSDOF 2
ENDMDL
MODEL 6
REMARK VINA RESULT:      -7.2      7.146      9.875
REMARK  2 active torsions:
REMARK  status: ('A' for Active; 'I' for Inactive)
REMARK    1  A    between atoms: C6_6  and  N1_7 
REMARK    2  A    between atoms: C18_21  and  O2_22 
ROOT
HETATM    1  C1  UNL     1      20.648   3.269  52.332  1.00  0.00     0.048 C 
HETATM    2  C2  UNL     1      22.036   3.168  51.913  1.00  0.00    -0.029 C 
HETATM    3  C3  UNL     1      22.645   2.259  51.049  1.00  0.00     0.014 C 
HETATM    4  C4  UNL     1      22.619   0.832  51.570  1.00  0.00     0.060 C 
HETATM    5  C5  UNL     1      23.312   0.713  52.894  1.00  0.00     0.046 C 
HETATM    6  C6  UNL     1      24.727   1.215  52.953  1.00  0.00     0.251 C 
HETATM    7  C7  UNL     1      24.835   2.619  52.386  1.00  0.00    -0.024 C 
HETATM    8  C8  UNL     1      24.168   3.588  53.139  1.00  0.00     0.018 C 
HETATM    9  C9  UNL     1      22.929   4.257  52.545  1.00  0.00     0.175 C 
HETATM   10  O1  UNL     1      23.227   5.041  51.499  1.00  0.00    -0.377 OA
HETATM   11  C10 UNL     1      23.998   6.138  51.533  1.00  0.00     0.180 C 
HETATM   12  C11 UNL     1      24.124   6.675  50.076  1.00  0.00     0.065 C 
HETATM   13  C12 UNL     1      25.444   7.205  49.773  1.00  0.00    -0.017 C 
HETATM   14  C13 UNL     1      26.404   6.404  49.262  1.00  0.00    -0.003 C 
HETATM   15  C14 UNL     1      26.179   4.942  49.068  1.00  0.00     0.012 C 
HETATM   16  C15 UNL     1      24.973   4.511  49.435  1.00  0.00    -0.002 C 
HETATM   17  C16 UNL     1      24.633   3.232  50.115  1.00  0.00     0.041 C 
HETATM   18  C17 UNL     1      25.595   2.862  51.058  1.00  0.00     0.039 C 
HETATM   19  N2  UNL     1      23.326   2.604  49.736  1.00  0.00    -0.359 N 
HETATM   20  C18 UNL     1      23.829   5.474  49.151  1.00  0.00     0.163 C 
HETATM   21  H20 UNL     1      23.130   2.522  48.739  1.00  0.00     0.166 HD
ENDROOT
BRANCH   6  22
HETATM   22  N1  UNL     1      25.559   0.239  52.332  1.00  0.00     0.087 N 
HETATM   23  H9  UNL     1      25.173  -0.724  52.317  1.00  0.00     0.313 HD
HETATM   24  H10 UNL     1      26.537   0.257  52.752  1.00  0.00     0.313 HD
ENDBRANCH   6  22
BRANCH  20  25
HETATM   25  O2  UNL     1      23.850   5.863  47.832  1.00  0.00    -0.390 OA
HETATM   26  H22 UNL     1      23.263   5.285  47.273  1.00  0.00     0.210 HD
ENDBRANCH  20  25
TORSDOF 2
ENDMDL
MODEL 7
REMARK VINA RESULT:      -7.1      1.968      5.342
REMARK  2 active torsions:
REMARK  status: ('A' for Active; 'I' for Inactive)
REMARK    1  A    between atoms: C6_6  and  N1_7 
REMARK    2  A    between atoms: C18_21  and  O2_22 
ROOT
HETATM    1  C1  UNL     1      28.200   7.921  46.051  1.00  0.00     0.048 C 
HETATM    2  C2  UNL     1      29.336   7.891  46.959  1.00  0.00    -0.029 C 
HETATM    3  C3  UNL     1      29.378   7.651  48.332  1.00  0.00     0.014 C 
HETATM    4  C4  UNL     1      28.660   8.715  49.145  1.00  0.00     0.060 C 
HETATM    5  C5  UNL     1      29.247  10.075  48.917  1.00  0.00     0.046 C 
HETATM    6  C6  UNL     1      30.724  10.212  49.155  1.00  0.00     0.251 C 
HETATM    7  C7  UNL     1      31.500   9.135  48.418  1.00  0.00    -0.024 C 
HETATM    8  C8  UNL     1      31.433   9.240  47.026  1.00  0.00     0.018 C 
HETATM    9  C9  UNL     1      30.676   8.169  46.244  1.00  0.00     0.175 C 
HETATM   10  O1  UNL     1      31.288   6.977  46.288  1.00  0.00    -0.377 OA
HETATM   11  C10 UNL     1      32.506   6.700  45.797  1.00  0.00     0.180 C 
HETATM   12  C11 UNL     1      32.833   5.218  46.145  1.00  0.00     0.065 C 
HETATM   13  C12 UNL     1      34.229   5.004  46.490  1.00  0.00    -0.017 C 
HETATM   14  C13 UNL     1      34.641   5.102  47.773  1.00  0.00    -0.003 C 
HETATM   15  C14 UNL     1      33.708   5.511  48.863  1.00  0.00     0.012 C 
HETATM   16  C15 UNL     1      32.462   5.762  48.464  1.00  0.00    -0.002 C 
HETATM   17  C16 UNL     1      31.552   6.835  48.947  1.00  0.00     0.041 C 
HETATM   18  C17 UNL     1      32.233   8.026  49.213  1.00  0.00     0.039 C 
HETATM   19  N2  UNL     1      30.094   6.494  49.007  1.00  0.00    -0.359 N 
HETATM   20  C18 UNL     1      31.944   4.857  47.356  1.00  0.00     0.163 C 
HETATM   21  H20 UNL     1      29.848   5.612  49.455  1.00  0.00     0.166 HD
ENDROOT
BRANCH   6  22
HETATM   22  N1  UNL     1      30.934  10.262  50.563  1.00  0.00     0.087 N 
HETATM   23  H9  UNL     1      31.393   9.426  50.970  1.00  0.00     0.313 HD
HETATM   24  H10 UNL     1      30.027  10.492  51.071  1.00  0.00     0.313 HD
ENDBRANCH   6  22
BRANCH  20  25
HETATM   25  O2  UNL     1      32.111   3.537  47.701  1.00  0.00    -0.390 OA
HETATM   26  H22 UNL     1      33.069   3.323  47.869  1.00  0.00     0.210 HD
ENDBRANCH  20  25
TORSDOF 2
ENDMDL
MODEL 8
REMARK VINA RESULT:      -7.0      8.027     10.743
REMARK  2 active torsions:
REMARK  status: ('A' for Active; 'I' for Inactive)
REMARK    1  A    between atoms: C6_6  and  N1_7 
REMARK    2  A    between atoms: C18_21  and  O2_22 
ROOT
HETATM    1  C1  UNL     1      26.510   3.195  49.520  1.00  0.00     0.048 C 
HETATM    2  C2  UNL     1      25.169   3.655  49.846  1.00  0.00    -0.029 C 
HETATM    3  C3  UNL     1      24.338   4.543  49.165  1.00  0.00     0.014 C 
HETATM    4  C4  UNL     1      24.893   5.957  49.113  1.00  0.00     0.060 C 
HETATM    5  C5  UNL     1      25.106   6.519  50.486  1.00  0.00     0.046 C 
HETATM    6  C6  UNL     1      23.917   6.508  51.403  1.00  0.00     0.251 C 
HETATM    7  C7  UNL     1      23.274   5.133  51.452  1.00  0.00    -0.024 C 
HETATM    8  C8  UNL     1      24.080   4.151  52.034  1.00  0.00     0.018 C 
HETATM    9  C9  UNL     1      24.628   3.033  51.151  1.00  0.00     0.175 C 
HETATM   10  O1  UNL     1      23.664   2.212  50.711  1.00  0.00    -0.377 OA
HETATM   11  C10 UNL     1      22.879   1.438  51.476  1.00  0.00     0.180 C 
HETATM   12  C11 UNL     1      21.861   0.722  50.541  1.00  0.00     0.065 C 
HETATM   13  C12 UNL     1      20.537   0.591  51.129  1.00  0.00    -0.017 C 
HETATM   14  C13 UNL     1      19.606   1.551  50.942  1.00  0.00    -0.003 C 
HETATM   15  C14 UNL     1      19.920   2.810  50.204  1.00  0.00     0.012 C 
HETATM   16  C15 UNL     1      21.171   2.895  49.757  1.00  0.00    -0.002 C 
HETATM   17  C16 UNL     1      22.044   4.100  49.723  1.00  0.00     0.041 C 
HETATM   18  C17 UNL     1      21.867   4.914  50.845  1.00  0.00     0.039 C 
HETATM   19  N2  UNL     1      22.986   4.206  48.562  1.00  0.00    -0.359 N 
HETATM   20  C18 UNL     1      21.771   1.586  49.264  1.00  0.00     0.163 C 
HETATM   21  H20 UNL     1      22.591   4.046  47.635  1.00  0.00     0.166 HD
ENDROOT
BRANCH   6  22
HETATM   22  N1  UNL     1      23.056   7.572  51.009  1.00  0.00     0.087 N 
HETATM   23  H9  UNL     1      22.051   7.430  51.228  1.00  0.00     0.313 HD
HETATM   24  H10 UNL     1      23.198   7.811  49.981  1.00  0.00     0.313 HD
ENDBRANCH   6  22
BRANCH  20  25
HETATM   25  O2  UNL     1      20.940   0.999  48.340  1.00  0.00    -0.390 OA
HETATM   26  H22 UNL     1      20.033   0.835  48.719  1.00  0.00     0.210 HD
ENDBRANCH  20  25
TORSDOF 2
ENDMDL
MODEL 9
REMARK VINA RESULT:      -6.8      8.121     10.704
REMARK  2 active torsions:
REMARK  status: ('A' for Active; 'I' for Inactive)
REMARK    1  A    between atoms: C6_6  and  N1_7 
REMARK    2  A    between atoms: C18_21  and  O2_22 
ROOT
HETATM    1  C1  UNL     1      22.382   6.272  48.225  1.00  0.00     0.048 C 
HETATM    2  C2  UNL     1      22.827   5.221  49.126  1.00  0.00    -0.029 C 
HETATM    3  C3  UNL     1      23.467   5.314  50.362  1.00  0.00     0.014 C 
HETATM    4  C4  UNL     1      24.854   5.927  50.269  1.00  0.00     0.060 C 
HETATM    5  C5  UNL     1      25.751   5.135  49.367  1.00  0.00     0.046 C 
HETATM    6  C6  UNL     1      25.898   3.675  49.688  1.00  0.00     0.251 C 
HETATM    7  C7  UNL     1      24.542   3.012  49.856  1.00  0.00    -0.024 C 
HETATM    8  C8  UNL     1      23.786   2.961  48.683  1.00  0.00     0.018 C 
HETATM    9  C9  UNL     1      22.518   3.808  48.590  1.00  0.00     0.175 C 
HETATM   10  O1  UNL     1      21.557   3.379  49.421  1.00  0.00    -0.377 OA
HETATM   11  C10 UNL     1      20.952   2.182  49.373  1.00  0.00     0.180 C 
HETATM   12  C11 UNL     1      19.966   2.099  50.576  1.00  0.00     0.065 C 
HETATM   13  C12 UNL     1      19.907   0.777  51.179  1.00  0.00    -0.017 C 
HETATM   14  C13 UNL     1      20.733   0.449  52.195  1.00  0.00    -0.003 C 
HETATM   15  C14 UNL     1      21.786   1.390  52.680  1.00  0.00     0.012 C 
HETATM   16  C15 UNL     1      21.831   2.554  52.035  1.00  0.00    -0.002 C 
HETATM   17  C16 UNL     1      23.040   3.331  51.648  1.00  0.00     0.041 C 
HETATM   18  C17 UNL     1      24.095   2.506  51.250  1.00  0.00     0.039 C 
HETATM   19  N2  UNL     1      22.910   4.824  51.686  1.00  0.00    -0.359 N 
HETATM   20  C18 UNL     1      20.479   3.116  51.620  1.00  0.00     0.163 C 
HETATM   21  H20 UNL     1      22.501   5.227  52.530  1.00  0.00     0.166 HD
ENDROOT
BRANCH   6  22
HETATM   22  N1  UNL     1      26.777   3.562  50.803  1.00  0.00     0.087 N 
HETATM   23  H9  UNL     1      26.313   3.565  51.731  1.00  0.00     0.313 HD
HETATM   24  H10 UNL     1      27.547   4.296  50.752  1.00  0.00     0.313 HD
ENDBRANCH   6  22
BRANCH  20  25
HETATM   25  O2  UNL     1      19.632   3.167  52.701  1.00  0.00    -0.390 OA
HETATM   26  H22 UNL     1      19.832   2.443  53.355  1.00  0.00     0.210 HD
ENDBRANCH  20  25
TORSDOF 2
ENDMDL
