MODEL 1
REMARK VINA RESULT:      -8.6      0.000      0.000
REMARK  4 active torsions:
REMARK  status: ('A' for Active; 'I' for Inactive)
REMARK    1  A    between atoms: C4_4  and  C5_5 
REMARK    2  A    between atoms: C5_5  and  N1_6 
REMARK    3  A    between atoms: N1_6  and  C6_7 
REMARK    4  A    between atoms: C11_13  and  N3_14 
REMARK       I    between atoms: N3_14  and  C12_15 
ROOT
HETATM    1  C6  UNL     1      23.541  -1.029  54.800  1.00  0.00     0.137 A 
HETATM    2  N2  UNL     1      22.572  -1.703  55.334  1.00  0.00    -0.242 NA
HETATM    3  C7  UNL     1      21.395  -1.388  54.574  1.00  0.00     0.127 A 
HETATM    4  C8  UNL     1      21.634  -0.547  53.597  1.00  0.00    -0.023 A 
HETATM    5  C9  UNL     1      20.927   0.154  52.514  1.00  0.00     0.070 A 
HETATM    6  C10 UNL     1      21.873   0.997  51.720  1.00  0.00     0.007 A 
HETATM    7  C11 UNL     1      23.155   1.241  51.818  1.00  0.00     0.032 A 
HETATM    8  C14 UNL     1      23.837   0.535  52.928  1.00  0.00     0.045 A 
HETATM    9  C15 UNL     1      23.044  -0.254  53.672  1.00  0.00     0.020 A 
ENDROOT
BRANCH   1  10
HETATM   10  N1  UNL     1      24.838  -1.149  55.336  1.00  0.00    -0.353 N 
HETATM   11  H4  UNL     1      24.945  -1.882  56.115  1.00  0.00     0.166 HD
BRANCH  10  12
HETATM   12  C5  UNL     1      26.083  -0.440  54.997  1.00  0.00     0.068 C 
BRANCH  12  13
HETATM   13  C4  UNL     1      27.029   0.321  54.496  1.00  0.00     0.043 A 
HETATM   14  C3  UNL     1      27.809  -0.165  53.100  1.00  0.00    -0.007 A 
HETATM   15  C2  UNL     1      28.501   1.268  53.511  1.00  0.00    -0.038 A 
HETATM   16  C16 UNL     1      28.216   0.685  53.345  1.00  0.00     0.077 A 
HETATM   17  C17 UNL     1      27.523  -0.755  52.931  1.00  0.00     0.023 A 
HETATM   18  C1  UNL     1      29.092   2.482  53.833  1.00  0.00    -0.043 C 
HETATM   19  C18 UNL     1      26.728  -1.840  52.707  1.00  0.00    -0.012 C 
ENDBRANCH  12  13
ENDBRANCH  10  12
ENDBRANCH   1  10
BRANCH   7  20
HETATM   20  N3  UNL     1      24.041   2.050  51.041  1.00  0.00    -0.328 N 
HETATM   21  C12 UNL     1      24.294   3.439  51.257  1.00  0.00     0.218 C 
HETATM   22  C13 UNL     1      25.262   4.103  50.367  1.00  0.00     0.117 C 
HETATM   23  O1  UNL     1      23.726   4.105  52.176  1.00  0.00    -0.274 OA
HETATM   24  H9  UNL     1      24.463   1.451  50.300  1.00  0.00     0.169 HD
ENDBRANCH   7  20
TORSDOF 4
ENDMDL
MODEL 2
REMARK VINA RESULT:      -8.5      2.578      5.612
REMARK  4 active torsions:
REMARK  status: ('A' for Active; 'I' for Inactive)
REMARK    1  A    between atoms: C4_4  and  C5_5 
REMARK    2  A    between atoms: C5_5  and  N1_6 
REMARK    3  A    between atoms: N1_6  and  C6_7 
REMARK    4  A    between atoms: C11_13  and  N3_14 
REMARK       I    between atoms: N3_14  and  C12_15 
ROOT
HETATM    1  C6  UNL     1      23.551   3.309  52.221  1.00  0.00     0.137 A 
HETATM    2  N2  UNL     1      22.271   3.177  52.066  1.00  0.00    -0.242 NA
HETATM    3  C7  UNL     1      21.949   1.843  52.491  1.00  0.00     0.127 A 
HETATM    4  C8  UNL     1      23.001   1.175  52.899  1.00  0.00    -0.023 A 
HETATM    5  C9  UNL     1      23.361  -0.152  53.422  1.00  0.00     0.070 A 
HETATM    6  C10 UNL     1      24.825  -0.231  53.710  1.00  0.00     0.007 A 
HETATM    7  C11 UNL     1      25.814   0.613  53.564  1.00  0.00     0.032 A 
HETATM    8  C14 UNL     1      25.425   1.936  53.019  1.00  0.00     0.045 A 
HETATM    9  C15 UNL     1      24.115   2.078  52.754  1.00  0.00     0.020 A 
ENDROOT
BRANCH   1  10
HETATM   10  N1  UNL     1      24.159   4.536  51.892  1.00  0.00    -0.353 N 
HETATM   11  H4  UNL     1      24.029   5.320  52.615  1.00  0.00     0.166 HD
BRANCH  10  12
HETATM   12  C5  UNL     1      24.958   4.923  50.717  1.00  0.00     0.068 C 
BRANCH  12  13
HETATM   13  C4  UNL     1      25.715   5.510  49.820  1.00  0.00     0.043 A 
HETATM   14  C3  UNL     1      26.892   4.616  49.039  1.00  0.00    -0.007 A 
HETATM   15  C2  UNL     1      27.011   6.132  48.416  1.00  0.00    -0.038 A 
HETATM   16  C16 UNL     1      26.960   5.515  48.670  1.00  0.00     0.077 A 
HETATM   17  C17 UNL     1      26.843   3.991  49.296  1.00  0.00     0.023 A 
HETATM   18  C1  UNL     1      27.122   7.403  47.868  1.00  0.00    -0.043 C 
HETATM   19  C18 UNL     1      26.482   2.794  49.841  1.00  0.00    -0.012 C 
ENDBRANCH  12  13
ENDBRANCH  10  12
ENDBRANCH   1  10
BRANCH   7  20
HETATM   20  N3  UNL     1      27.211   0.515  53.851  1.00  0.00    -0.328 N 
HETATM   21  C12 UNL     1      28.032  -0.622  53.581  1.00  0.00     0.218 C 
HETATM   22  C13 UNL     1      29.461  -0.530  53.924  1.00  0.00     0.117 C 
HETATM   23  O1  UNL     1      27.578  -1.687  53.060  1.00  0.00    -0.274 OA
HETATM   24  H9  UNL     1      27.518   1.411  54.285  1.00  0.00     0.169 HD
ENDBRANCH   7  20
TORSDOF 4
ENDMDL
MODEL 3
REMARK VINA RESULT:      -8.5      2.847      6.435
REMARK  4 active torsions:
REMARK  status: ('A' for Active; 'I' for Inactive)
REMARK    1  A    between atoms: C4_4  and  C5_5 
REMARK    2  A    between atoms: C5_5  and  N1_6 
REMARK    3  A    between atoms: N1_6  and  C6_7 
REMARK    4  A    between atoms: C11_13  and  N3_14 
REMARK       I    between atoms: N3_14  and  C12_15 
ROOT
HETATM    1  C6  UNL     1      26.626   2.187  51.848  1.00  0.00     0.137 A 
HETATM    2  N2  UNL     1      27.851   2.453  52.175  1.00  0.00    -0.242 NA
HETATM    3  C7  UNL     1      28.132   1.678  53.352  1.00  0.00     0.127 A 
HETATM    4  C8  UNL     1      27.109   0.953  53.735  1.00  0.00    -0.023 A 
HETATM    5  C9  UNL     1      26.733   0.002  54.793  1.00  0.00     0.070 A 
HETATM    6  C10 UNL     1      25.330  -0.477  54.604  1.00  0.00     0.007 A 
HETATM    7  C11 UNL     1      24.399  -0.201  53.727  1.00  0.00     0.032 A 
HETATM    8  C14 UNL     1      24.799   0.773  52.684  1.00  0.00     0.045 A 
HETATM    9  C15 UNL     1      26.058   1.231  52.787  1.00  0.00     0.020 A 
ENDROOT
BRANCH   1  10
HETATM   10  N1  UNL     1      26.071   2.804  50.710  1.00  0.00    -0.353 N 
HETATM   11  H4  UNL     1      25.043   2.561  50.514  1.00  0.00     0.166 HD
BRANCH  10  12
HETATM   12  C5  UNL     1      26.666   3.741  49.743  1.00  0.00     0.068 C 
BRANCH  12  13
HETATM   13  C4  UNL     1      27.370   4.644  49.101  1.00  0.00     0.043 A 
HETATM   14  C3  UNL     1      26.622   6.053  48.600  1.00  0.00    -0.007 A 
HETATM   15  C2  UNL     1      28.184   6.189  48.106  1.00  0.00    -0.038 A 
HETATM   16  C16 UNL     1      27.549   6.131  48.310  1.00  0.00     0.077 A 
HETATM   17  C17 UNL     1      25.979   5.996  48.805  1.00  0.00     0.023 A 
HETATM   18  C1  UNL     1      29.501   6.330  47.690  1.00  0.00    -0.043 C 
HETATM   19  C18 UNL     1      24.788   5.737  49.416  1.00  0.00    -0.012 C 
ENDBRANCH  12  13
ENDBRANCH  10  12
ENDBRANCH   1  10
BRANCH   7  20
HETATM   20  N3  UNL     1      23.061  -0.677  53.565  1.00  0.00    -0.328 N 
HETATM   21  C12 UNL     1      22.286  -1.324  54.575  1.00  0.00     0.218 C 
HETATM   22  C13 UNL     1      20.911  -1.724  54.230  1.00  0.00     0.117 C 
HETATM   23  O1  UNL     1      22.735  -1.557  55.739  1.00  0.00    -0.274 OA
HETATM   24  H9  UNL     1      22.757  -0.468  52.590  1.00  0.00     0.169 HD
ENDBRANCH   7  20
TORSDOF 4
ENDMDL
MODEL 4
REMARK VINA RESULT:      -8.4      1.981      4.703
REMARK  4 active torsions:
REMARK  status: ('A' for Active; 'I' for Inactive)
REMARK    1  A    between atoms: C4_4  and  C5_5 
REMARK    2  A    between atoms: C5_5  and  N1_6 
REMARK    3  A    between atoms: N1_6  and  C6_7 
REMARK    4  A    between atoms: C11_13  and  N3_14 
REMARK       I    between atoms: N3_14  and  C12_15 
ROOT
HETATM    1  C6  UNL     1      22.588   0.841  52.005  1.00  0.00     0.137 A 
HETATM    2  N2  UNL     1      21.327   0.902  52.295  1.00  0.00    -0.242 NA
HETATM    3  C7  UNL     1      21.174   0.254  53.568  1.00  0.00     0.127 A 
HETATM    4  C8  UNL     1      22.310  -0.190  54.049  1.00  0.00    -0.023 A 
HETATM    5  C9  UNL     1      22.836  -0.907  55.221  1.00  0.00     0.070 A 
HETATM    6  C10 UNL     1      24.317  -1.077  55.120  1.00  0.00     0.007 A 
HETATM    7  C11 UNL     1      25.198  -0.746  54.211  1.00  0.00     0.032 A 
HETATM    8  C14 UNL     1      24.638  -0.040  53.034  1.00  0.00     0.045 A 
HETATM    9  C15 UNL     1      23.310   0.159  53.070  1.00  0.00     0.020 A 
ENDROOT
BRANCH   1  10
HETATM   10  N1  UNL     1      23.044   1.414  50.801  1.00  0.00    -0.353 N 
HETATM   11  H4  UNL     1      22.649   0.970  49.906  1.00  0.00     0.166 HD
BRANCH  10  12
HETATM   12  C5  UNL     1      23.970   2.534  50.566  1.00  0.00     0.068 C 
BRANCH  12  13
HETATM   13  C4  UNL     1      24.705   3.509  50.083  1.00  0.00     0.043 A 
HETATM   14  C3  UNL     1      26.363   3.455  50.288  1.00  0.00    -0.007 A 
HETATM   15  C2  UNL     1      26.070   4.845  49.461  1.00  0.00    -0.038 A 
HETATM   16  C16 UNL     1      26.187   4.278  49.797  1.00  0.00     0.077 A 
HETATM   17  C17 UNL     1      26.483   2.882  50.628  1.00  0.00     0.023 A 
HETATM   18  C1  UNL     1      25.847   6.019  48.753  1.00  0.00    -0.043 C 
HETATM   19  C18 UNL     1      26.506   1.637  51.185  1.00  0.00    -0.012 C 
ENDBRANCH  12  13
ENDBRANCH  10  12
ENDBRANCH   1  10
BRANCH   7  20
HETATM   20  N3  UNL     1      26.616  -0.916  54.139  1.00  0.00    -0.328 N 
HETATM   21  C12 UNL     1      27.584   0.087  54.449  1.00  0.00     0.218 C 
HETATM   22  C13 UNL     1      29.006  -0.281  54.342  1.00  0.00     0.117 C 
HETATM   23  O1  UNL     1      27.264   1.260  54.811  1.00  0.00    -0.274 OA
HETATM   24  H9  UNL     1      26.812  -1.890  53.827  1.00  0.00     0.169 HD
ENDBRANCH   7  20
TORSDOF 4
ENDMDL
MODEL 5
REMARK VINA RESULT:      -8.0      3.235      6.843
REMARK  4 active torsions:
REMARK  status: ('A' for Active; 'I' for Inactive)
REMARK    1  A    between atoms: C4_4  and  C5_5 
REMARK    2  A    between atoms: C5_5  and  N1_6 
REMARK    3  A    between atoms: N1_6  and  C6_7 
REMARK    4  A    between atoms: C11_13  and  N3_14 
REMARK       I    between atoms: N3_14  and  C12_15 
ROOT
HETATM    1  C6  UNL     1      25.430   2.982  50.813  1.00  0.00     0.137 A 
HETATM    2  N2  UNL     1      24.234   3.480  50.863  1.00  0.00    -0.242 NA
HETATM    3  C7  UNL     1      23.483   2.636  51.749  1.00  0.00     0.127 A 
HETATM    4  C8  UNL     1      24.197   1.649  52.234  1.00  0.00    -0.023 A 
HETATM    5  C9  UNL     1      24.058   0.491  53.131  1.00  0.00     0.070 A 
HETATM    6  C10 UNL     1      25.354  -0.244  53.255  1.00  0.00     0.007 A 
HETATM    7  C11 UNL     1      26.535  -0.075  52.717  1.00  0.00     0.032 A 
HETATM    8  C14 UNL     1      26.641   1.088  51.805  1.00  0.00     0.045 A 
HETATM    9  C15 UNL     1      25.511   1.803  51.663  1.00  0.00     0.020 A 
ENDROOT
BRANCH   1  10
HETATM   10  N1  UNL     1      26.405   3.616  50.018  1.00  0.00    -0.353 N 
HETATM   11  H4  UNL     1      27.369   3.144  50.015  1.00  0.00     0.166 HD
BRANCH  10  12
HETATM   12  C5  UNL     1      26.317   4.820  49.175  1.00  0.00     0.068 C 
BRANCH  12  13
HETATM   13  C4  UNL     1      26.113   6.009  48.657  1.00  0.00     0.043 A 
HETATM   14  C3  UNL     1      27.414   6.864  48.048  1.00  0.00    -0.007 A 
HETATM   15  C2  UNL     1      26.107   7.832  47.813  1.00  0.00    -0.038 A 
HETATM   16  C16 UNL     1      26.637   7.435  47.909  1.00  0.00     0.077 A 
HETATM   17  C17 UNL     1      27.952   6.464  48.144  1.00  0.00     0.023 A 
HETATM   18  C1  UNL     1      25.015   8.662  47.595  1.00  0.00    -0.043 C 
HETATM   19  C18 UNL     1      28.859   5.459  48.309  1.00  0.00    -0.012 C 
ENDBRANCH  12  13
ENDBRANCH  10  12
ENDBRANCH   1  10
BRANCH   7  20
HETATM   20  N3  UNL     1      27.764  -0.792  52.855  1.00  0.00    -0.328 N 
HETATM   21  C12 UNL     1      28.761  -0.537  53.845  1.00  0.00     0.218 C 
HETATM   22  C13 UNL     1      29.956  -1.398  53.849  1.00  0.00     0.117 C 
HETATM   23  O1  UNL     1      28.651   0.387  54.708  1.00  0.00    -0.274 OA
HETATM   24  H9  UNL     1      27.799  -1.524  52.115  1.00  0.00     0.169 HD
ENDBRANCH   7  20
TORSDOF 4
ENDMDL
MODEL 6
REMARK VINA RESULT:      -7.8      2.288      4.519
REMARK  4 active torsions:
REMARK  status: ('A' for Active; 'I' for Inactive)
REMARK    1  A    between atoms: C4_4  and  C5_5 
REMARK    2  A    between atoms: C5_5  and  N1_6 
REMARK    3  A    between atoms: N1_6  and  C6_7 
REMARK    4  A    between atoms: C11_13  and  N3_14 
REMARK       I    between atoms: N3_14  and  C12_15 
ROOT
HETATM    1  C6  UNL     1      25.307   3.188  51.022  1.00  0.00     0.137 A 
HETATM    2  N2  UNL     1      25.736   4.080  50.187  1.00  0.00    -0.242 NA
HETATM    3  C7  UNL     1      24.737   4.187  49.161  1.00  0.00     0.127 A 
HETATM    4  C8  UNL     1      23.719   3.385  49.362  1.00  0.00    -0.023 A 
HETATM    5  C9  UNL     1      22.441   3.007  48.739  1.00  0.00     0.070 A 
HETATM    6  C10 UNL     1      21.732   1.979  49.561  1.00  0.00     0.007 A 
HETATM    7  C11 UNL     1      22.033   1.356  50.672  1.00  0.00     0.032 A 
HETATM    8  C14 UNL     1      23.334   1.744  51.268  1.00  0.00     0.045 A 
HETATM    9  C15 UNL     1      24.015   2.679  50.584  1.00  0.00     0.020 A 
ENDROOT
BRANCH   1  10
HETATM   10  N1  UNL     1      26.086   2.875  52.154  1.00  0.00    -0.353 N 
HETATM   11  H4  UNL     1      26.128   3.642  52.905  1.00  0.00     0.166 HD
BRANCH  10  12
HETATM   12  C5  UNL     1      26.847   1.660  52.485  1.00  0.00     0.068 C 
BRANCH  12  13
HETATM   13  C4  UNL     1      27.722   0.763  52.878  1.00  0.00     0.043 A 
HETATM   14  C3  UNL     1      27.177  -0.721  53.420  1.00  0.00    -0.007 A 
HETATM   15  C2  UNL     1      28.815  -0.788  53.538  1.00  0.00    -0.038 A 
HETATM   16  C16 UNL     1      28.148  -0.759  53.488  1.00  0.00     0.077 A 
HETATM   17  C17 UNL     1      26.503  -0.693  53.371  1.00  0.00     0.023 A 
HETATM   18  C1  UNL     1      30.198  -0.871  53.635  1.00  0.00    -0.043 C 
HETATM   19  C18 UNL     1      25.192  -0.472  53.065  1.00  0.00    -0.012 C 
ENDBRANCH  12  13
ENDBRANCH  10  12
ENDBRANCH   1  10
BRANCH   7  20
HETATM   20  N3  UNL     1      21.334   0.376  51.444  1.00  0.00    -0.328 N 
HETATM   21  C12 UNL     1      20.489   0.655  52.560  1.00  0.00     0.218 C 
HETATM   22  C13 UNL     1      19.829  -0.486  53.218  1.00  0.00     0.117 C 
HETATM   23  O1  UNL     1      20.288   1.831  52.992  1.00  0.00    -0.274 OA
HETATM   24  H9  UNL     1      21.549  -0.563  51.048  1.00  0.00     0.169 HD
ENDBRANCH   7  20
TORSDOF 4
ENDMDL
MODEL 7
REMARK VINA RESULT:      -7.8      2.264      5.995
REMARK  4 active torsions:
REMARK  status: ('A' for Active; 'I' for Inactive)
REMARK    1  A    between atoms: C4_4  and  C5_5 
REMARK    2  A    between atoms: C5_5  and  N1_6 
REMARK    3  A    between atoms: N1_6  and  C6_7 
REMARK    4  A    between atoms: C11_13  and  N3_14 
REMARK       I    between atoms: N3_14  and  C12_15 
ROOT
HETATM    1  C6  UNL     1      22.751   2.554  50.494  1.00  0.00     0.137 A 
HETATM    2  N2  UNL     1      22.369   3.428  49.617  1.00  0.00    -0.242 NA
HETATM    3  C7  UNL     1      23.563   4.066  49.136  1.00  0.00     0.127 A 
HETATM    4  C8  UNL     1      24.649   3.595  49.699  1.00  0.00    -0.023 A 
HETATM    5  C9  UNL     1      26.107   3.791  49.676  1.00  0.00     0.070 A 
HETATM    6  C10 UNL     1      26.785   2.847  50.616  1.00  0.00     0.007 A 
HETATM    7  C11 UNL     1      26.344   1.933  51.442  1.00  0.00     0.032 A 
HETATM    8  C14 UNL     1      24.871   1.769  51.456  1.00  0.00     0.045 A 
HETATM    9  C15 UNL     1      24.202   2.579  50.619  1.00  0.00     0.020 A 
ENDROOT
BRANCH   1  10
HETATM   10  N1  UNL     1      21.783   1.757  51.136  1.00  0.00    -0.353 N 
HETATM   11  H4  UNL     1      20.771   1.925  50.820  1.00  0.00     0.166 HD
BRANCH  10  12
HETATM   12  C5  UNL     1      21.932   0.716  52.167  1.00  0.00     0.068 C 
BRANCH  12  13
HETATM   13  C4  UNL     1      22.156   0.008  53.250  1.00  0.00     0.043 A 
HETATM   14  C3  UNL     1      20.865  -0.704  54.037  1.00  0.00    -0.007 A 
HETATM   15  C2  UNL     1      22.193  -1.119  54.912  1.00  0.00    -0.038 A 
HETATM   16  C16 UNL     1      21.654  -0.950  54.553  1.00  0.00     0.077 A 
HETATM   17  C17 UNL     1      20.319  -0.533  53.675  1.00  0.00     0.023 A 
HETATM   18  C1  UNL     1      23.302  -1.491  55.660  1.00  0.00    -0.043 C 
HETATM   19  C18 UNL     1      19.388  -0.189  52.739  1.00  0.00    -0.012 C 
ENDBRANCH  12  13
ENDBRANCH  10  12
ENDBRANCH   1  10
BRANCH   7  20
HETATM   20  N3  UNL     1      27.016   1.037  52.330  1.00  0.00    -0.328 N 
HETATM   21  C12 UNL     1      27.442   1.353  53.656  1.00  0.00     0.218 C 
HETATM   22  C13 UNL     1      28.098   0.288  54.435  1.00  0.00     0.117 C 
HETATM   23  O1  UNL     1      27.273   2.498  54.176  1.00  0.00    -0.274 OA
HETATM   24  H9  UNL     1      27.135   0.123  51.843  1.00  0.00     0.169 HD
ENDBRANCH   7  20
TORSDOF 4
ENDMDL
MODEL 8
REMARK VINA RESULT:      -7.5      2.457      3.886
REMARK  4 active torsions:
REMARK  status: ('A' for Active; 'I' for Inactive)
REMARK    1  A    between atoms: C4_4  and  C5_5 
REMARK    2  A    between atoms: C5_5  and  N1_6 
REMARK    3  A    between atoms: N1_6  and  C6_7 
REMARK    4  A    between atoms: C11_13  and  N3_14 
REMARK       I    between atoms: N3_14  and  C12_15 
ROOT
HETATM    1  C6  UNL     1      24.203   2.768  52.517  1.00  0.00     0.137 A 
HETATM    2  N2  UNL     1      23.149   2.035  52.693  1.00  0.00    -0.242 NA
HETATM    3  C7  UNL     1      22.359   2.172  51.502  1.00  0.00     0.127 A 
HETATM    4  C8  UNL     1      22.912   2.964  50.616  1.00  0.00    -0.023 A 
HETATM    5  C9  UNL     1      22.655   3.511  49.275  1.00  0.00     0.070 A 
HETATM    6  C10 UNL     1      23.780   4.391  48.834  1.00  0.00     0.007 A 
HETATM    7  C11 UNL     1      24.894   4.775  49.404  1.00  0.00     0.032 A 
HETATM    8  C14 UNL     1      25.119   4.222  50.761  1.00  0.00     0.045 A 
HETATM    9  C15 UNL     1      24.149   3.407  51.210  1.00  0.00     0.020 A 
ENDROOT
BRANCH   1  10
HETATM   10  N1  UNL     1      25.179   2.821  53.531  1.00  0.00    -0.353 N 
HETATM   11  H4  UNL     1      25.002   3.553  54.297  1.00  0.00     0.166 HD
BRANCH  10  12
HETATM   12  C5  UNL     1      26.405   2.028  53.721  1.00  0.00     0.068 C 
BRANCH  12  13
HETATM   13  C4  UNL     1      27.402   1.175  53.662  1.00  0.00     0.043 A 
HETATM   14  C3  UNL     1      27.079  -0.461  53.769  1.00  0.00    -0.007 A 
HETATM   15  C2  UNL     1      28.710  -0.348  53.605  1.00  0.00    -0.038 A 
HETATM   16  C16 UNL     1      28.045  -0.391  53.670  1.00  0.00     0.077 A 
HETATM   17  C17 UNL     1      26.406  -0.507  53.835  1.00  0.00     0.023 A 
HETATM   18  C1  UNL     1      30.089  -0.277  53.457  1.00  0.00    -0.043 C 
HETATM   19  C18 UNL     1      25.049  -0.374  53.823  1.00  0.00    -0.012 C 
ENDBRANCH  12  13
ENDBRANCH  10  12
ENDBRANCH   1  10
BRANCH   7  20
HETATM   20  N3  UNL     1      25.960   5.617  48.959  1.00  0.00    -0.328 N 
HETATM   21  C12 UNL     1      27.293   5.185  48.683  1.00  0.00     0.218 C 
HETATM   22  C13 UNL     1      28.253   6.195  48.207  1.00  0.00     0.117 C 
HETATM   23  O1  UNL     1      27.667   3.982  48.827  1.00  0.00    -0.274 OA
HETATM   24  H9  UNL     1      25.593   6.588  48.872  1.00  0.00     0.169 HD
ENDBRANCH   7  20
TORSDOF 4
ENDMDL
MODEL 9
REMARK VINA RESULT:      -7.3      2.717      6.946
REMARK  4 active torsions:
REMARK  status: ('A' for Active; 'I' for Inactive)
REMARK    1  A    between atoms: C4_4  and  C5_5 
REMARK    2  A    between atoms: C5_5  and  N1_6 
REMARK    3  A    between atoms: N1_6  and  C6_7 
REMARK    4  A    between atoms: C11_13  and  N3_14 
REMARK       I    between atoms: N3_14  and  C12_15 
ROOT
HETATM    1  C6  UNL     1      22.888   1.093  52.917  1.00  0.00     0.137 A 
HETATM    2  N2  UNL     1      22.269   2.066  52.328  1.00  0.00    -0.242 NA
HETATM    3  C7  UNL     1      23.255   2.757  51.545  1.00  0.00     0.127 A 
HETATM    4  C8  UNL     1      24.448   2.221  51.648  1.00  0.00    -0.023 A 
HETATM    5  C9  UNL     1      25.819   2.418  51.154  1.00  0.00     0.070 A 
HETATM    6  C10 UNL     1      26.735   1.367  51.694  1.00  0.00     0.007 A 
HETATM    7  C11 UNL     1      26.561   0.361  52.512  1.00  0.00     0.032 A 
HETATM    8  C14 UNL     1      25.174   0.196  53.007  1.00  0.00     0.045 A 
HETATM    9  C15 UNL     1      24.295   1.102  52.545  1.00  0.00     0.020 A 
ENDROOT
BRANCH   1  10
HETATM   10  N1  UNL     1      22.161   0.224  53.755  1.00  0.00    -0.353 N 
HETATM   11  H4  UNL     1      22.666  -0.069  54.657  1.00  0.00     0.166 HD
BRANCH  10  12
HETATM   12  C5  UNL     1      20.811  -0.343  53.604  1.00  0.00     0.068 C 
BRANCH  12  13
HETATM   13  C4  UNL     1      19.732  -1.090  53.565  1.00  0.00     0.043 A 
HETATM   14  C3  UNL     1      18.449  -0.617  52.603  1.00  0.00    -0.007 A 
HETATM   15  C2  UNL     1      17.970  -2.021  53.310  1.00  0.00    -0.038 A 
HETATM   16  C16 UNL     1      18.168  -1.450  53.022  1.00  0.00     0.077 A 
HETATM   17  C17 UNL     1      18.648  -0.038  52.312  1.00  0.00     0.023 A 
HETATM   18  C1  UNL     1      17.548  -3.211  53.887  1.00  0.00    -0.043 C 
HETATM   19  C18 UNL     1      19.294   1.020  51.743  1.00  0.00    -0.012 C 
ENDBRANCH  12  13
ENDBRANCH  10  12
ENDBRANCH   1  10
BRANCH   7  20
HETATM   20  N3  UNL     1      27.456  -0.637  53.011  1.00  0.00    -0.328 N 
HETATM   21  C12 UNL     1      27.485  -2.002  52.595  1.00  0.00     0.218 C 
HETATM   22  C13 UNL     1      28.497  -2.881  53.205  1.00  0.00     0.117 C 
HETATM   23  O1  UNL     1      26.685  -2.472  51.729  1.00  0.00    -0.274 OA
HETATM   24  H9  UNL     1      28.074  -0.193  53.722  1.00  0.00     0.169 HD
ENDBRANCH   7  20
TORSDOF 4
ENDMDL
