MODEL 1
REMARK VINA RESULT:      -8.5      0.000      0.000
REMARK  4 active torsions:
REMARK  status: ('A' for Active; 'I' for Inactive)
REMARK    1  A    between atoms: C4_5  and  N1_6 
REMARK    2  A    between atoms: N1_6  and  C5_7 
REMARK    3  A    between atoms: C5_7  and  S1_8 
REMARK    4  A    between atoms: C14_20  and  C15_21 
ROOT
HETATM    1  F1  UNL     1      24.949  -0.244  54.525  1.00  0.00    -0.206 F 
HETATM    2  C1  UNL     1      25.375   0.590  53.519  1.00  0.00     0.124 A 
HETATM    3  C2  UNL     1      24.607   1.649  53.099  1.00  0.00     0.060 A 
HETATM    4  C3  UNL     1      24.980   2.503  52.112  1.00  0.00     0.041 A 
HETATM    5  C4  UNL     1      24.211   3.563  51.693  1.00  0.00     0.138 A 
HETATM    6  N2  UNL     1      24.707   4.322  50.708  1.00  0.00    -0.224 NA
HETATM    7  C11 UNL     1      25.893   4.093  50.132  1.00  0.00     0.235 A 
HETATM    8  N3  UNL     1      26.672   3.047  50.532  1.00  0.00    -0.241 NA
HETATM    9  C12 UNL     1      26.199   2.257  51.529  1.00  0.00     0.072 A 
HETATM   10  C13 UNL     1      26.982   1.201  51.937  1.00  0.00     0.043 A 
HETATM   11  C14 UNL     1      26.618   0.326  52.936  1.00  0.00    -0.011 A 
ENDROOT
BRANCH   5  12
HETATM   12  N1  UNL     1      22.945   3.826  52.263  1.00  0.00    -0.365 N 
HETATM   13  H2  UNL     1      22.852   4.164  53.244  1.00  0.00     0.162 HD
BRANCH  12  14
HETATM   14  C5  UNL     1      21.619   3.713  51.703  1.00  0.00     0.194 C 
BRANCH  14  15
HETATM   15  S1  UNL     1      20.763   2.193  52.111  1.00  0.00    -0.153 SA
HETATM   16  C6  UNL     1      19.285   1.859  51.447  1.00  0.00     0.040 A 
HETATM   17  C7  UNL     1      18.707   0.590  51.867  1.00  0.00     0.008 A 
HETATM   18  C8  UNL     1      19.248  -0.280  52.703  1.00  0.00     0.024 A 
HETATM   19  C9  UNL     1      20.540  -0.122  53.361  1.00  0.00     0.039 A 
HETATM   20 CL1  UNL     1      21.089  -1.407  54.449  1.00  0.00    -0.084 Cl
HETATM   21  C10 UNL     1      21.360   0.925  53.216  1.00  0.00     0.064 A 
ENDBRANCH  14  15
ENDBRANCH  12  14
ENDBRANCH   5  12
BRANCH  11  22
HETATM   22  C15 UNL     1      27.392  -0.814  53.421  1.00  0.00     0.047 C 
HETATM   23  C16 UNL     1      28.904  -0.647  53.237  1.00  0.00     0.038 C 
HETATM   24  C17 UNL     1      29.309  -2.103  53.436  1.00  0.00     0.168 C 
HETATM   25  O1  UNL     1      28.302  -2.897  52.949  1.00  0.00    -0.390 OA
HETATM   26  C18 UNL     1      27.193  -2.098  52.691  1.00  0.00     0.177 C 
ENDBRANCH  11  22
TORSDOF 4
ENDMDL
MODEL 2
REMARK VINA RESULT:      -8.5      3.167      4.618
REMARK  4 active torsions:
REMARK  status: ('A' for Active; 'I' for Inactive)
REMARK    1  A    between atoms: C4_5  and  N1_6 
REMARK    2  A    between atoms: N1_6  and  C5_7 
REMARK    3  A    between atoms: C5_7  and  S1_8 
REMARK    4  A    between atoms: C14_20  and  C15_21 
ROOT
HETATM    1  F1  UNL     1      25.345   2.517  52.625  1.00  0.00    -0.206 F 
HETATM    2  C1  UNL     1      24.499   1.500  52.997  1.00  0.00     0.124 A 
HETATM    3  C2  UNL     1      23.136   1.667  52.986  1.00  0.00     0.060 A 
HETATM    4  C3  UNL     1      22.256   0.697  53.342  1.00  0.00     0.041 A 
HETATM    5  C4  UNL     1      20.892   0.865  53.331  1.00  0.00     0.138 A 
HETATM    6  N2  UNL     1      20.147  -0.180  53.708  1.00  0.00    -0.224 NA
HETATM    7  C11 UNL     1      20.668  -1.354  54.087  1.00  0.00     0.235 A 
HETATM    8  N3  UNL     1      22.018  -1.543  54.107  1.00  0.00    -0.241 NA
HETATM    9  C12 UNL     1      22.803  -0.502  53.730  1.00  0.00     0.072 A 
HETATM   10  C13 UNL     1      24.168  -0.688  53.747  1.00  0.00     0.043 A 
HETATM   11  C14 UNL     1      25.072   0.286  53.389  1.00  0.00    -0.011 A 
ENDROOT
BRANCH   5  12
HETATM   12  N1  UNL     1      20.304   2.094  52.955  1.00  0.00    -0.365 N 
HETATM   13  H2  UNL     1      20.276   2.905  53.607  1.00  0.00     0.162 HD
BRANCH  12  14
HETATM   14  C5  UNL     1      19.671   2.495  51.720  1.00  0.00     0.194 C 
BRANCH  14  15
HETATM   15  S1  UNL     1      20.773   2.585  50.310  1.00  0.00    -0.153 SA
HETATM   16  C6  UNL     1      20.873   1.324  49.243  1.00  0.00     0.040 A 
HETATM   17  C7  UNL     1      21.808   1.535  48.146  1.00  0.00     0.008 A 
HETATM   18  C8  UNL     1      22.551   2.610  47.944  1.00  0.00     0.024 A 
HETATM   19  C9  UNL     1      22.566   3.793  48.796  1.00  0.00     0.039 A 
HETATM   20 CL1  UNL     1      23.636   5.133  48.350  1.00  0.00    -0.084 Cl
HETATM   21  C10 UNL     1      21.833   3.961  49.903  1.00  0.00     0.064 A 
ENDBRANCH  14  15
ENDBRANCH  12  14
ENDBRANCH   5  12
BRANCH  11  22
HETATM   22  C15 UNL     1      26.528   0.163  53.382  1.00  0.00     0.047 C 
HETATM   23  C16 UNL     1      27.026  -1.162  52.798  1.00  0.00     0.038 C 
HETATM   24  C17 UNL     1      28.455  -1.110  53.328  1.00  0.00     0.168 C 
HETATM   25  O1  UNL     1      28.438  -0.471  54.540  1.00  0.00    -0.390 OA
HETATM   26  C18 UNL     1      27.185   0.108  54.719  1.00  0.00     0.177 C 
ENDBRANCH  11  22
TORSDOF 4
ENDMDL
MODEL 3
REMARK VINA RESULT:      -8.4      3.273      5.014
REMARK  4 active torsions:
REMARK  status: ('A' for Active; 'I' for Inactive)
REMARK    1  A    between atoms: C4_5  and  N1_6 
REMARK    2  A    between atoms: N1_6  and  C5_7 
REMARK    3  A    between atoms: C5_7  and  S1_8 
REMARK    4  A    between atoms: C14_20  and  C15_21 
ROOT
HETATM    1  F1  UNL     1      26.542   1.631  51.255  1.00  0.00    -0.206 F 
HETATM    2  C1  UNL     1      25.615   1.011  52.058  1.00  0.00     0.124 A 
HETATM    3  C2  UNL     1      24.292   1.379  52.032  1.00  0.00     0.060 A 
HETATM    4  C3  UNL     1      23.336   0.801  52.803  1.00  0.00     0.041 A 
HETATM    5  C4  UNL     1      22.012   1.170  52.777  1.00  0.00     0.138 A 
HETATM    6  N2  UNL     1      21.181   0.511  53.593  1.00  0.00    -0.224 NA
HETATM    7  C11 UNL     1      21.581  -0.468  54.413  1.00  0.00     0.235 A 
HETATM    8  N3  UNL     1      22.889  -0.850  54.456  1.00  0.00    -0.241 NA
HETATM    9  C12 UNL     1      23.759  -0.202  53.640  1.00  0.00     0.072 A 
HETATM   10  C13 UNL     1      25.082  -0.585  53.679  1.00  0.00     0.043 A 
HETATM   11  C14 UNL     1      26.063  -0.008  52.904  1.00  0.00    -0.011 A 
ENDROOT
BRANCH   5  12
HETATM   12  N1  UNL     1      21.553   2.212  51.939  1.00  0.00    -0.365 N 
HETATM   13  H2  UNL     1      21.594   2.131  50.902  1.00  0.00     0.162 HD
BRANCH  12  14
HETATM   14  C5  UNL     1      20.979   3.496  52.264  1.00  0.00     0.194 C 
BRANCH  14  15
HETATM   15  S1  UNL     1      21.922   4.905  51.686  1.00  0.00    -0.153 SA
HETATM   16  C6  UNL     1      23.541   5.021  52.010  1.00  0.00     0.040 A 
HETATM   17  C7  UNL     1      24.179   6.217  51.480  1.00  0.00     0.008 A 
HETATM   18  C8  UNL     1      23.591   7.178  50.787  1.00  0.00     0.024 A 
HETATM   19  C9  UNL     1      22.179   7.211  50.426  1.00  0.00     0.039 A 
HETATM   20 CL1  UNL     1      21.585   8.593  49.491  1.00  0.00    -0.084 Cl
HETATM   21  C10 UNL     1      21.276   6.276  50.744  1.00  0.00     0.064 A 
ENDBRANCH  14  15
ENDBRANCH  12  14
ENDBRANCH   5  12
BRANCH  11  22
HETATM   22  C15 UNL     1      27.481  -0.358  52.891  1.00  0.00     0.047 C 
HETATM   23  C16 UNL     1      27.737  -1.868  52.886  1.00  0.00     0.038 C 
HETATM   24  C17 UNL     1      29.206  -1.842  53.289  1.00  0.00     0.168 C 
HETATM   25  O1  UNL     1      29.399  -0.776  54.131  1.00  0.00    -0.390 OA
HETATM   26  C18 UNL     1      28.260   0.022  54.104  1.00  0.00     0.177 C 
ENDBRANCH  11  22
TORSDOF 4
ENDMDL
MODEL 4
REMARK VINA RESULT:      -7.9      3.477      5.013
REMARK  4 active torsions:
REMARK  status: ('A' for Active; 'I' for Inactive)
REMARK    1  A    between atoms: C4_5  and  N1_6 
REMARK    2  A    between atoms: N1_6  and  C5_7 
REMARK    3  A    between atoms: C5_7  and  S1_8 
REMARK    4  A    between atoms: C14_20  and  C15_21 
ROOT
HETATM    1  F1  UNL     1      22.803   2.570  49.946  1.00  0.00    -0.206 F 
HETATM    2  C1  UNL     1      23.705   2.118  50.879  1.00  0.00     0.124 A 
HETATM    3  C2  UNL     1      23.364   1.144  51.786  1.00  0.00     0.060 A 
HETATM    4  C3  UNL     1      24.215   0.662  52.727  1.00  0.00     0.041 A 
HETATM    5  C4  UNL     1      23.872  -0.313  53.635  1.00  0.00     0.138 A 
HETATM    6  N2  UNL     1      24.815  -0.691  54.505  1.00  0.00    -0.224 NA
HETATM    7  C11 UNL     1      26.048  -0.170  54.525  1.00  0.00     0.235 A 
HETATM    8  N3  UNL     1      26.409   0.798  53.634  1.00  0.00    -0.241 NA
HETATM    9  C12 UNL     1      25.476   1.205  52.737  1.00  0.00     0.072 A 
HETATM   10  C13 UNL     1      25.836   2.182  51.835  1.00  0.00     0.043 A 
HETATM   11  C14 UNL     1      24.985   2.681  50.875  1.00  0.00    -0.011 A 
ENDROOT
BRANCH   5  12
HETATM   12  N1  UNL     1      22.575  -0.875  53.658  1.00  0.00    -0.365 N 
HETATM   13  H2  UNL     1      22.361  -1.766  53.165  1.00  0.00     0.162 HD
BRANCH  12  14
HETATM   14  C5  UNL     1      21.363  -0.416  54.295  1.00  0.00     0.194 C 
BRANCH  14  15
HETATM   15  S1  UNL     1      19.931  -0.356  53.222  1.00  0.00    -0.153 SA
HETATM   16  C6  UNL     1      18.604  -1.292  53.540  1.00  0.00     0.040 A 
HETATM   17  C7  UNL     1      17.516  -1.141  52.584  1.00  0.00     0.008 A 
HETATM   18  C8  UNL     1      17.504  -0.346  51.527  1.00  0.00     0.024 A 
HETATM   19  C9  UNL     1      18.595   0.533  51.125  1.00  0.00     0.039 A 
HETATM   20 CL1  UNL     1      18.381   1.522  49.671  1.00  0.00    -0.084 Cl
HETATM   21  C10 UNL     1      19.763   0.661  51.765  1.00  0.00     0.064 A 
ENDBRANCH  14  15
ENDBRANCH  12  14
ENDBRANCH   5  12
BRANCH  11  22
HETATM   22  C15 UNL     1      25.294   3.713  49.888  1.00  0.00     0.047 C 
HETATM   23  C16 UNL     1      26.775   3.767  49.506  1.00  0.00     0.038 C 
HETATM   24  C17 UNL     1      26.781   5.142  48.848  1.00  0.00     0.168 C 
HETATM   25  O1  UNL     1      25.864   5.930  49.496  1.00  0.00    -0.390 OA
HETATM   26  C18 UNL     1      25.100   5.123  50.335  1.00  0.00     0.177 C 
ENDBRANCH  11  22
TORSDOF 4
ENDMDL
MODEL 5
REMARK VINA RESULT:      -7.8      2.952      4.040
REMARK  4 active torsions:
REMARK  status: ('A' for Active; 'I' for Inactive)
REMARK    1  A    between atoms: C4_5  and  N1_6 
REMARK    2  A    between atoms: N1_6  and  C5_7 
REMARK    3  A    between atoms: C5_7  and  S1_8 
REMARK    4  A    between atoms: C14_20  and  C15_21 
ROOT
HETATM    1  F1  UNL     1      26.389   1.723  51.164  1.00  0.00    -0.206 F 
HETATM    2  C1  UNL     1      25.633   1.022  52.074  1.00  0.00     0.124 A 
HETATM    3  C2  UNL     1      24.270   1.181  52.140  1.00  0.00     0.060 A 
HETATM    4  C3  UNL     1      23.478   0.514  53.017  1.00  0.00     0.041 A 
HETATM    5  C4  UNL     1      22.114   0.673  53.082  1.00  0.00     0.138 A 
HETATM    6  N2  UNL     1      21.460  -0.050  53.999  1.00  0.00    -0.224 NA
HETATM    7  C11 UNL     1      22.070  -0.901  54.833  1.00  0.00     0.235 A 
HETATM    8  N3  UNL     1      23.422  -1.074  54.787  1.00  0.00    -0.241 NA
HETATM    9  C12 UNL     1      24.115  -0.355  53.868  1.00  0.00     0.072 A 
HETATM   10  C13 UNL     1      25.481  -0.527  53.817  1.00  0.00     0.043 A 
HETATM   11  C14 UNL     1      26.298   0.142  52.933  1.00  0.00    -0.011 A 
ENDROOT
BRANCH   5  12
HETATM   12  N1  UNL     1      21.435   1.575  52.231  1.00  0.00    -0.365 N 
HETATM   13  H2  UNL     1      21.293   2.571  52.498  1.00  0.00     0.162 HD
BRANCH  12  14
HETATM   14  C5  UNL     1      20.840   1.373  50.931  1.00  0.00     0.194 C 
BRANCH  14  15
HETATM   15  S1  UNL     1      19.102   0.942  50.962  1.00  0.00    -0.153 SA
HETATM   16  C6  UNL     1      18.567  -0.319  51.891  1.00  0.00     0.040 A 
HETATM   17  C7  UNL     1      17.132  -0.555  51.820  1.00  0.00     0.008 A 
HETATM   18  C8  UNL     1      16.259   0.131  51.102  1.00  0.00     0.024 A 
HETATM   19  C9  UNL     1      16.582   1.263  50.242  1.00  0.00     0.039 A 
HETATM   20 CL1  UNL     1      15.262   2.050  49.361  1.00  0.00    -0.084 Cl
HETATM   21  C10 UNL     1      17.807   1.769  50.054  1.00  0.00     0.064 A 
ENDBRANCH  14  15
ENDBRANCH  12  14
ENDBRANCH   5  12
BRANCH  11  22
HETATM   22  C15 UNL     1      27.749   0.013  52.820  1.00  0.00     0.047 C 
HETATM   23  C16 UNL     1      28.281  -1.337  53.308  1.00  0.00     0.038 C 
HETATM   24  C17 UNL     1      29.752  -0.957  53.438  1.00  0.00     0.168 C 
HETATM   25  O1  UNL     1      29.821   0.361  53.807  1.00  0.00    -0.390 OA
HETATM   26  C18 UNL     1      28.555   0.924  53.682  1.00  0.00     0.177 C 
ENDBRANCH  11  22
TORSDOF 4
ENDMDL
MODEL 6
REMARK VINA RESULT:      -7.7      3.241      4.095
REMARK  4 active torsions:
REMARK  status: ('A' for Active; 'I' for Inactive)
REMARK    1  A    between atoms: C4_5  and  N1_6 
REMARK    2  A    between atoms: N1_6  and  C5_7 
REMARK    3  A    between atoms: C5_7  and  S1_8 
REMARK    4  A    between atoms: C14_20  and  C15_21 
ROOT
HETATM    1  F1  UNL     1      24.523  -0.631  53.787  1.00  0.00    -0.206 F 
HETATM    2  C1  UNL     1      25.093   0.310  52.963  1.00  0.00     0.124 A 
HETATM    3  C2  UNL     1      24.362   1.366  52.476  1.00  0.00     0.060 A 
HETATM    4  C3  UNL     1      24.875   2.322  51.660  1.00  0.00     0.041 A 
HETATM    5  C4  UNL     1      24.142   3.379  51.172  1.00  0.00     0.138 A 
HETATM    6  N2  UNL     1      24.781   4.246  50.378  1.00  0.00    -0.224 NA
HETATM    7  C11 UNL     1      26.072   4.125  50.048  1.00  0.00     0.235 A 
HETATM    8  N3  UNL     1      26.817   3.085  50.519  1.00  0.00    -0.241 NA
HETATM    9  C12 UNL     1      26.201   2.187  51.329  1.00  0.00     0.072 A 
HETATM   10  C13 UNL     1      26.949   1.135  51.808  1.00  0.00     0.043 A 
HETATM   11  C14 UNL     1      26.444   0.157  52.636  1.00  0.00    -0.011 A 
ENDROOT
BRANCH   5  12
HETATM   12  N1  UNL     1      22.772   3.531  51.482  1.00  0.00    -0.365 N 
HETATM   13  H2  UNL     1      22.083   2.777  51.281  1.00  0.00     0.162 HD
BRANCH  12  14
HETATM   14  C5  UNL     1      22.061   4.634  52.086  1.00  0.00     0.194 C 
BRANCH  14  15
HETATM   15  S1  UNL     1      21.196   5.690  50.928  1.00  0.00    -0.153 SA
HETATM   16  C6  UNL     1      19.887   5.121  50.090  1.00  0.00     0.040 A 
HETATM   17  C7  UNL     1      19.283   6.088  49.185  1.00  0.00     0.008 A 
HETATM   18  C8  UNL     1      19.681   7.333  48.987  1.00  0.00     0.024 A 
HETATM   19  C9  UNL     1      20.812   7.970  49.652  1.00  0.00     0.039 A 
HETATM   20 CL1  UNL     1      21.182   9.654  49.248  1.00  0.00    -0.084 Cl
HETATM   21  C10 UNL     1      21.609   7.386  50.554  1.00  0.00     0.064 A 
ENDBRANCH  14  15
ENDBRANCH  12  14
ENDBRANCH   5  12
BRANCH  11  22
HETATM   22  C15 UNL     1      27.173  -0.985  53.182  1.00  0.00     0.047 C 
HETATM   23  C16 UNL     1      28.693  -0.799  53.173  1.00  0.00     0.038 C 
HETATM   24  C17 UNL     1      29.092  -2.255  53.386  1.00  0.00     0.168 C 
HETATM   25  O1  UNL     1      28.156  -3.048  52.773  1.00  0.00    -0.390 OA
HETATM   26  C18 UNL     1      27.073  -2.255  52.407  1.00  0.00     0.177 C 
ENDBRANCH  11  22
TORSDOF 4
ENDMDL
MODEL 7
REMARK VINA RESULT:      -7.6      3.257      4.266
REMARK  4 active torsions:
REMARK  status: ('A' for Active; 'I' for Inactive)
REMARK    1  A    between atoms: C4_5  and  N1_6 
REMARK    2  A    between atoms: N1_6  and  C5_7 
REMARK    3  A    between atoms: C5_7  and  S1_8 
REMARK    4  A    between atoms: C14_20  and  C15_21 
ROOT
HETATM    1  F1  UNL     1      24.619  -1.031  52.973  1.00  0.00    -0.206 F 
HETATM    2  C1  UNL     1      24.348   0.315  52.900  1.00  0.00     0.124 A 
HETATM    3  C2  UNL     1      23.080   0.773  52.640  1.00  0.00     0.060 A 
HETATM    4  C3  UNL     1      22.758   2.089  52.558  1.00  0.00     0.041 A 
HETATM    5  C4  UNL     1      21.488   2.546  52.297  1.00  0.00     0.138 A 
HETATM    6  N2  UNL     1      21.318   3.873  52.246  1.00  0.00    -0.224 NA
HETATM    7  C11 UNL     1      22.313   4.748  52.434  1.00  0.00     0.235 A 
HETATM    8  N3  UNL     1      23.581   4.316  52.693  1.00  0.00    -0.241 NA
HETATM    9  C12 UNL     1      23.788   2.976  52.753  1.00  0.00     0.072 A 
HETATM   10  C13 UNL     1      25.066   2.535  53.015  1.00  0.00     0.043 A 
HETATM   11  C14 UNL     1      25.408   1.205  53.101  1.00  0.00    -0.011 A 
ENDROOT
BRANCH   5  12
HETATM   12  N1  UNL     1      20.414   1.654  52.075  1.00  0.00    -0.365 N 
HETATM   13  H2  UNL     1      19.872   1.251  52.866  1.00  0.00     0.162 HD
BRANCH  12  14
HETATM   14  C5  UNL     1      19.859   1.139  50.845  1.00  0.00     0.194 C 
BRANCH  14  15
HETATM   15  S1  UNL     1      20.512   1.891  49.357  1.00  0.00    -0.153 SA
HETATM   16  C6  UNL     1      22.040   1.529  48.835  1.00  0.00     0.040 A 
HETATM   17  C7  UNL     1      22.438   2.213  47.613  1.00  0.00     0.008 A 
HETATM   18  C8  UNL     1      21.705   3.065  46.916  1.00  0.00     0.024 A 
HETATM   19  C9  UNL     1      20.347   3.476  47.252  1.00  0.00     0.039 A 
HETATM   20 CL1  UNL     1      19.534   4.632  46.184  1.00  0.00    -0.084 Cl
HETATM   21  C10 UNL     1      19.650   3.053  48.312  1.00  0.00     0.064 A 
ENDBRANCH  14  15
ENDBRANCH  12  14
ENDBRANCH   5  12
BRANCH  11  22
HETATM   22  C15 UNL     1      26.737   0.662  53.374  1.00  0.00     0.047 C 
HETATM   23  C16 UNL     1      26.953   0.290  54.844  1.00  0.00     0.038 C 
HETATM   24  C17 UNL     1      28.474   0.188  54.821  1.00  0.00     0.168 C 
HETATM   25  O1  UNL     1      28.950   1.105  53.919  1.00  0.00    -0.390 OA
HETATM   26  C18 UNL     1      27.878   1.603  53.186  1.00  0.00     0.177 C 
ENDBRANCH  11  22
TORSDOF 4
ENDMDL
MODEL 8
REMARK VINA RESULT:      -7.6      4.687      7.099
REMARK  4 active torsions:
REMARK  status: ('A' for Active; 'I' for Inactive)
REMARK    1  A    between atoms: C4_5  and  N1_6 
REMARK    2  A    between atoms: N1_6  and  C5_7 
REMARK    3  A    between atoms: C5_7  and  S1_8 
REMARK    4  A    between atoms: C14_20  and  C15_21 
ROOT
HETATM    1  F1  UNL     1      29.308   4.550  47.875  1.00  0.00    -0.206 F 
HETATM    2  C1  UNL     1      28.255   5.280  48.372  1.00  0.00     0.124 A 
HETATM    3  C2  UNL     1      27.194   4.667  48.992  1.00  0.00     0.060 A 
HETATM    4  C3  UNL     1      26.129   5.339  49.500  1.00  0.00     0.041 A 
HETATM    5  C4  UNL     1      25.068   4.725  50.121  1.00  0.00     0.138 A 
HETATM    6  N2  UNL     1      24.087   5.515  50.574  1.00  0.00    -0.224 NA
HETATM    7  C11 UNL     1      24.103   6.848  50.447  1.00  0.00     0.235 A 
HETATM    8  N3  UNL     1      25.145   7.478  49.835  1.00  0.00    -0.241 NA
HETATM    9  C12 UNL     1      26.156   6.706  49.364  1.00  0.00     0.072 A 
HETATM   10  C13 UNL     1      27.212   7.337  48.745  1.00  0.00     0.043 A 
HETATM   11  C14 UNL     1      28.298   6.670  48.224  1.00  0.00    -0.011 A 
ENDROOT
BRANCH   5  12
HETATM   12  N1  UNL     1      25.006   3.319  50.258  1.00  0.00    -0.365 N 
HETATM   13  H2  UNL     1      25.804   2.712  49.979  1.00  0.00     0.162 HD
BRANCH  12  14
HETATM   14  C5  UNL     1      23.953   2.469  50.760  1.00  0.00     0.194 C 
BRANCH  14  15
HETATM   15  S1  UNL     1      24.482   1.257  51.968  1.00  0.00    -0.153 SA
HETATM   16  C6  UNL     1      26.068   0.792  52.051  1.00  0.00     0.040 A 
HETATM   17  C7  UNL     1      26.353  -0.198  53.079  1.00  0.00     0.008 A 
HETATM   18  C8  UNL     1      25.482  -0.732  53.918  1.00  0.00     0.024 A 
HETATM   19  C9  UNL     1      24.058  -0.420  53.963  1.00  0.00     0.039 A 
HETATM   20 CL1  UNL     1      23.056  -1.247  55.167  1.00  0.00    -0.084 Cl
HETATM   21  C10 UNL     1      23.430   0.450  53.163  1.00  0.00     0.064 A 
ENDBRANCH  14  15
ENDBRANCH  12  14
ENDBRANCH   5  12
BRANCH  11  22
HETATM   22  C15 UNL     1      29.451   7.268  47.556  1.00  0.00     0.047 C 
HETATM   23  C16 UNL     1      30.610   7.583  48.505  1.00  0.00     0.038 C 
HETATM   24  C17 UNL     1      31.388   8.527  47.594  1.00  0.00     0.168 C 
HETATM   25  O1  UNL     1      30.487   9.212  46.820  1.00  0.00    -0.390 OA
HETATM   26  C18 UNL     1      29.235   8.622  46.969  1.00  0.00     0.177 C 
ENDBRANCH  11  22
TORSDOF 4
ENDMDL
MODEL 9
REMARK VINA RESULT:      -7.2      3.281      4.404
REMARK  4 active torsions:
REMARK  status: ('A' for Active; 'I' for Inactive)
REMARK    1  A    between atoms: C4_5  and  N1_6 
REMARK    2  A    between atoms: N1_6  and  C5_7 
REMARK    3  A    between atoms: C5_7  and  S1_8 
REMARK    4  A    between atoms: C14_20  and  C15_21 
ROOT
HETATM    1  F1  UNL     1      26.939   2.195  51.823  1.00  0.00    -0.206 F 
HETATM    2  C1  UNL     1      25.919   1.420  52.320  1.00  0.00     0.124 A 
HETATM    3  C2  UNL     1      24.613   1.844  52.270  1.00  0.00     0.060 A 
HETATM    4  C3  UNL     1      23.569   1.118  52.745  1.00  0.00     0.041 A 
HETATM    5  C4  UNL     1      22.263   1.543  52.695  1.00  0.00     0.138 A 
HETATM    6  N2  UNL     1      21.336   0.721  53.203  1.00  0.00    -0.224 NA
HETATM    7  C11 UNL     1      21.628  -0.468  53.743  1.00  0.00     0.235 A 
HETATM    8  N3  UNL     1      22.916  -0.909  53.804  1.00  0.00    -0.241 NA
HETATM    9  C12 UNL     1      23.881  -0.100  53.298  1.00  0.00     0.072 A 
HETATM   10  C13 UNL     1      25.185  -0.541  53.356  1.00  0.00     0.043 A 
HETATM   11  C14 UNL     1      26.254   0.183  52.879  1.00  0.00    -0.011 A 
ENDROOT
BRANCH   5  12
HETATM   12  N1  UNL     1      21.917   2.800  52.149  1.00  0.00    -0.365 N 
HETATM   13  H2  UNL     1      22.617   3.386  51.649  1.00  0.00     0.162 HD
BRANCH  12  14
HETATM   14  C5  UNL     1      20.658   3.507  52.142  1.00  0.00     0.194 C 
BRANCH  14  15
HETATM   15  S1  UNL     1      19.983   3.815  50.512  1.00  0.00    -0.153 SA
HETATM   16  C6  UNL     1      19.571   2.554  49.522  1.00  0.00     0.040 A 
HETATM   17  C7  UNL     1      19.035   2.953  48.228  1.00  0.00     0.008 A 
HETATM   18  C8  UNL     1      18.858   4.191  47.800  1.00  0.00     0.024 A 
HETATM   19  C9  UNL     1      19.172   5.396  48.558  1.00  0.00     0.039 A 
HETATM   20 CL1  UNL     1      18.860   6.967  47.802  1.00  0.00    -0.084 Cl
HETATM   21  C10 UNL     1      19.685   5.422  49.794  1.00  0.00     0.064 A 
ENDBRANCH  14  15
ENDBRANCH  12  14
ENDBRANCH   5  12
BRANCH  11  22
HETATM   22  C15 UNL     1      27.659  -0.218  52.905  1.00  0.00     0.047 C 
HETATM   23  C16 UNL     1      27.860  -1.735  52.941  1.00  0.00     0.038 C 
HETATM   24  C17 UNL     1      29.321  -1.751  53.377  1.00  0.00     0.168 C 
HETATM   25  O1  UNL     1      29.533  -0.673  54.197  1.00  0.00    -0.390 OA
HETATM   26  C18 UNL     1      28.424   0.164  54.127  1.00  0.00     0.177 C 
ENDBRANCH  11  22
TORSDOF 4
ENDMDL
