MODEL 1
REMARK VINA RESULT:      -7.2      0.000      0.000
REMARK  9 active torsions:
REMARK  status: ('A' for Active; 'I' for Inactive)
REMARK    1  A    between atoms: C2_2  and  O1_3 
REMARK    2  A    between atoms: O1_3  and  C3_4 
REMARK    3  A    between atoms: C3_4  and  C4_5 
REMARK    4  A    between atoms: C4_5  and  O2_6 
REMARK    5  A    between atoms: C4_5  and  C7_10 
REMARK    6  A    between atoms: O2_6  and  C5_7 
REMARK    7  A    between atoms: C5_7  and  N1_8 
REMARK    8  A    between atoms: C9_14  and  N4_15 
REMARK    9  A    between atoms: N4_15  and  C10_16 
ROOT
HETATM    1  C7  UNL     1      25.139   0.252  53.062  1.00  0.00     0.109 A 
HETATM    2  N2  UNL     1      23.973  -0.094  53.668  1.00  0.00    -0.240 NA
HETATM    3  C8  UNL     1      22.787   0.350  53.221  1.00  0.00     0.235 A 
HETATM    4  N3  UNL     1      22.769   1.153  52.147  1.00  0.00    -0.221 NA
HETATM    5  C9  UNL     1      23.847   1.561  51.468  1.00  0.00     0.170 A 
HETATM    6  C16 UNL     1      25.036   1.079  51.967  1.00  0.00     0.189 A 
HETATM    7  F1  UNL     1      26.213   1.405  51.385  1.00  0.00    -0.200 F 
ENDROOT
BRANCH   1   8
HETATM    8  C4  UNL     1      26.412  -0.249  53.576  1.00  0.00     0.202 C 
BRANCH   8   9
HETATM    9  C3  UNL     1      26.815   0.283  54.921  1.00  0.00     0.206 C 
BRANCH   9  10
HETATM   10  O1  UNL     1      28.161   0.572  54.916  1.00  0.00    -0.389 OA
BRANCH  10  11
HETATM   11  C2  UNL     1      28.615   1.065  53.701  1.00  0.00     0.163 C 
HETATM   12  C1  UNL     1      28.711   2.551  53.652  1.00  0.00     0.033 C 
ENDBRANCH  10  11
ENDBRANCH   9  10
ENDBRANCH   8   9
BRANCH   8  13
HETATM   13  O2  UNL     1      26.537  -1.616  53.620  1.00  0.00    -0.349 OA
BRANCH  13  14
HETATM   14  C5  UNL     1      27.130  -2.240  52.569  1.00  0.00     0.437 C 
BRANCH  14  15
HETATM   15  N1  UNL     1      28.188  -3.124  53.041  1.00  0.00     0.102 N 
HETATM   16  C6  UNL     1      29.399  -2.390  53.335  1.00  0.00     0.309 C 
HETATM   17  H11 UNL     1      27.874  -3.538  53.963  1.00  0.00     0.318 HD
ENDBRANCH  14  15
ENDBRANCH  13  14
ENDBRANCH   8  13
ENDBRANCH   1   8
BRANCH   5  18
HETATM   18  N4  UNL     1      23.881   2.405  50.333  1.00  0.00    -0.338 N 
HETATM   19  H16 UNL     1      23.430   2.056  49.452  1.00  0.00     0.167 HD
BRANCH  18  20
HETATM   20  C10 UNL     1      24.454   3.691  50.216  1.00  0.00     0.035 A 
HETATM   21  C11 UNL     1      23.905   4.806  50.842  1.00  0.00     0.029 A 
HETATM   22  C12 UNL     1      24.445   6.061  50.742  1.00  0.00     0.004 A 
HETATM   23  C13 UNL     1      25.579   6.296  50.004  1.00  0.00     0.024 A 
HETATM   24  C14 UNL     1      26.162   5.234  49.366  1.00  0.00     0.036 A 
HETATM   25 CL1  UNL     1      27.598   5.528  48.432  1.00  0.00    -0.084 Cl
HETATM   26  C15 UNL     1      25.587   3.994  49.494  1.00  0.00     0.053 A 
ENDBRANCH  18  20
ENDBRANCH   5  18
TORSDOF 9
ENDMDL
MODEL 2
REMARK VINA RESULT:      -7.0      4.199      5.337
REMARK  9 active torsions:
REMARK  status: ('A' for Active; 'I' for Inactive)
REMARK    1  A    between atoms: C2_2  and  O1_3 
REMARK    2  A    between atoms: O1_3  and  C3_4 
REMARK    3  A    between atoms: C3_4  and  C4_5 
REMARK    4  A    between atoms: C4_5  and  O2_6 
REMARK    5  A    between atoms: C4_5  and  C7_10 
REMARK    6  A    between atoms: O2_6  and  C5_7 
REMARK    7  A    between atoms: C5_7  and  N1_8 
REMARK    8  A    between atoms: C9_14  and  N4_15 
REMARK    9  A    between atoms: N4_15  and  C10_16 
ROOT
HETATM    1  C7  UNL     1      24.555  -0.476  53.773  1.00  0.00     0.109 A 
HETATM    2  N2  UNL     1      24.255  -1.169  54.903  1.00  0.00    -0.240 NA
HETATM    3  C8  UNL     1      23.012  -1.185  55.412  1.00  0.00     0.235 A 
HETATM    4  N3  UNL     1      22.053  -0.495  54.777  1.00  0.00    -0.221 NA
HETATM    5  C9  UNL     1      22.225   0.222  53.661  1.00  0.00     0.170 A 
HETATM    6  C16 UNL     1      23.515   0.206  53.181  1.00  0.00     0.189 A 
HETATM    7  F1  UNL     1      23.844   0.885  52.059  1.00  0.00    -0.200 F 
ENDROOT
BRANCH   1   8
HETATM    8  C4  UNL     1      25.918  -0.480  53.246  1.00  0.00     0.202 C 
BRANCH   8   9
HETATM    9  C3  UNL     1      26.732   0.741  53.566  1.00  0.00     0.206 C 
BRANCH   9  10
HETATM   10  O1  UNL     1      27.635   0.443  54.562  1.00  0.00    -0.389 OA
BRANCH  10  11
HETATM   11  C2  UNL     1      28.818   1.160  54.466  1.00  0.00     0.163 C 
HETATM   12  C1  UNL     1      28.707   2.401  53.648  1.00  0.00     0.033 C 
ENDBRANCH  10  11
ENDBRANCH   9  10
ENDBRANCH   8   9
BRANCH   8  13
HETATM   13  O2  UNL     1      26.677  -1.577  53.574  1.00  0.00    -0.349 OA
BRANCH  13  14
HETATM   14  C5  UNL     1      27.178  -2.333  52.563  1.00  0.00     0.437 C 
BRANCH  14  15
HETATM   15  N1  UNL     1      28.317  -3.111  53.034  1.00  0.00     0.102 N 
HETATM   16  C6  UNL     1      29.454  -2.263  53.320  1.00  0.00     0.309 C 
HETATM   17  H11 UNL     1      28.048  -3.548  53.959  1.00  0.00     0.318 HD
ENDBRANCH  14  15
ENDBRANCH  13  14
ENDBRANCH   8  13
ENDBRANCH   1   8
BRANCH   5  18
HETATM   18  N4  UNL     1      21.249   0.964  52.956  1.00  0.00    -0.338 N 
HETATM   19  H16 UNL     1      21.420   1.990  52.822  1.00  0.00     0.167 HD
BRANCH  18  20
HETATM   20  C10 UNL     1      20.040   0.503  52.391  1.00  0.00     0.035 A 
HETATM   21  C11 UNL     1      19.552   0.992  51.183  1.00  0.00     0.029 A 
HETATM   22  C12 UNL     1      18.382   0.559  50.617  1.00  0.00     0.004 A 
HETATM   23  C13 UNL     1      17.608  -0.402  51.221  1.00  0.00     0.024 A 
HETATM   24  C14 UNL     1      18.040  -0.919  52.412  1.00  0.00     0.036 A 
HETATM   25 CL1  UNL     1      17.063  -2.135  53.178  1.00  0.00    -0.084 Cl
HETATM   26  C15 UNL     1      19.218  -0.456  52.943  1.00  0.00     0.053 A 
ENDBRANCH  18  20
ENDBRANCH   5  18
TORSDOF 9
ENDMDL
MODEL 3
REMARK VINA RESULT:      -6.9      2.280      2.863
REMARK  9 active torsions:
REMARK  status: ('A' for Active; 'I' for Inactive)
REMARK    1  A    between atoms: C2_2  and  O1_3 
REMARK    2  A    between atoms: O1_3  and  C3_4 
REMARK    3  A    between atoms: C3_4  and  C4_5 
REMARK    4  A    between atoms: C4_5  and  O2_6 
REMARK    5  A    between atoms: C4_5  and  C7_10 
REMARK    6  A    between atoms: O2_6  and  C5_7 
REMARK    7  A    between atoms: C5_7  and  N1_8 
REMARK    8  A    between atoms: C9_14  and  N4_15 
REMARK    9  A    between atoms: N4_15  and  C10_16 
ROOT
HETATM    1  C7  UNL     1      24.477  -0.283  53.829  1.00  0.00     0.109 A 
HETATM    2  N2  UNL     1      23.771  -1.073  54.681  1.00  0.00    -0.240 NA
HETATM    3  C8  UNL     1      22.434  -0.986  54.780  1.00  0.00     0.235 A 
HETATM    4  N3  UNL     1      21.793  -0.092  54.012  1.00  0.00    -0.221 NA
HETATM    5  C9  UNL     1      22.376   0.736  53.139  1.00  0.00     0.170 A 
HETATM    6  C16 UNL     1      23.745   0.607  53.076  1.00  0.00     0.189 A 
HETATM    7  F1  UNL     1      24.475   1.379  52.237  1.00  0.00    -0.200 F 
ENDROOT
BRANCH   1   8
HETATM    8  C4  UNL     1      25.930  -0.404  53.747  1.00  0.00     0.202 C 
BRANCH   8   9
HETATM    9  C3  UNL     1      26.697   0.356  54.791  1.00  0.00     0.206 C 
BRANCH   9  10
HETATM   10  O1  UNL     1      26.809   1.674  54.409  1.00  0.00    -0.389 OA
BRANCH  10  11
HETATM   11  C2  UNL     1      27.890   1.917  53.574  1.00  0.00     0.163 C 
HETATM   12  C1  UNL     1      29.195   1.456  54.128  1.00  0.00     0.033 C 
ENDBRANCH  10  11
ENDBRANCH   9  10
ENDBRANCH   8   9
BRANCH   8  13
HETATM   13  O2  UNL     1      26.419  -1.688  53.731  1.00  0.00    -0.349 OA
BRANCH  13  14
HETATM   14  C5  UNL     1      27.084  -2.106  52.623  1.00  0.00     0.437 C 
BRANCH  14  15
HETATM   15  N1  UNL     1      28.176  -2.995  52.998  1.00  0.00     0.102 N 
HETATM   16  C6  UNL     1      29.376  -2.253  53.319  1.00  0.00     0.309 C 
HETATM   17  H11 UNL     1      27.897  -3.488  53.892  1.00  0.00     0.318 HD
ENDBRANCH  14  15
ENDBRANCH  13  14
ENDBRANCH   8  13
ENDBRANCH   1   8
BRANCH   5  18
HETATM   18  N4  UNL     1      21.747   1.693  52.308  1.00  0.00    -0.338 N 
HETATM   19  H16 UNL     1      21.105   2.386  52.764  1.00  0.00     0.167 HD
BRANCH  18  20
HETATM   20  C10 UNL     1      21.865   1.850  50.910  1.00  0.00     0.035 A 
HETATM   21  C11 UNL     1      21.462   0.862  50.017  1.00  0.00     0.029 A 
HETATM   22  C12 UNL     1      21.568   0.994  48.657  1.00  0.00     0.004 A 
HETATM   23  C13 UNL     1      22.089   2.130  48.087  1.00  0.00     0.024 A 
HETATM   24  C14 UNL     1      22.502   3.135  48.918  1.00  0.00     0.036 A 
HETATM   25 CL1  UNL     1      23.161   4.574  48.200  1.00  0.00    -0.084 Cl
HETATM   26  C15 UNL     1      22.377   2.960  50.274  1.00  0.00     0.053 A 
ENDBRANCH  18  20
ENDBRANCH   5  18
TORSDOF 9
ENDMDL
MODEL 4
REMARK VINA RESULT:      -6.8      1.996      3.049
REMARK  9 active torsions:
REMARK  status: ('A' for Active; 'I' for Inactive)
REMARK    1  A    between atoms: C2_2  and  O1_3 
REMARK    2  A    between atoms: O1_3  and  C3_4 
REMARK    3  A    between atoms: C3_4  and  C4_5 
REMARK    4  A    between atoms: C4_5  and  O2_6 
REMARK    5  A    between atoms: C4_5  and  C7_10 
REMARK    6  A    between atoms: O2_6  and  C5_7 
REMARK    7  A    between atoms: C5_7  and  N1_8 
REMARK    8  A    between atoms: C9_14  and  N4_15 
REMARK    9  A    between atoms: N4_15  and  C10_16 
ROOT
HETATM    1  C7  UNL     1      25.470   1.717  52.652  1.00  0.00     0.109 A 
HETATM    2  N2  UNL     1      24.534   2.437  53.326  1.00  0.00    -0.240 NA
HETATM    3  C8  UNL     1      23.962   3.528  52.790  1.00  0.00     0.235 A 
HETATM    4  N3  UNL     1      24.334   3.903  51.557  1.00  0.00    -0.221 NA
HETATM    5  C9  UNL     1      25.240   3.278  50.798  1.00  0.00     0.170 A 
HETATM    6  C16 UNL     1      25.796   2.168  51.393  1.00  0.00     0.189 A 
HETATM    7  F1  UNL     1      26.729   1.432  50.747  1.00  0.00    -0.200 F 
ENDROOT
BRANCH   1   8
HETATM    8  C4  UNL     1      26.072   0.536  53.265  1.00  0.00     0.202 C 
BRANCH   8   9
HETATM    9  C3  UNL     1      26.480   0.696  54.702  1.00  0.00     0.206 C 
BRANCH   9  10
HETATM   10  O1  UNL     1      27.510  -0.172  54.986  1.00  0.00    -0.389 OA
BRANCH  10  11
HETATM   11  C2  UNL     1      28.752   0.294  54.581  1.00  0.00     0.163 C 
HETATM   12  C1  UNL     1      29.555  -0.708  53.824  1.00  0.00     0.033 C 
ENDBRANCH  10  11
ENDBRANCH   9  10
ENDBRANCH   8   9
BRANCH   8  13
HETATM   13  O2  UNL     1      25.336  -0.620  53.174  1.00  0.00    -0.349 OA
BRANCH  13  14
HETATM   14  C5  UNL     1      24.265  -0.764  53.997  1.00  0.00     0.437 C 
BRANCH  14  15
HETATM   15  N1  UNL     1      23.027  -0.628  53.240  1.00  0.00     0.102 N 
HETATM   16  C6  UNL     1      21.979  -0.033  54.042  1.00  0.00     0.309 C 
HETATM   17  H11 UNL     1      23.205   0.056  52.452  1.00  0.00     0.318 HD
ENDBRANCH  14  15
ENDBRANCH  13  14
ENDBRANCH   8  13
ENDBRANCH   1   8
BRANCH   5  18
HETATM   18  N4  UNL     1      25.665   3.633  49.496  1.00  0.00    -0.338 N 
HETATM   19  H16 UNL     1      25.378   3.010  48.703  1.00  0.00     0.167 HD
BRANCH  18  20
HETATM   20  C10 UNL     1      26.445   4.743  49.104  1.00  0.00     0.035 A 
HETATM   21  C11 UNL     1      25.940   6.039  49.098  1.00  0.00     0.029 A 
HETATM   22  C12 UNL     1      26.680   7.130  48.721  1.00  0.00     0.004 A 
HETATM   23  C13 UNL     1      27.987   7.003  48.319  1.00  0.00     0.024 A 
HETATM   24  C14 UNL     1      28.536   5.750  48.305  1.00  0.00     0.036 A 
HETATM   25 CL1  UNL     1      30.190   5.586  47.797  1.00  0.00    -0.084 Cl
HETATM   26  C15 UNL     1      27.759   4.686  48.690  1.00  0.00     0.053 A 
ENDBRANCH  18  20
ENDBRANCH   5  18
TORSDOF 9
ENDMDL
MODEL 5
REMARK VINA RESULT:      -6.8      1.989      3.094
REMARK  9 active torsions:
REMARK  status: ('A' for Active; 'I' for Inactive)
REMARK    1  A    between atoms: C2_2  and  O1_3 
REMARK    2  A    between atoms: O1_3  and  C3_4 
REMARK    3  A    between atoms: C3_4  and  C4_5 
REMARK    4  A    between atoms: C4_5  and  O2_6 
REMARK    5  A    between atoms: C4_5  and  C7_10 
REMARK    6  A    between atoms: O2_6  and  C5_7 
REMARK    7  A    between atoms: C5_7  and  N1_8 
REMARK    8  A    between atoms: C9_14  and  N4_15 
REMARK    9  A    between atoms: N4_15  and  C10_16 
ROOT
HETATM    1  C7  UNL     1      25.706   2.136  52.536  1.00  0.00     0.109 A 
HETATM    2  N2  UNL     1      24.720   2.705  53.279  1.00  0.00    -0.240 NA
HETATM    3  C8  UNL     1      23.954   3.696  52.795  1.00  0.00     0.235 A 
HETATM    4  N3  UNL     1      24.179   4.124  51.543  1.00  0.00    -0.221 NA
HETATM    5  C9  UNL     1      25.115   3.643  50.718  1.00  0.00     0.170 A 
HETATM    6  C16 UNL     1      25.872   2.631  51.262  1.00  0.00     0.189 A 
HETATM    7  F1  UNL     1      26.860   2.044  50.547  1.00  0.00    -0.200 F 
ENDROOT
BRANCH   1   8
HETATM    8  C4  UNL     1      26.520   1.059  53.095  1.00  0.00     0.202 C 
BRANCH   8   9
HETATM    9  C3  UNL     1      26.129  -0.327  52.670  1.00  0.00     0.206 C 
BRANCH   9  10
HETATM   10  O1  UNL     1      26.057  -1.143  53.776  1.00  0.00    -0.389 OA
BRANCH  10  11
HETATM   11  C2  UNL     1      25.123  -0.722  54.711  1.00  0.00     0.163 C 
HETATM   12  C1  UNL     1      23.710  -0.856  54.254  1.00  0.00     0.033 C 
ENDBRANCH  10  11
ENDBRANCH   9  10
ENDBRANCH   8   9
BRANCH   8  13
HETATM   13  O2  UNL     1      27.875   1.181  52.904  1.00  0.00    -0.349 OA
BRANCH  13  14
HETATM   14  C5  UNL     1      28.664   1.336  53.999  1.00  0.00     0.437 C 
BRANCH  14  15
HETATM   15  N1  UNL     1      28.914   0.045  54.626  1.00  0.00     0.102 N 
HETATM   16  C6  UNL     1      29.713  -0.811  53.776  1.00  0.00     0.309 C 
HETATM   17  H11 UNL     1      29.501   0.214  55.490  1.00  0.00     0.318 HD
ENDBRANCH  14  15
ENDBRANCH  13  14
ENDBRANCH   8  13
ENDBRANCH   1   8
BRANCH   5  18
HETATM   18  N4  UNL     1      25.391   4.059  49.394  1.00  0.00    -0.338 N 
HETATM   19  H16 UNL     1      24.841   3.614  48.619  1.00  0.00     0.167 HD
BRANCH  18  20
HETATM   20  C10 UNL     1      26.331   5.017  48.957  1.00  0.00     0.035 A 
HETATM   21  C11 UNL     1      25.993   6.353  48.765  1.00  0.00     0.029 A 
HETATM   22  C12 UNL     1      26.890   7.299  48.342  1.00  0.00     0.004 A 
HETATM   23  C13 UNL     1      28.198   6.976  48.076  1.00  0.00     0.024 A 
HETATM   24  C14 UNL     1      28.587   5.676  48.247  1.00  0.00     0.036 A 
HETATM   25 CL1  UNL     1      30.242   5.265  47.913  1.00  0.00    -0.084 Cl
HETATM   26  C15 UNL     1      27.655   4.761  48.673  1.00  0.00     0.053 A 
ENDBRANCH  18  20
ENDBRANCH   5  18
TORSDOF 9
ENDMDL
MODEL 6
REMARK VINA RESULT:      -6.7      1.940      2.696
REMARK  9 active torsions:
REMARK  status: ('A' for Active; 'I' for Inactive)
REMARK    1  A    between atoms: C2_2  and  O1_3 
REMARK    2  A    between atoms: O1_3  and  C3_4 
REMARK    3  A    between atoms: C3_4  and  C4_5 
REMARK    4  A    between atoms: C4_5  and  O2_6 
REMARK    5  A    between atoms: C4_5  and  C7_10 
REMARK    6  A    between atoms: O2_6  and  C5_7 
REMARK    7  A    between atoms: C5_7  and  N1_8 
REMARK    8  A    between atoms: C9_14  and  N4_15 
REMARK    9  A    between atoms: N4_15  and  C10_16 
ROOT
HETATM    1  C7  UNL     1      25.584   2.390  52.532  1.00  0.00     0.109 A 
HETATM    2  N2  UNL     1      24.526   2.913  53.206  1.00  0.00    -0.240 NA
HETATM    3  C8  UNL     1      23.730   3.845  52.657  1.00  0.00     0.235 A 
HETATM    4  N3  UNL     1      23.998   4.260  51.410  1.00  0.00    -0.221 NA
HETATM    5  C9  UNL     1      25.006   3.821  50.649  1.00  0.00     0.170 A 
HETATM    6  C16 UNL     1      25.791   2.867  51.257  1.00  0.00     0.189 A 
HETATM    7  F1  UNL     1      26.850   2.328  50.611  1.00  0.00    -0.200 F 
ENDROOT
BRANCH   1   8
HETATM    8  C4  UNL     1      26.429   1.377  53.159  1.00  0.00     0.202 C 
BRANCH   8   9
HETATM    9  C3  UNL     1      27.676   1.899  53.813  1.00  0.00     0.206 C 
BRANCH   9  10
HETATM   10  O1  UNL     1      28.774   1.257  53.285  1.00  0.00    -0.389 OA
BRANCH  10  11
HETATM   11  C2  UNL     1      29.392   0.395  54.178  1.00  0.00     0.163 C 
HETATM   12  C1  UNL     1      30.056  -0.771  53.530  1.00  0.00     0.033 C 
ENDBRANCH  10  11
ENDBRANCH   9  10
ENDBRANCH   8   9
BRANCH   8  13
HETATM   13  O2  UNL     1      25.801   0.559  54.067  1.00  0.00    -0.349 OA
BRANCH  13  14
HETATM   14  C5  UNL     1      25.397  -0.669  53.649  1.00  0.00     0.437 C 
BRANCH  14  15
HETATM   15  N1  UNL     1      26.509  -1.609  53.701  1.00  0.00     0.102 N 
HETATM   16  C6  UNL     1      26.820  -2.133  52.389  1.00  0.00     0.309 C 
HETATM   17  H11 UNL     1      27.370  -1.072  54.004  1.00  0.00     0.318 HD
ENDBRANCH  14  15
ENDBRANCH  13  14
ENDBRANCH   8  13
ENDBRANCH   1   8
BRANCH   5  18
HETATM   18  N4  UNL     1      25.330   4.225  49.332  1.00  0.00    -0.338 N 
HETATM   19  H16 UNL     1      24.786   3.796  48.543  1.00  0.00     0.167 HD
BRANCH  18  20
HETATM   20  C10 UNL     1      26.311   5.152  48.918  1.00  0.00     0.035 A 
HETATM   21  C11 UNL     1      26.030   6.505  48.754  1.00  0.00     0.029 A 
HETATM   22  C12 UNL     1      26.967   7.421  48.354  1.00  0.00     0.004 A 
HETATM   23  C13 UNL     1      28.262   7.049  48.086  1.00  0.00     0.024 A 
HETATM   24  C14 UNL     1      28.595   5.730  48.231  1.00  0.00     0.036 A 
HETATM   25 CL1  UNL     1      30.233   5.257  47.893  1.00  0.00    -0.084 Cl
HETATM   26  C15 UNL     1      27.624   4.846  48.634  1.00  0.00     0.053 A 
ENDBRANCH  18  20
ENDBRANCH   5  18
TORSDOF 9
ENDMDL
MODEL 7
REMARK VINA RESULT:      -6.6      2.120      3.473
REMARK  9 active torsions:
REMARK  status: ('A' for Active; 'I' for Inactive)
REMARK    1  A    between atoms: C2_2  and  O1_3 
REMARK    2  A    between atoms: O1_3  and  C3_4 
REMARK    3  A    between atoms: C3_4  and  C4_5 
REMARK    4  A    between atoms: C4_5  and  O2_6 
REMARK    5  A    between atoms: C4_5  and  C7_10 
REMARK    6  A    between atoms: O2_6  and  C5_7 
REMARK    7  A    between atoms: C5_7  and  N1_8 
REMARK    8  A    between atoms: C9_14  and  N4_15 
REMARK    9  A    between atoms: N4_15  and  C10_16 
ROOT
HETATM    1  C7  UNL     1      25.333   2.212  52.876  1.00  0.00     0.109 A 
HETATM    2  N2  UNL     1      24.243   2.963  53.183  1.00  0.00    -0.240 NA
HETATM    3  C8  UNL     1      23.772   3.900  52.344  1.00  0.00     0.235 A 
HETATM    4  N3  UNL     1      24.404   4.088  51.176  1.00  0.00    -0.221 NA
HETATM    5  C9  UNL     1      25.483   3.413  50.763  1.00  0.00     0.170 A 
HETATM    6  C16 UNL     1      25.924   2.465  51.658  1.00  0.00     0.189 A 
HETATM    7  F1  UNL     1      27.006   1.702  51.380  1.00  0.00    -0.200 F 
ENDROOT
BRANCH   1   8
HETATM    8  C4  UNL     1      25.818   1.200  53.812  1.00  0.00     0.202 C 
BRANCH   8   9
HETATM    9  C3  UNL     1      25.708  -0.220  53.335  1.00  0.00     0.206 C 
BRANCH   9  10
HETATM   10  O1  UNL     1      24.385  -0.603  53.338  1.00  0.00    -0.389 OA
BRANCH  10  11
HETATM   11  C2  UNL     1      23.893  -0.876  54.605  1.00  0.00     0.163 C 
HETATM   12  C1  UNL     1      22.420  -1.098  54.645  1.00  0.00     0.033 C 
ENDBRANCH  10  11
ENDBRANCH   9  10
ENDBRANCH   8   9
BRANCH   8  13
HETATM   13  O2  UNL     1      27.101   1.382  54.269  1.00  0.00    -0.349 OA
BRANCH  13  14
HETATM   14  C5  UNL     1      27.811   0.284  54.637  1.00  0.00     0.437 C 
BRANCH  14  15
HETATM   15  N1  UNL     1      29.226   0.480  54.349  1.00  0.00     0.102 N 
HETATM   16  C6  UNL     1      29.783  -0.650  53.636  1.00  0.00     0.309 C 
HETATM   17  H11 UNL     1      29.309   1.303  53.687  1.00  0.00     0.318 HD
ENDBRANCH  14  15
ENDBRANCH  13  14
ENDBRANCH   8  13
ENDBRANCH   1   8
BRANCH   5  18
HETATM   18  N4  UNL     1      26.184   3.573  49.545  1.00  0.00    -0.338 N 
HETATM   19  H16 UNL     1      26.345   2.717  48.960  1.00  0.00     0.167 HD
BRANCH  18  20
HETATM   20  C10 UNL     1      26.712   4.758  48.989  1.00  0.00     0.035 A 
HETATM   21  C11 UNL     1      28.059   4.888  48.664  1.00  0.00     0.029 A 
HETATM   22  C12 UNL     1      28.592   6.029  48.124  1.00  0.00     0.004 A 
HETATM   23  C13 UNL     1      27.813   7.131  47.869  1.00  0.00     0.024 A 
HETATM   24  C14 UNL     1      26.480   7.060  48.170  1.00  0.00     0.036 A 
HETATM   25 CL1  UNL     1      25.492   8.453  47.847  1.00  0.00    -0.084 Cl
HETATM   26  C15 UNL     1      25.988   5.897  48.709  1.00  0.00     0.053 A 
ENDBRANCH  18  20
ENDBRANCH   5  18
TORSDOF 9
ENDMDL
MODEL 8
REMARK VINA RESULT:      -6.5      3.466      6.527
REMARK  9 active torsions:
REMARK  status: ('A' for Active; 'I' for Inactive)
REMARK    1  A    between atoms: C2_2  and  O1_3 
REMARK    2  A    between atoms: O1_3  and  C3_4 
REMARK    3  A    between atoms: C3_4  and  C4_5 
REMARK    4  A    between atoms: C4_5  and  O2_6 
REMARK    5  A    between atoms: C4_5  and  C7_10 
REMARK    6  A    between atoms: O2_6  and  C5_7 
REMARK    7  A    between atoms: C5_7  and  N1_8 
REMARK    8  A    between atoms: C9_14  and  N4_15 
REMARK    9  A    between atoms: N4_15  and  C10_16 
ROOT
HETATM    1  C7  UNL     1      26.386   2.486  51.204  1.00  0.00     0.109 A 
HETATM    2  N2  UNL     1      27.517   2.605  51.948  1.00  0.00    -0.240 NA
HETATM    3  C8  UNL     1      27.762   1.798  52.994  1.00  0.00     0.235 A 
HETATM    4  N3  UNL     1      26.858   0.855  53.298  1.00  0.00    -0.221 NA
HETATM    5  C9  UNL     1      25.712   0.641  52.642  1.00  0.00     0.170 A 
HETATM    6  C16 UNL     1      25.509   1.493  51.581  1.00  0.00     0.189 A 
HETATM    7  F1  UNL     1      24.394   1.399  50.821  1.00  0.00    -0.200 F 
ENDROOT
BRANCH   1   8
HETATM    8  C4  UNL     1      26.152   3.380  50.072  1.00  0.00     0.202 C 
BRANCH   8   9
HETATM    9  C3  UNL     1      25.402   4.640  50.396  1.00  0.00     0.206 C 
BRANCH   9  10
HETATM   10  O1  UNL     1      24.049   4.411  50.282  1.00  0.00    -0.389 OA
BRANCH  10  11
HETATM   11  C2  UNL     1      23.295   5.069  51.242  1.00  0.00     0.163 C 
HETATM   12  C1  UNL     1      23.340   4.427  52.587  1.00  0.00     0.033 C 
ENDBRANCH  10  11
ENDBRANCH   9  10
ENDBRANCH   8   9
BRANCH   8  13
HETATM   13  O2  UNL     1      27.269   3.739  49.359  1.00  0.00    -0.349 OA
BRANCH  13  14
HETATM   14  C5  UNL     1      27.277   4.952  48.748  1.00  0.00     0.437 C 
BRANCH  14  15
HETATM   15  N1  UNL     1      28.589   5.573  48.882  1.00  0.00     0.102 N 
HETATM   16  C6  UNL     1      28.816   6.558  47.846  1.00  0.00     0.309 C 
HETATM   17  H11 UNL     1      28.600   6.111  49.793  1.00  0.00     0.318 HD
ENDBRANCH  14  15
ENDBRANCH  13  14
ENDBRANCH   8  13
ENDBRANCH   1   8
BRANCH   5  18
HETATM   18  N4  UNL     1      24.729  -0.337  52.923  1.00  0.00    -0.338 N 
HETATM   19  H16 UNL     1      24.980  -1.342  52.754  1.00  0.00     0.167 HD
BRANCH  18  20
HETATM   20  C10 UNL     1      23.419  -0.145  53.412  1.00  0.00     0.035 A 
HETATM   21  C11 UNL     1      22.891  -0.917  54.442  1.00  0.00     0.029 A 
HETATM   22  C12 UNL     1      21.623  -0.747  54.932  1.00  0.00     0.004 A 
HETATM   23  C13 UNL     1      20.783   0.214  54.424  1.00  0.00     0.024 A 
HETATM   24  C14 UNL     1      21.250   1.005  53.409  1.00  0.00     0.036 A 
HETATM   25 CL1  UNL     1      20.190   2.223  52.766  1.00  0.00    -0.084 Cl
HETATM   26  C15 UNL     1      22.527   0.799  52.949  1.00  0.00     0.053 A 
ENDBRANCH  18  20
ENDBRANCH   5  18
TORSDOF 9
ENDMDL
MODEL 9
REMARK VINA RESULT:      -6.2      3.533      6.836
REMARK  9 active torsions:
REMARK  status: ('A' for Active; 'I' for Inactive)
REMARK    1  A    between atoms: C2_2  and  O1_3 
REMARK    2  A    between atoms: O1_3  and  C3_4 
REMARK    3  A    between atoms: C3_4  and  C4_5 
REMARK    4  A    between atoms: C4_5  and  O2_6 
REMARK    5  A    between atoms: C4_5  and  C7_10 
REMARK    6  A    between atoms: O2_6  and  C5_7 
REMARK    7  A    between atoms: C5_7  and  N1_8 
REMARK    8  A    between atoms: C9_14  and  N4_15 
REMARK    9  A    between atoms: N4_15  and  C10_16 
ROOT
HETATM    1  C7  UNL     1      23.154   2.210  51.214  1.00  0.00     0.109 A 
HETATM    2  N2  UNL     1      23.433   2.776  50.010  1.00  0.00    -0.240 NA
HETATM    3  C8  UNL     1      24.658   3.241  49.716  1.00  0.00     0.235 A 
HETATM    4  N3  UNL     1      25.621   3.137  50.643  1.00  0.00    -0.221 NA
HETATM    5  C9  UNL     1      25.469   2.601  51.860  1.00  0.00     0.170 A 
HETATM    6  C16 UNL     1      24.196   2.140  52.111  1.00  0.00     0.189 A 
HETATM    7  F1  UNL     1      23.889   1.572  53.299  1.00  0.00    -0.200 F 
ENDROOT
BRANCH   1   8
HETATM    8  C4  UNL     1      21.810   1.714  51.501  1.00  0.00     0.202 C 
BRANCH   8   9
HETATM    9  C3  UNL     1      21.720   0.245  51.802  1.00  0.00     0.206 C 
BRANCH   9  10
HETATM   10  O1  UNL     1      20.658   0.015  52.647  1.00  0.00    -0.389 OA
BRANCH  10  11
HETATM   11  C2  UNL     1      20.931  -0.921  53.634  1.00  0.00     0.163 C 
HETATM   12  C1  UNL     1      21.543  -0.341  54.862  1.00  0.00     0.033 C 
ENDBRANCH  10  11
ENDBRANCH   9  10
ENDBRANCH   8   9
BRANCH   8  13
HETATM   13  O2  UNL     1      21.131   2.380  52.492  1.00  0.00    -0.349 OA
BRANCH  13  14
HETATM   14  C5  UNL     1      20.676   3.631  52.227  1.00  0.00     0.437 C 
BRANCH  14  15
HETATM   15  N1  UNL     1      19.812   3.614  51.054  1.00  0.00     0.102 N 
HETATM   16  C6  UNL     1      18.417   3.511  51.426  1.00  0.00     0.309 C 
HETATM   17  H11 UNL     1      19.908   4.550  50.568  1.00  0.00     0.318 HD
ENDBRANCH  14  15
ENDBRANCH  13  14
ENDBRANCH   8  13
ENDBRANCH   1   8
BRANCH   5  18
HETATM   18  N4  UNL     1      26.449   2.469  52.871  1.00  0.00    -0.338 N 
HETATM   19  H16 UNL     1      26.545   3.252  53.562  1.00  0.00     0.167 HD
BRANCH  18  20
HETATM   20  C10 UNL     1      27.344   1.397  53.086  1.00  0.00     0.035 A 
HETATM   21  C11 UNL     1      28.616   1.589  53.615  1.00  0.00     0.029 A 
HETATM   22  C12 UNL     1      29.499   0.564  53.831  1.00  0.00     0.004 A 
HETATM   23  C13 UNL     1      29.173  -0.736  53.532  1.00  0.00     0.024 A 
HETATM   24  C14 UNL     1      27.933  -0.984  53.009  1.00  0.00     0.036 A 
HETATM   25 CL1  UNL     1      27.517  -2.628  52.630  1.00  0.00    -0.084 Cl
HETATM   26  C15 UNL     1      27.080   0.073  52.808  1.00  0.00     0.053 A 
ENDBRANCH  18  20
ENDBRANCH   5  18
TORSDOF 9
ENDMDL
