MODEL 1
REMARK VINA RESULT:      -9.4      0.000      0.000
REMARK  2 active torsions:
REMARK  status: ('A' for Active; 'I' for Inactive)
REMARK       I    between atoms: C1_2  and  N1_3 
REMARK    1  A    between atoms: C1_2  and  C18_24 
REMARK    2  A    between atoms: N1_3  and  C2_4 
ROOT
HETATM    1  C2  UNL     1      24.779   1.866  52.115  1.00  0.00     0.037 A 
HETATM    2  C3  UNL     1      23.476   1.548  52.423  1.00  0.00     0.030 A 
HETATM    3  C4  UNL     1      22.521   2.528  52.262  1.00  0.00     0.016 A 
HETATM    4  C5  UNL     1      22.771   3.807  51.813  1.00  0.00    -0.009 A 
HETATM    5  C6  UNL     1      24.068   4.132  51.503  1.00  0.00     0.061 A 
HETATM    6  C7  UNL     1      25.022   3.157  51.664  1.00  0.00     0.060 A 
HETATM    7  N2  UNL     1      24.629   5.339  51.019  1.00  0.00    -0.187 N 
HETATM    8  C8  UNL     1      24.709   6.070  49.806  1.00  0.00     0.727 A 
HETATM    9  N3  UNL     1      25.969   6.492  49.543  1.00  0.00    -0.075 NA
HETATM   10  C9  UNL     1      26.176   7.194  48.419  1.00  0.00     0.138 A 
HETATM   11  C10 UNL     1      25.189   7.510  47.520  1.00  0.00     0.048 A 
HETATM   12  C11 UNL     1      23.942   7.052  47.846  1.00  0.00     0.059 A 
HETATM   13  N4  UNL     1      23.726   6.363  48.946  1.00  0.00    -0.067 NA
HETATM   14  C12 UNL     1      22.706   7.254  47.050  1.00  0.00     0.106 C 
HETATM   15  C13 UNL     1      22.233   6.047  46.367  1.00  0.00     0.089 C 
HETATM   16  N5  UNL     1      21.402   5.185  46.855  1.00  0.00    -0.304 NA
HETATM   17  C14 UNL     1      20.863   5.381  48.185  1.00  0.00     0.095 C 
HETATM   18  C15 UNL     1      20.475   5.493  49.438  1.00  0.00     0.098 C 
HETATM   19  C16 UNL     1      20.830   5.127  50.798  1.00  0.00    -0.018 C 
HETATM   20  C17 UNL     1      21.544   4.579  51.760  1.00  0.00     0.010 C 
HETATM   21  H5  UNL     1      25.109   5.733  51.858  1.00  0.00     0.184 HD
ENDROOT
BRANCH   1  22
HETATM   22  N1  UNL     1      25.799   0.887  52.266  1.00  0.00    -0.323 N 
HETATM   23  C1  UNL     1      26.736   0.779  53.308  1.00  0.00     0.256 C 
HETATM   24  O1  UNL     1      26.607   1.691  54.188  1.00  0.00    -0.267 OA
HETATM   25  H1  UNL     1      25.777   0.216  51.473  1.00  0.00     0.169 HD
BRANCH  23  26
HETATM   26  C18 UNL     1      27.738  -0.278  53.347  1.00  0.00     0.032 A 
HETATM   27  C19 UNL     1      29.027  -0.132  53.816  1.00  0.00     0.017 A 
HETATM   28  C20 UNL     1      29.911  -1.183  53.818  1.00  0.00     0.001 A 
HETATM   29  C21 UNL     1      29.499  -2.422  53.340  1.00  0.00     0.000 A 
HETATM   30  C22 UNL     1      28.216  -2.547  52.880  1.00  0.00     0.001 A 
HETATM   31  C23 UNL     1      27.317  -1.511  52.867  1.00  0.00     0.017 A 
ENDBRANCH  23  26
ENDBRANCH   1  22
TORSDOF 2
ENDMDL
MODEL 2
REMARK VINA RESULT:      -9.2      1.485      1.611
REMARK  2 active torsions:
REMARK  status: ('A' for Active; 'I' for Inactive)
REMARK       I    between atoms: C1_2  and  N1_3 
REMARK    1  A    between atoms: C1_2  and  C18_24 
REMARK    2  A    between atoms: N1_3  and  C2_4 
ROOT
HETATM    1  C2  UNL     1      24.173   1.484  52.459  1.00  0.00     0.037 A 
HETATM    2  C3  UNL     1      22.994   0.774  52.442  1.00  0.00     0.030 A 
HETATM    3  C4  UNL     1      21.818   1.487  52.363  1.00  0.00     0.016 A 
HETATM    4  C5  UNL     1      21.730   2.861  52.297  1.00  0.00    -0.009 A 
HETATM    5  C6  UNL     1      22.901   3.576  52.313  1.00  0.00     0.061 A 
HETATM    6  C7  UNL     1      24.076   2.868  52.394  1.00  0.00     0.060 A 
HETATM    7  N2  UNL     1      23.134   4.971  52.252  1.00  0.00    -0.187 N 
HETATM    8  C8  UNL     1      23.122   6.016  51.292  1.00  0.00     0.727 A 
HETATM    9  N3  UNL     1      24.226   6.799  51.370  1.00  0.00    -0.075 NA
HETATM   10  C9  UNL     1      24.333   7.823  50.511  1.00  0.00     0.138 A 
HETATM   11  C10 UNL     1      23.394   8.126  49.558  1.00  0.00     0.048 A 
HETATM   12  C11 UNL     1      22.307   7.296  49.534  1.00  0.00     0.059 A 
HETATM   13  N4  UNL     1      22.189   6.288  50.372  1.00  0.00    -0.067 NA
HETATM   14  C12 UNL     1      21.153   7.401  48.607  1.00  0.00     0.106 C 
HETATM   15  C13 UNL     1      21.123   6.364  47.572  1.00  0.00     0.089 C 
HETATM   16  N5  UNL     1      20.533   5.218  47.675  1.00  0.00    -0.304 NA
HETATM   17  C14 UNL     1      19.827   4.881  48.895  1.00  0.00     0.095 C 
HETATM   18  C15 UNL     1      19.298   4.526  50.046  1.00  0.00     0.098 C 
HETATM   19  C16 UNL     1      19.604   3.886  51.314  1.00  0.00    -0.018 C 
HETATM   20  C17 UNL     1      20.344   3.282  52.221  1.00  0.00     0.010 C 
HETATM   21  H5  UNL     1      23.392   5.215  53.234  1.00  0.00     0.184 HD
ENDROOT
BRANCH   1  22
HETATM   22  N1  UNL     1      25.413   0.792  52.542  1.00  0.00    -0.323 N 
HETATM   23  C1  UNL     1      26.456   1.008  53.457  1.00  0.00     0.256 C 
HETATM   24  O1  UNL     1      26.205   1.944  54.284  1.00  0.00    -0.267 OA
HETATM   25  H1  UNL     1      25.468   0.061  51.804  1.00  0.00     0.169 HD
BRANCH  23  26
HETATM   26  C18 UNL     1      27.685   0.224  53.436  1.00  0.00     0.032 A 
HETATM   27  C19 UNL     1      28.943   0.717  53.713  1.00  0.00     0.017 A 
HETATM   28  C20 UNL     1      30.053  -0.092  53.672  1.00  0.00     0.001 A 
HETATM   29  C21 UNL     1      29.906  -1.435  53.346  1.00  0.00     0.000 A 
HETATM   30  C22 UNL     1      28.648  -1.905  53.075  1.00  0.00     0.001 A 
HETATM   31  C23 UNL     1      27.527  -1.116  53.109  1.00  0.00     0.017 A 
ENDBRANCH  23  26
ENDBRANCH   1  22
TORSDOF 2
ENDMDL
MODEL 3
REMARK VINA RESULT:      -9.1      2.117      3.031
REMARK  2 active torsions:
REMARK  status: ('A' for Active; 'I' for Inactive)
REMARK       I    between atoms: C1_2  and  N1_3 
REMARK    1  A    between atoms: C1_2  and  C18_24 
REMARK    2  A    between atoms: N1_3  and  C2_4 
ROOT
HETATM    1  C2  UNL     1      23.784   0.357  53.114  1.00  0.00     0.037 A 
HETATM    2  C3  UNL     1      22.796  -0.597  53.031  1.00  0.00     0.030 A 
HETATM    3  C4  UNL     1      21.514  -0.172  52.758  1.00  0.00     0.016 A 
HETATM    4  C5  UNL     1      21.143   1.141  52.559  1.00  0.00    -0.009 A 
HETATM    5  C6  UNL     1      22.123   2.099  52.641  1.00  0.00     0.061 A 
HETATM    6  C7  UNL     1      23.402   1.677  52.914  1.00  0.00     0.060 A 
HETATM    7  N2  UNL     1      22.058   3.504  52.481  1.00  0.00    -0.187 N 
HETATM    8  C8  UNL     1      21.945   4.457  51.436  1.00  0.00     0.727 A 
HETATM    9  N3  UNL     1      22.836   5.470  51.566  1.00  0.00    -0.075 NA
HETATM   10  C9  UNL     1      22.831   6.436  50.635  1.00  0.00     0.138 A 
HETATM   11  C10 UNL     1      21.978   6.461  49.561  1.00  0.00     0.048 A 
HETATM   12  C11 UNL     1      21.106   5.409  49.491  1.00  0.00     0.059 A 
HETATM   13  N4  UNL     1      21.101   4.455  50.397  1.00  0.00    -0.067 NA
HETATM   14  C12 UNL     1      20.085   5.195  48.436  1.00  0.00     0.106 C 
HETATM   15  C13 UNL     1      20.410   4.115  47.501  1.00  0.00     0.089 C 
HETATM   16  N5  UNL     1      20.070   2.874  47.641  1.00  0.00    -0.304 NA
HETATM   17  C14 UNL     1      19.303   2.466  48.800  1.00  0.00     0.095 C 
HETATM   18  C15 UNL     1      18.720   2.076  49.913  1.00  0.00     0.098 C 
HETATM   19  C16 UNL     1      18.990   1.601  51.260  1.00  0.00    -0.018 C 
HETATM   20  C17 UNL     1      19.721   1.236  52.293  1.00  0.00     0.010 C 
HETATM   21  H5  UNL     1      22.130   3.861  53.460  1.00  0.00     0.184 HD
ENDROOT
BRANCH   1  22
HETATM   22  N1  UNL     1      25.122  -0.034  53.395  1.00  0.00    -0.323 N 
HETATM   23  C1  UNL     1      26.273   0.243  52.639  1.00  0.00     0.256 C 
HETATM   24  O1  UNL     1      26.027   0.926  51.593  1.00  0.00    -0.267 OA
HETATM   25  H1  UNL     1      25.160  -0.582  54.278  1.00  0.00     0.169 HD
BRANCH  23  26
HETATM   26  C18 UNL     1      27.596  -0.218  53.039  1.00  0.00     0.032 A 
HETATM   27  C19 UNL     1      28.005  -1.535  53.054  1.00  0.00     0.017 A 
HETATM   28  C20 UNL     1      29.275  -1.886  53.445  1.00  0.00     0.001 A 
HETATM   29  C21 UNL     1      30.167  -0.893  53.833  1.00  0.00     0.000 A 
HETATM   30  C22 UNL     1      29.743   0.408  53.811  1.00  0.00     0.001 A 
HETATM   31  C23 UNL     1      28.480   0.781  53.425  1.00  0.00     0.017 A 
ENDBRANCH  23  26
ENDBRANCH   1  22
TORSDOF 2
ENDMDL
MODEL 4
REMARK VINA RESULT:      -8.6      6.138      7.498
REMARK  2 active torsions:
REMARK  status: ('A' for Active; 'I' for Inactive)
REMARK       I    between atoms: C1_2  and  N1_3 
REMARK    1  A    between atoms: C1_2  and  C18_24 
REMARK    2  A    between atoms: N1_3  and  C2_4 
ROOT
HETATM    1  C2  UNL     1      29.405   6.293  48.010  1.00  0.00     0.037 A 
HETATM    2  C3  UNL     1      28.294   5.493  48.152  1.00  0.00     0.030 A 
HETATM    3  C4  UNL     1      27.178   6.045  48.743  1.00  0.00     0.016 A 
HETATM    4  C5  UNL     1      27.088   7.341  49.204  1.00  0.00    -0.009 A 
HETATM    5  C6  UNL     1      28.192   8.145  49.066  1.00  0.00     0.061 A 
HETATM    6  C7  UNL     1      29.306   7.597  48.478  1.00  0.00     0.060 A 
HETATM    7  N2  UNL     1      28.402   9.497  49.428  1.00  0.00    -0.187 N 
HETATM    8  C8  UNL     1      28.050  10.793  48.969  1.00  0.00     0.727 A 
HETATM    9  N3  UNL     1      29.115  11.631  48.933  1.00  0.00    -0.075 NA
HETATM   10  C9  UNL     1      28.911  12.889  48.513  1.00  0.00     0.138 A 
HETATM   11  C10 UNL     1      27.691  13.378  48.119  1.00  0.00     0.048 A 
HETATM   12  C11 UNL     1      26.662  12.479  48.179  1.00  0.00     0.059 A 
HETATM   13  N4  UNL     1      26.848  11.242  48.589  1.00  0.00    -0.067 NA
HETATM   14  C12 UNL     1      25.250  12.748  47.811  1.00  0.00     0.106 C 
HETATM   15  C13 UNL     1      24.831  12.121  46.555  1.00  0.00     0.089 C 
HETATM   16  N5  UNL     1      24.307  10.944  46.441  1.00  0.00    -0.304 NA
HETATM   17  C14 UNL     1      24.094  10.137  47.626  1.00  0.00     0.095 C 
HETATM   18  C15 UNL     1      24.019   9.357  48.683  1.00  0.00     0.098 C 
HETATM   19  C16 UNL     1      24.761   8.371  49.451  1.00  0.00    -0.018 C 
HETATM   20  C17 UNL     1      25.776   7.593  49.767  1.00  0.00     0.010 C 
HETATM   21  H5  UNL     1      29.004   9.428  50.277  1.00  0.00     0.184 HD
ENDROOT
BRANCH   1  22
HETATM   22  N1  UNL     1      30.581   5.768  47.407  1.00  0.00    -0.323 N 
HETATM   23  C1  UNL     1      31.680   5.171  48.047  1.00  0.00     0.256 C 
HETATM   24  O1  UNL     1      31.551   5.124  49.313  1.00  0.00    -0.267 OA
HETATM   25  H1  UNL     1      30.537   5.879  46.373  1.00  0.00     0.169 HD
BRANCH  23  26
HETATM   26  C18 UNL     1      32.832   4.669  47.308  1.00  0.00     0.032 A 
HETATM   27  C19 UNL     1      33.866   3.939  47.856  1.00  0.00     0.017 A 
HETATM   28  C20 UNL     1      34.918   3.501  47.087  1.00  0.00     0.001 A 
HETATM   29  C21 UNL     1      34.940   3.798  45.729  1.00  0.00     0.000 A 
HETATM   30  C22 UNL     1      33.904   4.523  45.205  1.00  0.00     0.001 A 
HETATM   31  C23 UNL     1      32.845   4.971  45.954  1.00  0.00     0.017 A 
ENDBRANCH  23  26
ENDBRANCH   1  22
TORSDOF 2
ENDMDL
MODEL 5
REMARK VINA RESULT:      -8.6      5.788      9.217
REMARK  2 active torsions:
REMARK  status: ('A' for Active; 'I' for Inactive)
REMARK       I    between atoms: C1_2  and  N1_3 
REMARK    1  A    between atoms: C1_2  and  C18_24 
REMARK    2  A    between atoms: N1_3  and  C2_4 
ROOT
HETATM    1  C2  UNL     1      27.727   6.057  48.244  1.00  0.00     0.037 A 
HETATM    2  C3  UNL     1      27.526   7.277  47.639  1.00  0.00     0.030 A 
HETATM    3  C4  UNL     1      28.637   7.971  47.210  1.00  0.00     0.016 A 
HETATM    4  C5  UNL     1      29.939   7.535  47.339  1.00  0.00    -0.009 A 
HETATM    5  C6  UNL     1      30.148   6.320  47.942  1.00  0.00     0.061 A 
HETATM    6  C7  UNL     1      29.041   5.626  48.371  1.00  0.00     0.060 A 
HETATM    7  N2  UNL     1      31.344   5.613  48.208  1.00  0.00    -0.187 N 
HETATM    8  C8  UNL     1      32.309   4.842  47.508  1.00  0.00     0.727 A 
HETATM    9  N3  UNL     1      32.606   3.686  48.151  1.00  0.00    -0.075 NA
HETATM   10  C9  UNL     1      33.506   2.866  47.587  1.00  0.00     0.138 A 
HETATM   11  C10 UNL     1      34.143   3.127  46.400  1.00  0.00     0.048 A 
HETATM   12  C11 UNL     1      33.795   4.308  45.805  1.00  0.00     0.059 A 
HETATM   13  N4  UNL     1      32.914   5.122  46.348  1.00  0.00    -0.067 NA
HETATM   14  C12 UNL     1      34.332   4.827  44.523  1.00  0.00     0.106 C 
HETATM   15  C13 UNL     1      33.381   4.765  43.410  1.00  0.00     0.089 C 
HETATM   16  N5  UNL     1      32.551   5.700  43.078  1.00  0.00    -0.304 NA
HETATM   17  C14 UNL     1      32.518   6.933  43.838  1.00  0.00     0.095 C 
HETATM   18  C15 UNL     1      32.401   7.996  44.605  1.00  0.00     0.098 C 
HETATM   19  C16 UNL     1      31.699   8.517  45.766  1.00  0.00    -0.018 C 
HETATM   20  C17 UNL     1      30.861   8.506  46.782  1.00  0.00     0.010 C 
HETATM   21  H5  UNL     1      31.475   5.740  49.236  1.00  0.00     0.184 HD
ENDROOT
BRANCH   1  22
HETATM   22  N1  UNL     1      26.612   5.305  48.704  1.00  0.00    -0.323 N 
HETATM   23  C1  UNL     1      25.676   5.672  49.686  1.00  0.00     0.256 C 
HETATM   24  O1  UNL     1      25.906   6.821  50.186  1.00  0.00    -0.267 OA
HETATM   25  H1  UNL     1      26.558   4.395  48.204  1.00  0.00     0.169 HD
BRANCH  23  26
HETATM   26  C18 UNL     1      24.570   4.804  50.070  1.00  0.00     0.032 A 
HETATM   27  C19 UNL     1      23.723   5.025  51.136  1.00  0.00     0.017 A 
HETATM   28  C20 UNL     1      22.700   4.156  51.429  1.00  0.00     0.001 A 
HETATM   29  C21 UNL     1      22.513   3.031  50.634  1.00  0.00     0.000 A 
HETATM   30  C22 UNL     1      23.364   2.830  49.581  1.00  0.00     0.001 A 
HETATM   31  C23 UNL     1      24.391   3.684  49.270  1.00  0.00     0.017 A 
ENDBRANCH  23  26
ENDBRANCH   1  22
TORSDOF 2
ENDMDL
MODEL 6
REMARK VINA RESULT:      -8.5      2.218      3.510
REMARK  2 active torsions:
REMARK  status: ('A' for Active; 'I' for Inactive)
REMARK       I    between atoms: C1_2  and  N1_3 
REMARK    1  A    between atoms: C1_2  and  C18_24 
REMARK    2  A    between atoms: N1_3  and  C2_4 
ROOT
HETATM    1  C2  UNL     1      25.336   3.515  50.093  1.00  0.00     0.037 A 
HETATM    2  C3  UNL     1      24.254   3.155  49.322  1.00  0.00     0.030 A 
HETATM    3  C4  UNL     1      23.494   4.164  48.772  1.00  0.00     0.016 A 
HETATM    4  C5  UNL     1      23.735   5.512  48.935  1.00  0.00    -0.009 A 
HETATM    5  C6  UNL     1      24.812   5.879  49.703  1.00  0.00     0.061 A 
HETATM    6  C7  UNL     1      25.571   4.874  50.253  1.00  0.00     0.060 A 
HETATM    7  N2  UNL     1      25.312   7.159  50.042  1.00  0.00    -0.187 N 
HETATM    8  C8  UNL     1      26.047   8.214  49.441  1.00  0.00     0.727 A 
HETATM    9  N3  UNL     1      27.048   8.661  50.238  1.00  0.00    -0.075 NA
HETATM   10  C9  UNL     1      27.820   9.658  49.780  1.00  0.00     0.138 A 
HETATM   11  C10 UNL     1      27.656  10.252  48.554  1.00  0.00     0.048 A 
HETATM   12  C11 UNL     1      26.630   9.751  47.802  1.00  0.00     0.059 A 
HETATM   13  N4  UNL     1      25.865   8.774  48.240  1.00  0.00    -0.067 NA
HETATM   14  C12 UNL     1      26.240  10.212  46.446  1.00  0.00     0.106 C 
HETATM   15  C13 UNL     1      26.587   9.275  45.375  1.00  0.00     0.089 C 
HETATM   16  N5  UNL     1      25.826   8.329  44.929  1.00  0.00    -0.304 NA
HETATM   17  C14 UNL     1      24.509   8.138  45.502  1.00  0.00     0.095 C 
HETATM   18  C15 UNL     1      23.368   7.885  46.109  1.00  0.00     0.098 C 
HETATM   19  C16 UNL     1      22.778   7.124  47.197  1.00  0.00    -0.018 C 
HETATM   20  C17 UNL     1      22.747   6.298  48.222  1.00  0.00     0.010 C 
HETATM   21  H5  UNL     1      25.019   7.275  51.038  1.00  0.00     0.184 HD
ENDROOT
BRANCH   1  22
HETATM   22  N1  UNL     1      26.149   2.508  50.683  1.00  0.00    -0.323 N 
HETATM   23  C1  UNL     1      26.126   2.058  52.013  1.00  0.00     0.256 C 
HETATM   24  O1  UNL     1      25.257   2.657  52.725  1.00  0.00    -0.267 OA
HETATM   25  H1  UNL     1      26.805   2.115  49.978  1.00  0.00     0.169 HD
BRANCH  23  26
HETATM   26  C18 UNL     1      27.019   1.011  52.495  1.00  0.00     0.032 A 
HETATM   27  C19 UNL     1      26.791  -0.344  52.370  1.00  0.00     0.017 A 
HETATM   28  C20 UNL     1      27.686  -1.267  52.853  1.00  0.00     0.001 A 
HETATM   29  C21 UNL     1      28.847  -0.829  53.479  1.00  0.00     0.000 A 
HETATM   30  C22 UNL     1      29.055   0.520  53.593  1.00  0.00     0.001 A 
HETATM   31  C23 UNL     1      28.175   1.459  53.120  1.00  0.00     0.017 A 
ENDBRANCH  23  26
ENDBRANCH   1  22
TORSDOF 2
ENDMDL
MODEL 7
REMARK VINA RESULT:      -8.4      2.631      4.134
REMARK  2 active torsions:
REMARK  status: ('A' for Active; 'I' for Inactive)
REMARK       I    between atoms: C1_2  and  N1_3 
REMARK    1  A    between atoms: C1_2  and  C18_24 
REMARK    2  A    between atoms: N1_3  and  C2_4 
ROOT
HETATM    1  C2  UNL     1      23.476   5.149  51.386  1.00  0.00     0.037 A 
HETATM    2  C3  UNL     1      22.181   5.269  50.937  1.00  0.00     0.030 A 
HETATM    3  C4  UNL     1      21.789   6.486  50.423  1.00  0.00     0.016 A 
HETATM    4  C5  UNL     1      22.599   7.598  50.322  1.00  0.00    -0.009 A 
HETATM    5  C6  UNL     1      23.892   7.487  50.767  1.00  0.00     0.061 A 
HETATM    6  C7  UNL     1      24.285   6.274  51.281  1.00  0.00     0.060 A 
HETATM    7  N2  UNL     1      24.947   8.431  50.790  1.00  0.00    -0.187 N 
HETATM    8  C8  UNL     1      25.863   9.032  49.888  1.00  0.00     0.727 A 
HETATM    9  N3  UNL     1      27.131   9.027  50.366  1.00  0.00    -0.075 NA
HETATM   10  C9  UNL     1      28.093   9.566  49.602  1.00  0.00     0.138 A 
HETATM   11  C10 UNL     1      27.871  10.122  48.368  1.00  0.00     0.048 A 
HETATM   12  C11 UNL     1      26.570  10.092  47.946  1.00  0.00     0.059 A 
HETATM   13  N4  UNL     1      25.617   9.566  48.686  1.00  0.00    -0.067 NA
HETATM   14  C12 UNL     1      26.061  10.621  46.657  1.00  0.00     0.106 C 
HETATM   15  C13 UNL     1      25.692   9.584  45.691  1.00  0.00     0.089 C 
HETATM   16  N5  UNL     1      24.519   9.050  45.573  1.00  0.00    -0.304 NA
HETATM   17  C14 UNL     1      23.445   9.478  46.447  1.00  0.00     0.095 C 
HETATM   18  C15 UNL     1      22.508   9.775  47.322  1.00  0.00     0.098 C 
HETATM   19  C16 UNL     1      21.969   9.395  48.616  1.00  0.00    -0.018 C 
HETATM   20  C17 UNL     1      21.873   8.707  49.736  1.00  0.00     0.010 C 
HETATM   21  H5  UNL     1      25.004   8.703  51.796  1.00  0.00     0.184 HD
ENDROOT
BRANCH   1  22
HETATM   22  N1  UNL     1      23.926   3.913  51.925  1.00  0.00    -0.323 N 
HETATM   23  C1  UNL     1      24.618   2.888  51.259  1.00  0.00     0.256 C 
HETATM   24  O1  UNL     1      24.841   3.154  50.034  1.00  0.00    -0.267 OA
HETATM   25  H1  UNL     1      23.671   3.844  52.931  1.00  0.00     0.169 HD
BRANCH  23  26
HETATM   26  C18 UNL     1      25.026   1.661  51.932  1.00  0.00     0.032 A 
HETATM   27  C19 UNL     1      24.242   0.939  52.808  1.00  0.00     0.017 A 
HETATM   28  C20 UNL     1      24.704  -0.212  53.399  1.00  0.00     0.001 A 
HETATM   29  C21 UNL     1      25.987  -0.661  53.108  1.00  0.00     0.000 A 
HETATM   30  C22 UNL     1      26.749   0.069  52.236  1.00  0.00     0.001 A 
HETATM   31  C23 UNL     1      26.309   1.221  51.635  1.00  0.00     0.017 A 
ENDBRANCH  23  26
ENDBRANCH   1  22
TORSDOF 2
ENDMDL
MODEL 8
REMARK VINA RESULT:      -8.3      3.405      5.626
REMARK  2 active torsions:
REMARK  status: ('A' for Active; 'I' for Inactive)
REMARK       I    between atoms: C1_2  and  N1_3 
REMARK    1  A    between atoms: C1_2  and  C18_24 
REMARK    2  A    between atoms: N1_3  and  C2_4 
ROOT
HETATM    1  C2  UNL     1      24.628   2.941  50.942  1.00  0.00     0.037 A 
HETATM    2  C3  UNL     1      25.978   2.683  51.001  1.00  0.00     0.030 A 
HETATM    3  C4  UNL     1      26.802   3.384  50.147  1.00  0.00     0.016 A 
HETATM    4  C5  UNL     1      26.378   4.327  49.236  1.00  0.00    -0.009 A 
HETATM    5  C6  UNL     1      25.032   4.590  49.172  1.00  0.00     0.061 A 
HETATM    6  C7  UNL     1      24.208   3.892  50.021  1.00  0.00     0.060 A 
HETATM    7  N2  UNL     1      24.304   5.493  48.361  1.00  0.00    -0.187 N 
HETATM    8  C8  UNL     1      24.047   6.887  48.276  1.00  0.00     0.727 A 
HETATM    9  N3  UNL     1      22.731   7.156  48.102  1.00  0.00    -0.075 NA
HETATM   10  C9  UNL     1      22.359   8.442  48.010  1.00  0.00     0.138 A 
HETATM   11  C10 UNL     1      23.230   9.499  48.082  1.00  0.00     0.048 A 
HETATM   12  C11 UNL     1      24.542   9.156  48.260  1.00  0.00     0.059 A 
HETATM   13  N4  UNL     1      24.920   7.898  48.351  1.00  0.00    -0.067 NA
HETATM   14  C12 UNL     1      25.681  10.100  48.370  1.00  0.00     0.106 C 
HETATM   15  C13 UNL     1      26.229  10.218  49.724  1.00  0.00     0.089 C 
HETATM   16  N5  UNL     1      27.186   9.499  50.212  1.00  0.00    -0.304 NA
HETATM   17  C14 UNL     1      27.804   8.476  49.393  1.00  0.00     0.095 C 
HETATM   18  C15 UNL     1      28.276   7.466  48.693  1.00  0.00     0.098 C 
HETATM   19  C16 UNL     1      28.073   6.055  48.413  1.00  0.00    -0.018 C 
HETATM   20  C17 UNL     1      27.503   4.871  48.501  1.00  0.00     0.010 C 
HETATM   21  H5  UNL     1      23.851   4.871  47.656  1.00  0.00     0.184 HD
ENDROOT
BRANCH   1  22
HETATM   22  N1  UNL     1      23.737   2.242  51.803  1.00  0.00    -0.323 N 
HETATM   23  C1  UNL     1      22.683   1.388  51.436  1.00  0.00     0.256 C 
HETATM   24  O1  UNL     1      22.560   1.266  50.174  1.00  0.00    -0.267 OA
HETATM   25  H1  UNL     1      23.964   2.443  52.798  1.00  0.00     0.169 HD
BRANCH  23  26
HETATM   26  C18 UNL     1      21.838   0.727  52.422  1.00  0.00     0.032 A 
HETATM   27  C19 UNL     1      22.220   0.413  53.710  1.00  0.00     0.017 A 
HETATM   28  C20 UNL     1      21.359  -0.211  54.579  1.00  0.00     0.001 A 
HETATM   29  C21 UNL     1      20.075  -0.532  54.155  1.00  0.00     0.000 A 
HETATM   30  C22 UNL     1      19.715  -0.211  52.873  1.00  0.00     0.001 A 
HETATM   31  C23 UNL     1      20.558   0.411  51.989  1.00  0.00     0.017 A 
ENDBRANCH  23  26
ENDBRANCH   1  22
TORSDOF 2
ENDMDL
MODEL 9
REMARK VINA RESULT:      -8.3      2.796      4.767
REMARK  2 active torsions:
REMARK  status: ('A' for Active; 'I' for Inactive)
REMARK       I    between atoms: C1_2  and  N1_3 
REMARK    1  A    between atoms: C1_2  and  C18_24 
REMARK    2  A    between atoms: N1_3  and  C2_4 
ROOT
HETATM    1  C2  UNL     1      25.015   4.828  50.104  1.00  0.00     0.037 A 
HETATM    2  C3  UNL     1      23.997   4.568  49.215  1.00  0.00     0.030 A 
HETATM    3  C4  UNL     1      23.588   5.593  48.390  1.00  0.00     0.016 A 
HETATM    4  C5  UNL     1      24.124   6.864  48.384  1.00  0.00    -0.009 A 
HETATM    5  C6  UNL     1      25.141   7.131  49.267  1.00  0.00     0.061 A 
HETATM    6  C7  UNL     1      25.549   6.110  50.092  1.00  0.00     0.060 A 
HETATM    7  N2  UNL     1      25.885   8.314  49.490  1.00  0.00    -0.187 N 
HETATM    8  C8  UNL     1      26.931   9.051  48.876  1.00  0.00     0.727 A 
HETATM    9  N3  UNL     1      27.889   9.417  49.762  1.00  0.00    -0.075 NA
HETATM   10  C9  UNL     1      28.936  10.118  49.302  1.00  0.00     0.138 A 
HETATM   11  C10 UNL     1      29.094  10.488  47.990  1.00  0.00     0.048 A 
HETATM   12  C11 UNL     1      28.091  10.086  47.151  1.00  0.00     0.059 A 
HETATM   13  N4  UNL     1      27.059   9.397  47.590  1.00  0.00    -0.067 NA
HETATM   14  C12 UNL     1      28.017  10.352  45.693  1.00  0.00     0.106 C 
HETATM   15  C13 UNL     1      28.271   9.175  44.859  1.00  0.00     0.089 C 
HETATM   16  N5  UNL     1      27.372   8.347  44.434  1.00  0.00    -0.304 NA
HETATM   17  C14 UNL     1      25.982   8.556  44.785  1.00  0.00     0.095 C 
HETATM   18  C15 UNL     1      24.742   8.675  45.208  1.00  0.00     0.098 C 
HETATM   19  C16 UNL     1      23.838   8.281  46.276  1.00  0.00    -0.018 C 
HETATM   20  C17 UNL     1      23.466   7.692  47.393  1.00  0.00     0.010 C 
HETATM   21  H5  UNL     1      25.494   8.678  50.387  1.00  0.00     0.184 HD
ENDROOT
BRANCH   1  22
HETATM   22  N1  UNL     1      25.469   3.802  50.977  1.00  0.00    -0.323 N 
HETATM   23  C1  UNL     1      26.470   2.847  50.731  1.00  0.00     0.256 C 
HETATM   24  O1  UNL     1      26.994   2.964  49.576  1.00  0.00    -0.267 OA
HETATM   25  H1  UNL     1      24.948   3.836  51.876  1.00  0.00     0.169 HD
BRANCH  23  26
HETATM   26  C18 UNL     1      26.845   1.841  51.716  1.00  0.00     0.032 A 
HETATM   27  C19 UNL     1      26.424   0.528  51.707  1.00  0.00     0.017 A 
HETATM   28  C20 UNL     1      26.827  -0.359  52.676  1.00  0.00     0.001 A 
HETATM   29  C21 UNL     1      27.678   0.075  53.686  1.00  0.00     0.000 A 
HETATM   30  C22 UNL     1      28.085   1.382  53.677  1.00  0.00     0.001 A 
HETATM   31  C23 UNL     1      27.695   2.284  52.721  1.00  0.00     0.017 A 
ENDBRANCH  23  26
ENDBRANCH   1  22
TORSDOF 2
ENDMDL
