MODEL 1
REMARK VINA RESULT:      -8.2      0.000      0.000
REMARK  4 active torsions:
REMARK  status: ('A' for Active; 'I' for Inactive)
REMARK    1  A    between atoms: C4_5  and  N1_6 
REMARK    2  A    between atoms: N1_6  and  C5_7 
REMARK    3  A    between atoms: N2_8  and  C6_9 
REMARK    4  A    between atoms: N3_10  and  C7_11 
ROOT
HETATM    1  C6  UNL     1      21.721   3.640  51.476  1.00  0.00     0.237 C 
HETATM    2  N3  UNL     1      21.611   2.359  51.222  1.00  0.00    -0.216 NA
ENDROOT
BRANCH   2   3
HETATM    3  C7  UNL     1      22.530   1.513  51.866  1.00  0.00     0.186 C 
HETATM    4  C8  UNL     1      21.924   0.981  52.941  1.00  0.00     0.142 C 
HETATM    5  N4  UNL     1      22.418   0.064  53.924  1.00  0.00    -0.391 N 
HETATM    6  C9  UNL     1      23.660  -0.635  53.985  1.00  0.00     0.160 C 
HETATM    7  H7  UNL     1      21.772  -0.140  54.744  1.00  0.00     0.159 HD
HETATM    8  C10 UNL     1      24.813   0.055  53.404  1.00  0.00    -0.005 A 
HETATM    9  C11 UNL     1      25.965  -0.208  54.121  1.00  0.00     0.035 A 
HETATM   10  C15 UNL     1      24.944   0.893  52.300  1.00  0.00     0.086 A 
HETATM   11  C12 UNL     1      27.230   0.290  53.835  1.00  0.00     0.034 A 
HETATM   12 CL1  UNL     1      28.619  -0.103  54.804  1.00  0.00    -0.084 Cl
HETATM   13  C13 UNL     1      27.275   1.115  52.721  1.00  0.00     0.026 A 
HETATM   14  C14 UNL     1      26.164   1.417  51.962  1.00  0.00     0.039 A 
HETATM   15  O1  UNL     1      23.862   1.238  51.493  1.00  0.00    -0.290 OA
ENDBRANCH   2   3
BRANCH   1  16
HETATM   16  N2  UNL     1      22.741   4.022  52.359  1.00  0.00    -0.237 NA
HETATM   17  C5  UNL     1      23.697   4.826  52.147  1.00  0.00     0.208 C 
BRANCH  17  18
HETATM   18  N1  UNL     1      23.806   5.449  50.881  1.00  0.00    -0.351 N 
HETATM   19  H3  UNL     1      22.978   5.975  50.479  1.00  0.00     0.166 HD
BRANCH  18  20
HETATM   20  C4  UNL     1      25.012   5.409  50.140  1.00  0.00     0.034 A 
HETATM   21  C3  UNL     1      25.689   4.204  50.017  1.00  0.00     0.032 A 
HETATM   22  C2  UNL     1      26.857   4.030  49.309  1.00  0.00     0.046 A 
HETATM   23  C1  UNL     1      27.421   5.104  48.666  1.00  0.00     0.138 A 
HETATM   24  F1  UNL     1      28.565   4.983  47.960  1.00  0.00    -0.204 F 
HETATM   25  C17 UNL     1      26.801   6.328  48.748  1.00  0.00     0.074 A 
HETATM   26  C16 UNL     1      25.637   6.430  49.472  1.00  0.00     0.056 A 
HETATM   27 CL2  UNL     1      27.455   7.747  47.958  1.00  0.00    -0.081 Cl
ENDBRANCH  18  20
ENDBRANCH  17  18
ENDBRANCH   1  16
TORSDOF 4
ENDMDL
MODEL 2
REMARK VINA RESULT:      -8.2      2.212      6.069
REMARK  4 active torsions:
REMARK  status: ('A' for Active; 'I' for Inactive)
REMARK    1  A    between atoms: C4_5  and  N1_6 
REMARK    2  A    between atoms: N1_6  and  C5_7 
REMARK    3  A    between atoms: N2_8  and  C6_9 
REMARK    4  A    between atoms: N3_10  and  C7_11 
ROOT
HETATM    1  C6  UNL     1      22.204   1.340  50.818  1.00  0.00     0.237 C 
HETATM    2  N3  UNL     1      22.541   1.785  49.631  1.00  0.00    -0.216 NA
ENDROOT
BRANCH   2   3
HETATM    3  C7  UNL     1      23.238   3.005  49.596  1.00  0.00     0.186 C 
HETATM    4  C8  UNL     1      22.389   3.957  49.175  1.00  0.00     0.142 C 
HETATM    5  N4  UNL     1      22.600   5.358  48.966  1.00  0.00    -0.391 N 
HETATM    6  C9  UNL     1      23.739   6.168  49.249  1.00  0.00     0.160 C 
HETATM    7  H7  UNL     1      21.791   5.897  48.533  1.00  0.00     0.159 HD
HETATM    8  C10 UNL     1      25.040   5.504  49.141  1.00  0.00    -0.005 A 
HETATM    9  C11 UNL     1      26.001   6.368  48.654  1.00  0.00     0.035 A 
HETATM   10  C15 UNL     1      25.457   4.209  49.433  1.00  0.00     0.086 A 
HETATM   11  C12 UNL     1      27.337   6.056  48.433  1.00  0.00     0.034 A 
HETATM   12 CL1  UNL     1      28.470   7.220  47.814  1.00  0.00    -0.084 Cl
HETATM   13  C13 UNL     1      27.671   4.747  48.749  1.00  0.00     0.026 A 
HETATM   14  C14 UNL     1      26.761   3.834  49.239  1.00  0.00     0.039 A 
HETATM   15  O1  UNL     1      24.588   3.239  49.930  1.00  0.00    -0.290 OA
ENDBRANCH   2   3
BRANCH   1  16
HETATM   16  N2  UNL     1      22.577   2.129  51.915  1.00  0.00    -0.237 NA
HETATM   17  C5  UNL     1      23.363   1.826  52.862  1.00  0.00     0.208 C 
BRANCH  17  18
HETATM   18  N1  UNL     1      23.971   0.549  52.873  1.00  0.00    -0.351 N 
HETATM   19  H3  UNL     1      23.373  -0.320  52.765  1.00  0.00     0.166 HD
BRANCH  18  20
HETATM   20  C4  UNL     1      25.374   0.399  53.001  1.00  0.00     0.034 A 
HETATM   21  C3  UNL     1      25.933  -0.863  52.868  1.00  0.00     0.032 A 
HETATM   22  C2  UNL     1      27.280  -1.136  52.951  1.00  0.00     0.046 A 
HETATM   23  C1  UNL     1      28.163  -0.110  53.180  1.00  0.00     0.138 A 
HETATM   24  F1  UNL     1      29.491  -0.328  53.270  1.00  0.00    -0.204 F 
HETATM   25  C17 UNL     1      27.674   1.167  53.321  1.00  0.00     0.074 A 
HETATM   26  C16 UNL     1      26.317   1.368  53.227  1.00  0.00     0.056 A 
HETATM   27 CL2  UNL     1      28.731   2.531  53.616  1.00  0.00    -0.081 Cl
ENDBRANCH  18  20
ENDBRANCH  17  18
ENDBRANCH   1  16
TORSDOF 4
ENDMDL
MODEL 3
REMARK VINA RESULT:      -8.2      3.510      6.101
REMARK  4 active torsions:
REMARK  status: ('A' for Active; 'I' for Inactive)
REMARK    1  A    between atoms: C4_5  and  N1_6 
REMARK    2  A    between atoms: N1_6  and  C5_7 
REMARK    3  A    between atoms: N2_8  and  C6_9 
REMARK    4  A    between atoms: N3_10  and  C7_11 
ROOT
HETATM    1  C6  UNL     1      24.793   3.742  51.120  1.00  0.00     0.237 C 
HETATM    2  N3  UNL     1      24.272   3.346  49.984  1.00  0.00    -0.216 NA
ENDROOT
BRANCH   2   3
HETATM    3  C7  UNL     1      23.114   2.554  50.069  1.00  0.00     0.186 C 
HETATM    4  C8  UNL     1      22.136   3.175  49.388  1.00  0.00     0.142 C 
HETATM    5  N4  UNL     1      20.773   2.792  49.169  1.00  0.00    -0.391 N 
HETATM    6  C9  UNL     1      20.090   1.589  49.517  1.00  0.00     0.160 C 
HETATM    7  H7  UNL     1      20.158   3.502  48.670  1.00  0.00     0.159 HD
HETATM    8  C10 UNL     1      20.547   0.924  50.739  1.00  0.00    -0.005 A 
HETATM    9  C11 UNL     1      19.491   0.340  51.413  1.00  0.00     0.035 A 
HETATM   10  C15 UNL     1      21.806   0.783  51.314  1.00  0.00     0.086 A 
HETATM   11  C12 UNL     1      19.580  -0.369  52.605  1.00  0.00     0.034 A 
HETATM   12 CL1  UNL     1      18.186  -1.066  53.374  1.00  0.00    -0.084 Cl
HETATM   13  C13 UNL     1      20.868  -0.463  53.110  1.00  0.00     0.026 A 
HETATM   14  C14 UNL     1      21.965   0.096  52.489  1.00  0.00     0.039 A 
HETATM   15  O1  UNL     1      22.954   1.324  50.738  1.00  0.00    -0.290 OA
ENDBRANCH   2   3
BRANCH   1  16
HETATM   16  N2  UNL     1      24.137   3.333  52.289  1.00  0.00    -0.237 NA
HETATM   17  C5  UNL     1      24.643   2.803  53.323  1.00  0.00     0.208 C 
BRANCH  17  18
HETATM   18  N1  UNL     1      26.038   2.567  53.365  1.00  0.00    -0.351 N 
HETATM   19  H3  UNL     1      26.706   3.378  53.503  1.00  0.00     0.166 HD
BRANCH  18  20
HETATM   20  C4  UNL     1      26.569   1.259  53.251  1.00  0.00     0.034 A 
HETATM   21  C3  UNL     1      25.733   0.223  52.860  1.00  0.00     0.032 A 
HETATM   22  C2  UNL     1      26.131  -1.085  52.693  1.00  0.00     0.046 A 
HETATM   23  C1  UNL     1      27.442  -1.424  52.920  1.00  0.00     0.138 A 
HETATM   24  F1  UNL     1      27.878  -2.692  52.771  1.00  0.00    -0.204 F 
HETATM   25  C17 UNL     1      28.323  -0.445  53.310  1.00  0.00     0.074 A 
HETATM   26  C16 UNL     1      27.858   0.841  53.457  1.00  0.00     0.056 A 
HETATM   27 CL2  UNL     1      30.010  -0.793  53.620  1.00  0.00    -0.081 Cl
ENDBRANCH  18  20
ENDBRANCH  17  18
ENDBRANCH   1  16
TORSDOF 4
ENDMDL
MODEL 4
REMARK VINA RESULT:      -8.1      3.298      5.327
REMARK  4 active torsions:
REMARK  status: ('A' for Active; 'I' for Inactive)
REMARK    1  A    between atoms: C4_5  and  N1_6 
REMARK    2  A    between atoms: N1_6  and  C5_7 
REMARK    3  A    between atoms: N2_8  and  C6_9 
REMARK    4  A    between atoms: N3_10  and  C7_11 
ROOT
HETATM    1  C6  UNL     1      25.090   5.009  50.017  1.00  0.00     0.237 C 
HETATM    2  N3  UNL     1      23.971   4.930  50.696  1.00  0.00    -0.216 NA
ENDROOT
BRANCH   2   3
HETATM    3  C7  UNL     1      23.394   3.654  50.805  1.00  0.00     0.186 C 
HETATM    4  C8  UNL     1      22.198   3.684  50.192  1.00  0.00     0.142 C 
HETATM    5  N4  UNL     1      21.219   2.653  50.022  1.00  0.00    -0.391 N 
HETATM    6  C9  UNL     1      21.276   1.268  50.356  1.00  0.00     0.160 C 
HETATM    7  H7  UNL     1      20.298   2.947  49.577  1.00  0.00     0.159 HD
HETATM    8  C10 UNL     1      22.079   0.925  51.532  1.00  0.00    -0.005 A 
HETATM    9  C11 UNL     1      21.517  -0.125  52.231  1.00  0.00     0.035 A 
HETATM   10  C15 UNL     1      23.262   1.452  52.043  1.00  0.00     0.086 A 
HETATM   11  C12 UNL     1      22.028  -0.694  53.391  1.00  0.00     0.034 A 
HETATM   12 CL1  UNL     1      21.240  -2.017  54.197  1.00  0.00    -0.084 Cl
HETATM   13  C13 UNL     1      23.207  -0.113  53.834  1.00  0.00     0.026 A 
HETATM   14  C14 UNL     1      23.820   0.937  53.184  1.00  0.00     0.039 A 
HETATM   15  O1  UNL     1      23.931   2.513  51.435  1.00  0.00    -0.290 OA
ENDBRANCH   2   3
BRANCH   1  16
HETATM   16  N2  UNL     1      25.584   3.813  49.479  1.00  0.00    -0.237 NA
HETATM   17  C5  UNL     1      26.366   2.977  50.022  1.00  0.00     0.208 C 
BRANCH  17  18
HETATM   18  N1  UNL     1      26.836   3.223  51.334  1.00  0.00    -0.351 N 
HETATM   19  H3  UNL     1      26.797   4.205  51.732  1.00  0.00     0.166 HD
BRANCH  18  20
HETATM   20  C4  UNL     1      27.339   2.177  52.146  1.00  0.00     0.034 A 
HETATM   21  C3  UNL     1      28.234   2.482  53.161  1.00  0.00     0.032 A 
HETATM   22  C2  UNL     1      28.778   1.562  54.029  1.00  0.00     0.046 A 
HETATM   23  C1  UNL     1      28.432   0.239  53.911  1.00  0.00     0.138 A 
HETATM   24  F1  UNL     1      28.940  -0.699  54.738  1.00  0.00    -0.204 F 
HETATM   25  C17 UNL     1      27.549  -0.131  52.926  1.00  0.00     0.074 A 
HETATM   26  C16 UNL     1      27.044   0.840  52.094  1.00  0.00     0.056 A 
HETATM   27 CL2  UNL     1      27.056  -1.797  52.708  1.00  0.00    -0.081 Cl
ENDBRANCH  18  20
ENDBRANCH  17  18
ENDBRANCH   1  16
TORSDOF 4
ENDMDL
MODEL 5
REMARK VINA RESULT:      -8.1      3.701      6.023
REMARK  4 active torsions:
REMARK  status: ('A' for Active; 'I' for Inactive)
REMARK    1  A    between atoms: C4_5  and  N1_6 
REMARK    2  A    between atoms: N1_6  and  C5_7 
REMARK    3  A    between atoms: N2_8  and  C6_9 
REMARK    4  A    between atoms: N3_10  and  C7_11 
ROOT
HETATM    1  C6  UNL     1      23.761   4.389  51.973  1.00  0.00     0.237 C 
HETATM    2  N3  UNL     1      22.595   4.398  52.573  1.00  0.00    -0.216 NA
ENDROOT
BRANCH   2   3
HETATM    3  C7  UNL     1      21.733   3.326  52.283  1.00  0.00     0.186 C 
HETATM    4  C8  UNL     1      20.617   3.828  51.730  1.00  0.00     0.142 C 
HETATM    5  N4  UNL     1      19.438   3.165  51.259  1.00  0.00    -0.391 N 
HETATM    6  C9  UNL     1      19.154   1.772  51.140  1.00  0.00     0.160 C 
HETATM    7  H7  UNL     1      18.638   3.792  50.944  1.00  0.00     0.159 HD
HETATM    8  C10 UNL     1      19.784   0.902  52.135  1.00  0.00    -0.005 A 
HETATM    9  C11 UNL     1      18.954  -0.148  52.477  1.00  0.00     0.035 A 
HETATM   10  C15 UNL     1      21.023   0.948  52.768  1.00  0.00     0.086 A 
HETATM   11  C12 UNL     1      19.248  -1.152  53.391  1.00  0.00     0.034 A 
HETATM   12 CL1  UNL     1      18.130  -2.432  53.752  1.00  0.00    -0.084 Cl
HETATM   13  C13 UNL     1      20.500  -1.034  53.976  1.00  0.00     0.026 A 
HETATM   14  C14 UNL     1      21.377  -0.012  53.680  1.00  0.00     0.039 A 
HETATM   15  O1  UNL     1      21.954   1.953  52.514  1.00  0.00    -0.290 OA
ENDBRANCH   2   3
BRANCH   1  16
HETATM   16  N2  UNL     1      24.016   3.312  51.112  1.00  0.00    -0.237 NA
HETATM   17  C5  UNL     1      25.059   2.595  51.048  1.00  0.00     0.208 C 
BRANCH  17  18
HETATM   18  N1  UNL     1      26.135   2.863  51.927  1.00  0.00    -0.351 N 
HETATM   19  H3  UNL     1      26.336   3.859  52.227  1.00  0.00     0.166 HD
BRANCH  18  20
HETATM   20  C4  UNL     1      26.945   1.820  52.441  1.00  0.00     0.034 A 
HETATM   21  C3  UNL     1      28.068   2.144  53.187  1.00  0.00     0.032 A 
HETATM   22  C2  UNL     1      28.922   1.227  53.757  1.00  0.00     0.046 A 
HETATM   23  C1  UNL     1      28.675  -0.115  53.595  1.00  0.00     0.138 A 
HETATM   24  F1  UNL     1      29.484  -1.051  54.134  1.00  0.00    -0.204 F 
HETATM   25  C17 UNL     1      27.578  -0.504  52.866  1.00  0.00     0.074 A 
HETATM   26  C16 UNL     1      26.767   0.466  52.325  1.00  0.00     0.056 A 
HETATM   27 CL2  UNL     1      27.192  -2.193  52.612  1.00  0.00    -0.081 Cl
ENDBRANCH  18  20
ENDBRANCH  17  18
ENDBRANCH   1  16
TORSDOF 4
ENDMDL
MODEL 6
REMARK VINA RESULT:      -7.9      4.042      6.646
REMARK  4 active torsions:
REMARK  status: ('A' for Active; 'I' for Inactive)
REMARK    1  A    between atoms: C4_5  and  N1_6 
REMARK    2  A    between atoms: N1_6  and  C5_7 
REMARK    3  A    between atoms: N2_8  and  C6_9 
REMARK    4  A    between atoms: N3_10  and  C7_11 
ROOT
HETATM    1  C6  UNL     1      22.000   4.440  50.639  1.00  0.00     0.237 C 
HETATM    2  N3  UNL     1      22.924   4.864  51.466  1.00  0.00    -0.216 NA
ENDROOT
BRANCH   2   3
HETATM    3  C7  UNL     1      23.998   3.989  51.706  1.00  0.00     0.186 C 
HETATM    4  C8  UNL     1      24.977   4.284  50.834  1.00  0.00     0.142 C 
HETATM    5  N4  UNL     1      26.270   3.694  50.660  1.00  0.00    -0.391 N 
HETATM    6  C9  UNL     1      26.936   2.696  51.432  1.00  0.00     0.160 C 
HETATM    7  H7  UNL     1      26.838   4.040  49.830  1.00  0.00     0.159 HD
HETATM    8  C10 UNL     1      26.074   1.697  52.067  1.00  0.00    -0.005 A 
HETATM    9  C11 UNL     1      26.682   0.456  52.087  1.00  0.00     0.035 A 
HETATM   10  C15 UNL     1      24.804   1.777  52.630  1.00  0.00     0.086 A 
HETATM   11  C12 UNL     1      26.136  -0.707  52.618  1.00  0.00     0.034 A 
HETATM   12 CL1  UNL     1      26.986  -2.223  52.592  1.00  0.00    -0.084 Cl
HETATM   13  C13 UNL     1      24.870  -0.541  53.159  1.00  0.00     0.026 A 
HETATM   14  C14 UNL     1      24.208   0.668  53.172  1.00  0.00     0.039 A 
HETATM   15  O1  UNL     1      24.082   2.968  52.674  1.00  0.00    -0.290 OA
ENDBRANCH   2   3
BRANCH   1  16
HETATM   16  N2  UNL     1      22.186   3.164  50.087  1.00  0.00    -0.237 NA
HETATM   17  C5  UNL     1      21.472   2.131  50.253  1.00  0.00     0.208 C 
BRANCH  17  18
HETATM   18  N1  UNL     1      20.332   2.207  51.087  1.00  0.00    -0.351 N 
HETATM   19  H3  UNL     1      19.772   3.105  51.135  1.00  0.00     0.166 HD
BRANCH  18  20
HETATM   20  C4  UNL     1      19.900   1.094  51.850  1.00  0.00     0.034 A 
HETATM   21  C3  UNL     1      18.614   0.607  51.665  1.00  0.00     0.032 A 
HETATM   22  C2  UNL     1      18.083  -0.477  52.328  1.00  0.00     0.046 A 
HETATM   23  C1  UNL     1      18.853  -1.149  53.245  1.00  0.00     0.138 A 
HETATM   24  F1  UNL     1      18.376  -2.215  53.920  1.00  0.00    -0.204 F 
HETATM   25  C17 UNL     1      20.137  -0.718  53.476  1.00  0.00     0.074 A 
HETATM   26  C16 UNL     1      20.603   0.372  52.779  1.00  0.00     0.056 A 
HETATM   27 CL2  UNL     1      21.184  -1.517  54.629  1.00  0.00    -0.081 Cl
ENDBRANCH  18  20
ENDBRANCH  17  18
ENDBRANCH   1  16
TORSDOF 4
ENDMDL
MODEL 7
REMARK VINA RESULT:      -7.9      2.525      6.858
REMARK  4 active torsions:
REMARK  status: ('A' for Active; 'I' for Inactive)
REMARK    1  A    between atoms: C4_5  and  N1_6 
REMARK    2  A    between atoms: N1_6  and  C5_7 
REMARK    3  A    between atoms: N2_8  and  C6_9 
REMARK    4  A    between atoms: N3_10  and  C7_11 
ROOT
HETATM    1  C6  UNL     1      23.157   2.733  50.555  1.00  0.00     0.237 C 
HETATM    2  N3  UNL     1      23.483   3.080  49.333  1.00  0.00    -0.216 NA
ENDROOT
BRANCH   2   3
HETATM    3  C7  UNL     1      24.273   4.235  49.200  1.00  0.00     0.186 C 
HETATM    4  C8  UNL     1      23.490   5.224  48.738  1.00  0.00     0.142 C 
HETATM    5  N4  UNL     1      23.804   6.587  48.432  1.00  0.00    -0.391 N 
HETATM    6  C9  UNL     1      25.012   7.319  48.634  1.00  0.00     0.160 C 
HETATM    7  H7  UNL     1      23.028   7.161  47.984  1.00  0.00     0.159 HD
HETATM    8  C10 UNL     1      26.252   6.546  48.538  1.00  0.00    -0.005 A 
HETATM    9  C11 UNL     1      27.265   7.297  47.972  1.00  0.00     0.035 A 
HETATM   10  C15 UNL     1      26.574   5.243  48.905  1.00  0.00     0.086 A 
HETATM   11  C12 UNL     1      28.565   6.863  47.740  1.00  0.00     0.034 A 
HETATM   12 CL1  UNL     1      29.767   7.890  47.018  1.00  0.00    -0.084 Cl
HETATM   13  C13 UNL     1      28.803   5.555  48.133  1.00  0.00     0.026 A 
HETATM   14  C14 UNL     1      27.838   4.752  48.704  1.00  0.00     0.039 A 
HETATM   15  O1  UNL     1      25.646   4.380  49.485  1.00  0.00    -0.290 OA
ENDBRANCH   2   3
BRANCH   1  16
HETATM   16  N2  UNL     1      23.634   3.551  51.589  1.00  0.00    -0.237 NA
HETATM   17  C5  UNL     1      24.111   3.195  52.708  1.00  0.00     0.208 C 
BRANCH  17  18
HETATM   18  N1  UNL     1      24.201   1.817  53.013  1.00  0.00    -0.351 N 
HETATM   19  H3  UNL     1      23.317   1.254  53.174  1.00  0.00     0.166 HD
BRANCH  18  20
HETATM   20  C4  UNL     1      25.452   1.156  53.085  1.00  0.00     0.034 A 
HETATM   21  C3  UNL     1      26.565   1.864  53.515  1.00  0.00     0.032 A 
HETATM   22  C2  UNL     1      27.828   1.333  53.648  1.00  0.00     0.046 A 
HETATM   23  C1  UNL     1      28.039   0.011  53.341  1.00  0.00     0.138 A 
HETATM   24  F1  UNL     1      29.260  -0.553  53.455  1.00  0.00    -0.204 F 
HETATM   25  C17 UNL     1      26.978  -0.747  52.908  1.00  0.00     0.074 A 
HETATM   26  C16 UNL     1      25.743  -0.153  52.799  1.00  0.00     0.056 A 
HETATM   27 CL2  UNL     1      27.162  -2.439  52.496  1.00  0.00    -0.081 Cl
ENDBRANCH  18  20
ENDBRANCH  17  18
ENDBRANCH   1  16
TORSDOF 4
ENDMDL
MODEL 8
REMARK VINA RESULT:      -7.7      3.136      6.818
REMARK  4 active torsions:
REMARK  status: ('A' for Active; 'I' for Inactive)
REMARK    1  A    between atoms: C4_5  and  N1_6 
REMARK    2  A    between atoms: N1_6  and  C5_7 
REMARK    3  A    between atoms: N2_8  and  C6_9 
REMARK    4  A    between atoms: N3_10  and  C7_11 
ROOT
HETATM    1  C6  UNL     1      21.274   4.622  51.538  1.00  0.00     0.237 C 
HETATM    2  N3  UNL     1      22.355   5.327  51.769  1.00  0.00    -0.216 NA
ENDROOT
BRANCH   2   3
HETATM    3  C7  UNL     1      23.513   4.944  51.070  1.00  0.00     0.186 C 
HETATM    4  C8  UNL     1      24.157   4.023  51.807  1.00  0.00     0.142 C 
HETATM    5  N4  UNL     1      25.377   3.320  51.548  1.00  0.00    -0.391 N 
HETATM    6  C9  UNL     1      26.204   3.312  50.386  1.00  0.00     0.160 C 
HETATM    7  H7  UNL     1      25.740   2.702  52.334  1.00  0.00     0.159 HD
HETATM    8  C10 UNL     1      26.239   4.557  49.616  1.00  0.00    -0.005 A 
HETATM    9  C11 UNL     1      27.494   4.777  49.081  1.00  0.00     0.035 A 
HETATM   10  C15 UNL     1      25.268   5.514  49.341  1.00  0.00     0.086 A 
HETATM   11  C12 UNL     1      27.863   5.865  48.298  1.00  0.00     0.034 A 
HETATM   12 CL1  UNL     1      29.474   6.049  47.672  1.00  0.00    -0.084 Cl
HETATM   13  C13 UNL     1      26.839   6.771  48.071  1.00  0.00     0.026 A 
HETATM   14  C14 UNL     1      25.565   6.611  48.575  1.00  0.00     0.039 A 
HETATM   15  O1  UNL     1      23.963   5.413  49.820  1.00  0.00    -0.290 OA
ENDBRANCH   2   3
BRANCH   1  16
HETATM   16  N2  UNL     1      21.394   3.568  50.621  1.00  0.00    -0.237 NA
HETATM   17  C5  UNL     1      21.119   2.344  50.799  1.00  0.00     0.208 C 
BRANCH  17  18
HETATM   18  N1  UNL     1      20.626   1.924  52.057  1.00  0.00    -0.351 N 
HETATM   19  H3  UNL     1      19.682   2.268  52.395  1.00  0.00     0.166 HD
BRANCH  18  20
HETATM   20  C4  UNL     1      21.357   1.027  52.874  1.00  0.00     0.034 A 
HETATM   21  C3  UNL     1      20.726   0.435  53.959  1.00  0.00     0.032 A 
HETATM   22  C2  UNL     1      21.320  -0.465  54.815  1.00  0.00     0.046 A 
HETATM   23  C1  UNL     1      22.629  -0.827  54.611  1.00  0.00     0.138 A 
HETATM   24  F1  UNL     1      23.253  -1.705  55.423  1.00  0.00    -0.204 F 
HETATM   25  C17 UNL     1      23.312  -0.276  53.553  1.00  0.00     0.074 A 
HETATM   26  C16 UNL     1      22.658   0.617  52.738  1.00  0.00     0.056 A 
HETATM   27 CL2  UNL     1      24.983  -0.683  53.223  1.00  0.00    -0.081 Cl
ENDBRANCH  18  20
ENDBRANCH  17  18
ENDBRANCH   1  16
TORSDOF 4
ENDMDL
MODEL 9
REMARK VINA RESULT:      -7.5      4.052      6.501
REMARK  4 active torsions:
REMARK  status: ('A' for Active; 'I' for Inactive)
REMARK    1  A    between atoms: C4_5  and  N1_6 
REMARK    2  A    between atoms: N1_6  and  C5_7 
REMARK    3  A    between atoms: N2_8  and  C6_9 
REMARK    4  A    between atoms: N3_10  and  C7_11 
ROOT
HETATM    1  C6  UNL     1      23.905   2.504  51.081  1.00  0.00     0.237 C 
HETATM    2  N3  UNL     1      23.017   1.743  50.489  1.00  0.00    -0.216 NA
ENDROOT
BRANCH   2   3
HETATM    3  C7  UNL     1      22.028   1.180  51.314  1.00  0.00     0.186 C 
HETATM    4  C8  UNL     1      22.603   0.218  52.055  1.00  0.00     0.142 C 
HETATM    5  N4  UNL     1      22.039  -0.652  53.042  1.00  0.00    -0.391 N 
HETATM    6  C9  UNL     1      20.728  -0.675  53.605  1.00  0.00     0.160 C 
HETATM    7  H7  UNL     1      22.682  -1.406  53.430  1.00  0.00     0.159 HD
HETATM    8  C10 UNL     1      19.643  -0.248  52.719  1.00  0.00    -0.005 A 
HETATM    9  C11 UNL     1      18.492  -0.975  52.954  1.00  0.00     0.035 A 
HETATM   10  C15 UNL     1      19.574   0.723  51.724  1.00  0.00     0.086 A 
HETATM   11  C12 UNL     1      17.283  -0.820  52.288  1.00  0.00     0.034 A 
HETATM   12 CL1  UNL     1      15.890  -1.789  52.661  1.00  0.00    -0.084 Cl
HETATM   13  C13 UNL     1      17.298   0.167  51.313  1.00  0.00     0.026 A 
HETATM   14  C14 UNL     1      18.412   0.928  51.028  1.00  0.00     0.039 A 
HETATM   15  O1  UNL     1      20.663   1.525  51.387  1.00  0.00    -0.290 OA
ENDBRANCH   2   3
BRANCH   1  16
HETATM   16  N2  UNL     1      23.770   2.670  52.466  1.00  0.00    -0.237 NA
HETATM   17  C5  UNL     1      24.687   2.825  53.327  1.00  0.00     0.208 C 
BRANCH  17  18
HETATM   18  N1  UNL     1      26.036   2.842  52.902  1.00  0.00    -0.351 N 
HETATM   19  H3  UNL     1      26.448   3.726  52.489  1.00  0.00     0.166 HD
BRANCH  18  20
HETATM   20  C4  UNL     1      26.867   1.702  53.037  1.00  0.00     0.034 A 
HETATM   21  C3  UNL     1      28.126   1.847  53.601  1.00  0.00     0.032 A 
HETATM   22  C2  UNL     1      29.017   0.818  53.805  1.00  0.00     0.046 A 
HETATM   23  C1  UNL     1      28.668  -0.459  53.436  1.00  0.00     0.138 A 
HETATM   24  F1  UNL     1      29.507  -1.499  53.616  1.00  0.00    -0.204 F 
HETATM   25  C17 UNL     1      27.434  -0.672  52.871  1.00  0.00     0.074 A 
HETATM   26  C16 UNL     1      26.593   0.402  52.696  1.00  0.00     0.056 A 
HETATM   27 CL2  UNL     1      26.911  -2.267  52.373  1.00  0.00    -0.081 Cl
ENDBRANCH  18  20
ENDBRANCH  17  18
ENDBRANCH   1  16
TORSDOF 4
ENDMDL
