MODEL 1
REMARK VINA RESULT:      -8.8      0.000      0.000
REMARK  4 active torsions:
REMARK  status: ('A' for Active; 'I' for Inactive)
REMARK    1  A    between atoms: C3_3  and  O1_4 
REMARK    2  A    between atoms: C5_6  and  N1_7 
REMARK    3  A    between atoms: N1_7  and  C6_8 
REMARK    4  A    between atoms: C7_10  and  C8_11 
ROOT
HETATM    1  C8  UNL     1      24.409   3.653  51.387  1.00  0.00     0.033 C 
HETATM    2  C9  UNL     1      24.926   4.080  50.221  1.00  0.00     0.064 C 
HETATM    3  C10 UNL     1      26.299   3.746  49.794  1.00  0.00     0.210 C 
HETATM    4  N2  UNL     1      27.198   4.852  49.585  1.00  0.00    -0.297 N 
HETATM    5  O2  UNL     1      26.910   5.669  48.613  1.00  0.00    -0.285 OA
HETATM    6  C11 UNL     1      27.370   6.949  48.669  1.00  0.00     0.201 C 
HETATM    7  C12 UNL     1      26.242   7.952  48.390  1.00  0.00     0.029 C 
HETATM    8  C13 UNL     1      25.570   7.716  47.065  1.00  0.00     0.004 C 
HETATM    9  C14 UNL     1      24.379   8.543  46.791  1.00  0.00     0.026 C 
HETATM   10  C15 UNL     1      23.312   8.684  47.807  1.00  0.00     0.167 C 
HETATM   11  O3  UNL     1      22.574   7.810  48.400  1.00  0.00    -0.389 OA
HETATM   12  C16 UNL     1      22.775   6.815  49.246  1.00  0.00     0.199 C 
HETATM   13  C17 UNL     1      23.478   5.562  48.892  1.00  0.00     0.148 C 
HETATM   14  C18 UNL     1      22.673   4.781  47.825  1.00  0.00     0.042 C 
HETATM   15  O4  UNL     1      23.695   4.706  50.015  1.00  0.00    -0.347 OA
HETATM   16  H10 UNL     1      27.634   5.234  50.433  1.00  0.00     0.188 HD
ENDROOT
BRANCH   1  17
HETATM   17  C7  UNL     1      24.952   2.824  52.484  1.00  0.00     0.158 A 
HETATM   18  C6  UNL     1      25.383   2.040  53.462  1.00  0.00     0.087 A 
HETATM   19 CL1  UNL     1      23.864   1.286  53.041  1.00  0.00    -0.153 Cl
BRANCH  18  20
HETATM   20  N1  UNL     1      26.318   1.660  54.449  1.00  0.00    -0.347 N 
HETATM   21  H5  UNL     1      26.438   2.185  55.321  1.00  0.00     0.167 HD
BRANCH  20  22
HETATM   22  C5  UNL     1      26.952   0.501  53.949  1.00  0.00     0.075 A 
HETATM   23  C4  UNL     1      26.424  -0.691  53.257  1.00  0.00     0.070 A 
HETATM   24  C3  UNL     1      27.437  -1.524  52.983  1.00  0.00     0.080 A 
HETATM   25  C2  UNL     1      28.670  -0.938  53.470  1.00  0.00     0.029 A 
HETATM   26  C1  UNL     1      29.874  -1.465  53.381  1.00  0.00     0.029 C 
HETATM   27  C19 UNL     1      28.278   0.320  54.057  1.00  0.00     0.155 A 
HETATM   28  F1  UNL     1      29.204   1.158  54.628  1.00  0.00    -0.203 F 
BRANCH  24  29
HETATM   29  O1  UNL     1      27.243  -2.736  52.331  1.00  0.00    -0.360 OA
HETATM   30  H3  UNL     1      27.988  -3.180  51.810  1.00  0.00     0.217 HD
ENDBRANCH  24  29
ENDBRANCH  20  22
ENDBRANCH  18  20
ENDBRANCH   1  17
TORSDOF 4
ENDMDL
MODEL 2
REMARK VINA RESULT:      -8.8      5.321      7.109
REMARK  4 active torsions:
REMARK  status: ('A' for Active; 'I' for Inactive)
REMARK    1  A    between atoms: C3_3  and  O1_4 
REMARK    2  A    between atoms: C5_6  and  N1_7 
REMARK    3  A    between atoms: N1_7  and  C6_8 
REMARK    4  A    between atoms: C7_10  and  C8_11 
ROOT
HETATM    1  C8  UNL     1      22.491   0.919  52.331  1.00  0.00     0.033 C 
HETATM    2  C9  UNL     1      21.234   0.944  52.808  1.00  0.00     0.064 C 
HETATM    3  C10 UNL     1      20.864   0.328  54.098  1.00  0.00     0.210 C 
HETATM    4  N2  UNL     1      19.889  -0.730  54.054  1.00  0.00    -0.297 N 
HETATM    5  O2  UNL     1      18.688  -0.406  53.668  1.00  0.00    -0.285 OA
HETATM    6  C11 UNL     1      17.890  -1.365  53.122  1.00  0.00     0.201 C 
HETATM    7  C12 UNL     1      17.264  -0.877  51.807  1.00  0.00     0.029 C 
HETATM    8  C13 UNL     1      16.480   0.395  51.975  1.00  0.00     0.004 C 
HETATM    9  C14 UNL     1      15.974   1.008  50.731  1.00  0.00     0.026 C 
HETATM   10  C15 UNL     1      16.869   1.192  49.566  1.00  0.00     0.167 C 
HETATM   11  O3  UNL     1      17.980   1.829  49.432  1.00  0.00    -0.389 OA
HETATM   12  C16 UNL     1      19.204   1.716  49.921  1.00  0.00     0.199 C 
HETATM   13  C17 UNL     1      19.554   1.975  51.335  1.00  0.00     0.148 C 
HETATM   14  C18 UNL     1      19.320   3.467  51.678  1.00  0.00     0.042 C 
HETATM   15  O4  UNL     1      20.908   1.645  51.645  1.00  0.00    -0.347 OA
HETATM   16  H10 UNL     1      20.251  -1.657  53.800  1.00  0.00     0.188 HD
ENDROOT
BRANCH   1  17
HETATM   17  C7  UNL     1      23.753   0.354  52.852  1.00  0.00     0.158 A 
HETATM   18  C6  UNL     1      24.920  -0.118  53.270  1.00  0.00     0.087 A 
HETATM   19 CL1  UNL     1      25.399   0.872  51.912  1.00  0.00    -0.153 Cl
BRANCH  18  20
HETATM   20  N1  UNL     1      25.728  -0.890  54.133  1.00  0.00    -0.347 N 
HETATM   21  H5  UNL     1      25.368  -1.711  54.631  1.00  0.00     0.167 HD
BRANCH  20  22
HETATM   22  C5  UNL     1      27.002  -0.281  54.111  1.00  0.00     0.075 A 
HETATM   23  C4  UNL     1      27.475   1.031  54.595  1.00  0.00     0.070 A 
HETATM   24  C3  UNL     1      28.786   1.146  54.340  1.00  0.00     0.080 A 
HETATM   25  C2  UNL     1      29.243  -0.064  53.685  1.00  0.00     0.029 A 
HETATM   26  C1  UNL     1      30.472  -0.318  53.282  1.00  0.00     0.029 C 
HETATM   27  C19 UNL     1      28.071  -0.898  53.582  1.00  0.00     0.155 A 
HETATM   28  F1  UNL     1      28.131  -2.142  53.004  1.00  0.00    -0.203 F 
BRANCH  24  29
HETATM   29  O1  UNL     1      29.511   2.281  54.684  1.00  0.00    -0.360 OA
HETATM   30  H3  UNL     1      30.467   2.218  55.007  1.00  0.00     0.217 HD
ENDBRANCH  24  29
ENDBRANCH  20  22
ENDBRANCH  18  20
ENDBRANCH   1  17
TORSDOF 4
ENDMDL
MODEL 3
REMARK VINA RESULT:      -8.8      2.715      3.430
REMARK  4 active torsions:
REMARK  status: ('A' for Active; 'I' for Inactive)
REMARK    1  A    between atoms: C3_3  and  O1_4 
REMARK    2  A    between atoms: C5_6  and  N1_7 
REMARK    3  A    between atoms: N1_7  and  C6_8 
REMARK    4  A    between atoms: C7_10  and  C8_11 
ROOT
HETATM    1  C8  UNL     1      25.789   5.204  49.715  1.00  0.00     0.033 C 
HETATM    2  C9  UNL     1      26.663   5.800  48.883  1.00  0.00     0.064 C 
HETATM    3  C10 UNL     1      27.945   5.175  48.502  1.00  0.00     0.210 C 
HETATM    4  N2  UNL     1      29.142   5.892  48.855  1.00  0.00    -0.297 N 
HETATM    5  O2  UNL     1      29.332   7.042  48.273  1.00  0.00    -0.285 OA
HETATM    6  C11 UNL     1      30.110   7.973  48.891  1.00  0.00     0.201 C 
HETATM    7  C12 UNL     1      29.410   9.339  48.928  1.00  0.00     0.029 C 
HETATM    8  C13 UNL     1      29.027   9.831  47.559  1.00  0.00     0.004 C 
HETATM    9  C14 UNL     1      28.217  11.064  47.523  1.00  0.00     0.026 C 
HETATM   10  C15 UNL     1      27.027  11.208  48.392  1.00  0.00     0.167 C 
HETATM   11  O3  UNL     1      25.955  10.503  48.500  1.00  0.00    -0.389 OA
HETATM   12  C16 UNL     1      25.663   9.272  48.885  1.00  0.00     0.199 C 
HETATM   13  C17 UNL     1      26.045   8.059  48.129  1.00  0.00     0.148 C 
HETATM   14  C18 UNL     1      25.322   8.036  46.758  1.00  0.00     0.042 C 
HETATM   15  O4  UNL     1      25.742   6.849  48.822  1.00  0.00    -0.347 OA
HETATM   16  H10 UNL     1      29.460   5.776  49.825  1.00  0.00     0.188 HD
ENDROOT
BRANCH   1  17
HETATM   17  C7  UNL     1      25.804   3.912  50.431  1.00  0.00     0.158 A 
HETATM   18  C6  UNL     1      25.852   2.725  51.021  1.00  0.00     0.087 A 
HETATM   19 CL1  UNL     1      26.681   2.412  49.516  1.00  0.00    -0.153 Cl
BRANCH  18  20
HETATM   20  N1  UNL     1      25.581   1.837  52.085  1.00  0.00    -0.347 N 
HETATM   21  H5  UNL     1      24.637   1.483  52.275  1.00  0.00     0.167 HD
BRANCH  20  22
HETATM   22  C5  UNL     1      26.821   1.614  52.722  1.00  0.00     0.075 A 
HETATM   23  C4  UNL     1      27.693   2.500  53.518  1.00  0.00     0.070 A 
HETATM   24  C3  UNL     1      28.776   1.813  53.910  1.00  0.00     0.080 A 
HETATM   25  C2  UNL     1      28.679   0.458  53.403  1.00  0.00     0.029 A 
HETATM   26  C1  UNL     1      29.556  -0.508  53.585  1.00  0.00     0.029 C 
HETATM   27  C19 UNL     1      27.434   0.420  52.676  1.00  0.00     0.155 A 
HETATM   28  F1  UNL     1      27.010  -0.726  52.051  1.00  0.00    -0.203 F 
BRANCH  24  29
HETATM   29  O1  UNL     1      29.780   2.390  54.678  1.00  0.00    -0.360 OA
HETATM   30  H3  UNL     1      29.603   3.199  55.257  1.00  0.00     0.217 HD
ENDBRANCH  24  29
ENDBRANCH  20  22
ENDBRANCH  18  20
ENDBRANCH   1  17
TORSDOF 4
ENDMDL
MODEL 4
REMARK VINA RESULT:      -8.6      2.212      2.504
REMARK  4 active torsions:
REMARK  status: ('A' for Active; 'I' for Inactive)
REMARK    1  A    between atoms: C3_3  and  O1_4 
REMARK    2  A    between atoms: C5_6  and  N1_7 
REMARK    3  A    between atoms: N1_7  and  C6_8 
REMARK    4  A    between atoms: C7_10  and  C8_11 
ROOT
HETATM    1  C8  UNL     1      23.218   2.402  51.164  1.00  0.00     0.033 C 
HETATM    2  C9  UNL     1      23.682   3.404  50.396  1.00  0.00     0.064 C 
HETATM    3  C10 UNL     1      25.120   3.589  50.120  1.00  0.00     0.210 C 
HETATM    4  N2  UNL     1      25.707   4.829  50.556  1.00  0.00    -0.297 N 
HETATM    5  O2  UNL     1      25.280   5.916  49.981  1.00  0.00    -0.285 OA
HETATM    6  C11 UNL     1      25.381   7.099  50.647  1.00  0.00     0.201 C 
HETATM    7  C12 UNL     1      24.050   7.863  50.617  1.00  0.00     0.029 C 
HETATM    8  C13 UNL     1      23.556   8.114  49.219  1.00  0.00     0.004 C 
HETATM    9  C14 UNL     1      22.211   8.710  49.109  1.00  0.00     0.026 C 
HETATM   10  C15 UNL     1      21.078   8.156  49.883  1.00  0.00     0.167 C 
HETATM   11  O3  UNL     1      20.557   6.978  49.914  1.00  0.00    -0.389 OA
HETATM   12  C16 UNL     1      20.956   5.774  50.288  1.00  0.00     0.199 C 
HETATM   13  C17 UNL     1      21.988   4.989  49.575  1.00  0.00     0.148 C 
HETATM   14  C18 UNL     1      21.492   4.623  48.153  1.00  0.00     0.042 C 
HETATM   15  O4  UNL     1      22.346   3.786  50.255  1.00  0.00    -0.347 OA
HETATM   16  H10 UNL     1      25.968   4.871  51.549  1.00  0.00     0.188 HD
ENDROOT
BRANCH   1  17
HETATM   17  C7  UNL     1      23.884   1.301  51.892  1.00  0.00     0.158 A 
HETATM   18  C6  UNL     1      24.437   0.323  52.596  1.00  0.00     0.087 A 
HETATM   19 CL1  UNL     1      23.186   0.883  53.679  1.00  0.00    -0.153 Cl
BRANCH  18  20
HETATM   20  N1  UNL     1      25.375  -0.714  52.786  1.00  0.00    -0.347 N 
HETATM   21  H5  UNL     1      25.131  -1.703  52.664  1.00  0.00     0.167 HD
BRANCH  20  22
HETATM   22  C5  UNL     1      26.582  -0.077  53.147  1.00  0.00     0.075 A 
HETATM   23  C4  UNL     1      26.877   1.303  53.581  1.00  0.00     0.070 A 
HETATM   24  C3  UNL     1      28.192   1.420  53.810  1.00  0.00     0.080 A 
HETATM   25  C2  UNL     1      28.829   0.145  53.544  1.00  0.00     0.029 A 
HETATM   26  C1  UNL     1      30.113  -0.126  53.659  1.00  0.00     0.029 C 
HETATM   27  C19 UNL     1      27.756  -0.729  53.138  1.00  0.00     0.155 A 
HETATM   28  F1  UNL     1      27.994  -2.040  52.802  1.00  0.00    -0.203 F 
BRANCH  24  29
HETATM   29  O1  UNL     1      28.767   2.613  54.232  1.00  0.00    -0.360 OA
HETATM   30  H3  UNL     1      28.204   3.428  54.432  1.00  0.00     0.217 HD
ENDBRANCH  24  29
ENDBRANCH  20  22
ENDBRANCH  18  20
ENDBRANCH   1  17
TORSDOF 4
ENDMDL
MODEL 5
REMARK VINA RESULT:      -8.2      3.522      8.628
REMARK  4 active torsions:
REMARK  status: ('A' for Active; 'I' for Inactive)
REMARK    1  A    between atoms: C3_3  and  O1_4 
REMARK    2  A    between atoms: C5_6  and  N1_7 
REMARK    3  A    between atoms: N1_7  and  C6_8 
REMARK    4  A    between atoms: C7_10  and  C8_11 
ROOT
HETATM    1  C8  UNL     1      23.543   1.010  52.092  1.00  0.00     0.033 C 
HETATM    2  C9  UNL     1      24.511   1.183  53.010  1.00  0.00     0.064 C 
HETATM    3  C10 UNL     1      24.800   2.498  53.617  1.00  0.00     0.210 C 
HETATM    4  N2  UNL     1      26.122   3.029  53.408  1.00  0.00    -0.297 N 
HETATM    5  O2  UNL     1      27.110   2.372  53.943  1.00  0.00    -0.285 OA
HETATM    6  C11 UNL     1      28.352   2.488  53.397  1.00  0.00     0.201 C 
HETATM    7  C12 UNL     1      28.987   1.108  53.175  1.00  0.00     0.029 C 
HETATM    8  C13 UNL     1      29.067   0.296  54.439  1.00  0.00     0.004 C 
HETATM    9  C14 UNL     1      29.527  -1.097  54.280  1.00  0.00     0.026 C 
HETATM   10  C15 UNL     1      28.944  -1.967  53.235  1.00  0.00     0.167 C 
HETATM   11  O3  UNL     1      27.731  -2.337  53.008  1.00  0.00    -0.389 OA
HETATM   12  C16 UNL     1      26.606  -1.739  52.655  1.00  0.00     0.199 C 
HETATM   13  C17 UNL     1      25.857  -0.810  53.530  1.00  0.00     0.148 C 
HETATM   14  C18 UNL     1      25.323  -1.562  54.774  1.00  0.00     0.042 C 
HETATM   15  O4  UNL     1      24.756  -0.184  52.870  1.00  0.00    -0.347 OA
HETATM   16  H10 UNL     1      26.275   3.494  52.506  1.00  0.00     0.188 HD
ENDROOT
BRANCH   1  17
HETATM   17  C7  UNL     1      22.576   1.933  51.463  1.00  0.00     0.158 A 
HETATM   18  C6  UNL     1      21.706   2.719  50.844  1.00  0.00     0.087 A 
HETATM   19 CL1  UNL     1      21.926   1.439  49.676  1.00  0.00    -0.153 Cl
BRANCH  18  20
HETATM   20  N1  UNL     1      20.887   3.866  50.759  1.00  0.00    -0.347 N 
HETATM   21  H5  UNL     1      19.868   3.805  50.656  1.00  0.00     0.167 HD
BRANCH  20  22
HETATM   22  C5  UNL     1      21.763   4.970  50.842  1.00  0.00     0.075 A 
HETATM   23  C4  UNL     1      22.931   5.238  51.706  1.00  0.00     0.070 A 
HETATM   24  C3  UNL     1      23.435   6.441  51.401  1.00  0.00     0.080 A 
HETATM   25  C2  UNL     1      22.643   7.025  50.336  1.00  0.00     0.029 A 
HETATM   26  C1  UNL     1      22.836   8.200  49.772  1.00  0.00     0.029 C 
HETATM   27  C19 UNL     1      21.625   6.044  50.049  1.00  0.00     0.155 A 
HETATM   28  F1  UNL     1      20.679   6.263  49.078  1.00  0.00    -0.203 F 
BRANCH  24  29
HETATM   29  O1  UNL     1      24.545   6.966  52.052  1.00  0.00    -0.360 OA
HETATM   30  H3  UNL     1      25.476   6.870  51.670  1.00  0.00     0.217 HD
ENDBRANCH  24  29
ENDBRANCH  20  22
ENDBRANCH  18  20
ENDBRANCH   1  17
TORSDOF 4
ENDMDL
MODEL 6
REMARK VINA RESULT:      -8.2      2.679      4.298
REMARK  4 active torsions:
REMARK  status: ('A' for Active; 'I' for Inactive)
REMARK    1  A    between atoms: C3_3  and  O1_4 
REMARK    2  A    between atoms: C5_6  and  N1_7 
REMARK    3  A    between atoms: N1_7  and  C6_8 
REMARK    4  A    between atoms: C7_10  and  C8_11 
ROOT
HETATM    1  C8  UNL     1      24.271   2.825  50.767  1.00  0.00     0.033 C 
HETATM    2  C9  UNL     1      23.215   3.659  50.736  1.00  0.00     0.064 C 
HETATM    3  C10 UNL     1      22.632   4.242  51.960  1.00  0.00     0.210 C 
HETATM    4  N2  UNL     1      21.255   3.923  52.234  1.00  0.00    -0.297 N 
HETATM    5  O2  UNL     1      20.369   4.371  51.391  1.00  0.00    -0.285 OA
HETATM    6  C11 UNL     1      19.177   3.722  51.279  1.00  0.00     0.201 C 
HETATM    7  C12 UNL     1      18.838   3.444  49.808  1.00  0.00     0.029 C 
HETATM    8  C13 UNL     1      18.810   4.694  48.973  1.00  0.00     0.004 C 
HETATM    9  C14 UNL     1      18.639   4.494  47.521  1.00  0.00     0.026 C 
HETATM   10  C15 UNL     1      19.463   3.499  46.797  1.00  0.00     0.167 C 
HETATM   11  O3  UNL     1      20.738   3.375  46.668  1.00  0.00    -0.389 OA
HETATM   12  C16 UNL     1      21.753   3.120  47.476  1.00  0.00     0.199 C 
HETATM   13  C17 UNL     1      22.236   4.057  48.514  1.00  0.00     0.148 C 
HETATM   14  C18 UNL     1      22.799   5.341  47.854  1.00  0.00     0.042 C 
HETATM   15  O4  UNL     1      23.248   3.495  49.350  1.00  0.00    -0.347 OA
HETATM   16  H10 UNL     1      21.090   3.012  52.679  1.00  0.00     0.188 HD
ENDROOT
BRANCH   1  17
HETATM   17  C7  UNL     1      25.092   2.283  51.869  1.00  0.00     0.158 A 
HETATM   18  C6  UNL     1      25.886   1.815  52.823  1.00  0.00     0.087 A 
HETATM   19 CL1  UNL     1      27.041   2.423  51.661  1.00  0.00    -0.153 Cl
BRANCH  18  20
HETATM   20  N1  UNL     1      26.124   1.191  54.066  1.00  0.00    -0.347 N 
HETATM   21  H5  UNL     1      25.690   1.518  54.936  1.00  0.00     0.167 HD
BRANCH  20  22
HETATM   22  C5  UNL     1      27.017   0.130  53.797  1.00  0.00     0.075 A 
HETATM   23  C4  UNL     1      26.810  -1.202  53.195  1.00  0.00     0.070 A 
HETATM   24  C3  UNL     1      27.982  -1.852  53.156  1.00  0.00     0.080 A 
HETATM   25  C2  UNL     1      29.009  -1.000  53.722  1.00  0.00     0.029 A 
HETATM   26  C1  UNL     1      30.286  -1.297  53.852  1.00  0.00     0.029 C 
HETATM   27  C19 UNL     1      28.323   0.213  54.095  1.00  0.00     0.155 A 
HETATM   28  F1  UNL     1      28.995   1.262  54.672  1.00  0.00    -0.203 F 
BRANCH  24  29
HETATM   29  O1  UNL     1      28.099  -3.136  52.638  1.00  0.00    -0.360 OA
HETATM   30  H3  UNL     1      27.299  -3.632  52.270  1.00  0.00     0.217 HD
ENDBRANCH  24  29
ENDBRANCH  20  22
ENDBRANCH  18  20
ENDBRANCH   1  17
TORSDOF 4
ENDMDL
MODEL 7
REMARK VINA RESULT:      -8.2      3.543      8.806
REMARK  4 active torsions:
REMARK  status: ('A' for Active; 'I' for Inactive)
REMARK    1  A    between atoms: C3_3  and  O1_4 
REMARK    2  A    between atoms: C5_6  and  N1_7 
REMARK    3  A    between atoms: N1_7  and  C6_8 
REMARK    4  A    between atoms: C7_10  and  C8_11 
ROOT
HETATM    1  C8  UNL     1      25.265   2.970  51.066  1.00  0.00     0.033 C 
HETATM    2  C9  UNL     1      24.456   1.904  51.206  1.00  0.00     0.064 C 
HETATM    3  C10 UNL     1      23.163   1.794  50.502  1.00  0.00     0.210 C 
HETATM    4  N2  UNL     1      21.987   1.687  51.326  1.00  0.00    -0.297 N 
HETATM    5  O2  UNL     1      21.876   0.616  52.057  1.00  0.00    -0.285 OA
HETATM    6  C11 UNL     1      21.118   0.664  53.188  1.00  0.00     0.201 C 
HETATM    7  C12 UNL     1      21.881   0.083  54.387  1.00  0.00     0.029 C 
HETATM    8  C13 UNL     1      22.344  -1.329  54.151  1.00  0.00     0.004 C 
HETATM    9  C14 UNL     1      23.212  -1.904  55.197  1.00  0.00     0.026 C 
HETATM   10  C15 UNL     1      24.370  -1.142  55.716  1.00  0.00     0.167 C 
HETATM   11  O3  UNL     1      25.402  -0.645  55.126  1.00  0.00    -0.389 OA
HETATM   12  C16 UNL     1      25.619   0.300  54.227  1.00  0.00     0.199 C 
HETATM   13  C17 UNL     1      25.212   0.197  52.808  1.00  0.00     0.148 C 
HETATM   14  C18 UNL     1      25.989  -0.948  52.112  1.00  0.00     0.042 C 
HETATM   15  O4  UNL     1      25.427   1.403  52.075  1.00  0.00    -0.347 OA
HETATM   16  H10 UNL     1      21.624   2.573  51.698  1.00  0.00     0.188 HD
ENDROOT
BRANCH   1  17
HETATM   17  C7  UNL     1      25.159   4.217  50.278  1.00  0.00     0.158 A 
HETATM   18  C6  UNL     1      25.025   5.361  49.622  1.00  0.00     0.087 A 
HETATM   19 CL1  UNL     1      24.080   5.659  51.061  1.00  0.00    -0.153 Cl
BRANCH  18  20
HETATM   20  N1  UNL     1      25.266   6.218  48.526  1.00  0.00    -0.347 N 
HETATM   21  H5  UNL     1      24.809   6.087  47.617  1.00  0.00     0.167 HD
BRANCH  20  22
HETATM   22  C5  UNL     1      26.195   7.177  48.987  1.00  0.00     0.075 A 
HETATM   23  C4  UNL     1      26.101   8.219  50.028  1.00  0.00     0.070 A 
HETATM   24  C3  UNL     1      27.264   8.883  50.091  1.00  0.00     0.080 A 
HETATM   25  C2  UNL     1      28.175   8.324  49.111  1.00  0.00     0.029 A 
HETATM   26  C1  UNL     1      29.411   8.718  48.881  1.00  0.00     0.029 C 
HETATM   27  C19 UNL     1      27.430   7.269  48.469  1.00  0.00     0.155 A 
HETATM   28  F1  UNL     1      27.989   6.510  47.470  1.00  0.00    -0.203 F 
BRANCH  24  29
HETATM   29  O1  UNL     1      27.473   9.926  50.984  1.00  0.00    -0.360 OA
HETATM   30  H3  UNL     1      27.885  10.801  50.687  1.00  0.00     0.217 HD
ENDBRANCH  24  29
ENDBRANCH  20  22
ENDBRANCH  18  20
ENDBRANCH   1  17
TORSDOF 4
ENDMDL
MODEL 8
REMARK VINA RESULT:      -8.1      2.351      3.045
REMARK  4 active torsions:
REMARK  status: ('A' for Active; 'I' for Inactive)
REMARK    1  A    between atoms: C3_3  and  O1_4 
REMARK    2  A    between atoms: C5_6  and  N1_7 
REMARK    3  A    between atoms: N1_7  and  C6_8 
REMARK    4  A    between atoms: C7_10  and  C8_11 
ROOT
HETATM    1  C8  UNL     1      23.801   2.533  51.262  1.00  0.00     0.033 C 
HETATM    2  C9  UNL     1      23.664   3.619  50.480  1.00  0.00     0.064 C 
HETATM    3  C10 UNL     1      24.687   4.682  50.417  1.00  0.00     0.210 C 
HETATM    4  N2  UNL     1      24.271   6.002  50.815  1.00  0.00    -0.297 N 
HETATM    5  O2  UNL     1      23.372   6.584  50.074  1.00  0.00    -0.285 OA
HETATM    6  C11 UNL     1      22.582   7.545  50.627  1.00  0.00     0.201 C 
HETATM    7  C12 UNL     1      21.102   7.290  50.312  1.00  0.00     0.029 C 
HETATM    8  C13 UNL     1      20.829   7.203  48.835  1.00  0.00     0.004 C 
HETATM    9  C14 UNL     1      19.458   6.811  48.456  1.00  0.00     0.026 C 
HETATM   10  C15 UNL     1      18.807   5.644  49.093  1.00  0.00     0.167 C 
HETATM   11  O3  UNL     1      19.147   4.404  49.160  1.00  0.00    -0.389 OA
HETATM   12  C16 UNL     1      20.136   3.719  49.710  1.00  0.00     0.199 C 
HETATM   13  C17 UNL     1      21.540   3.786  49.249  1.00  0.00     0.148 C 
HETATM   14  C18 UNL     1      21.658   3.222  47.811  1.00  0.00     0.042 C 
HETATM   15  O4  UNL     1      22.441   3.068  50.093  1.00  0.00    -0.347 OA
HETATM   16  H10 UNL     1      24.258   6.177  51.827  1.00  0.00     0.188 HD
ENDROOT
BRANCH   1  17
HETATM   17  C7  UNL     1      24.861   2.089  52.191  1.00  0.00     0.158 A 
HETATM   18  C6  UNL     1      25.858   1.695  52.972  1.00  0.00     0.087 A 
HETATM   19 CL1  UNL     1      26.663   1.889  51.434  1.00  0.00    -0.153 Cl
BRANCH  18  20
HETATM   20  N1  UNL     1      26.399   1.288  54.211  1.00  0.00    -0.347 N 
HETATM   21  H5  UNL     1      26.159   1.752  55.093  1.00  0.00     0.167 HD
BRANCH  20  22
HETATM   22  C5  UNL     1      27.252   0.201  53.917  1.00  0.00     0.075 A 
HETATM   23  C4  UNL     1      26.986  -1.136  53.350  1.00  0.00     0.070 A 
HETATM   24  C3  UNL     1      28.139  -1.814  53.265  1.00  0.00     0.080 A 
HETATM   25  C2  UNL     1      29.213  -0.976  53.763  1.00  0.00     0.029 A 
HETATM   26  C1  UNL     1      30.488  -1.300  53.835  1.00  0.00     0.029 C 
HETATM   27  C19 UNL     1      28.574   0.259  54.147  1.00  0.00     0.155 A 
HETATM   28  F1  UNL     1      29.298   1.302  54.671  1.00  0.00    -0.203 F 
BRANCH  24  29
HETATM   29  O1  UNL     1      28.202  -3.109  52.766  1.00  0.00    -0.360 OA
HETATM   30  H3  UNL     1      27.733  -3.367  51.908  1.00  0.00     0.217 HD
ENDBRANCH  24  29
ENDBRANCH  20  22
ENDBRANCH  18  20
ENDBRANCH   1  17
TORSDOF 4
ENDMDL
MODEL 9
REMARK VINA RESULT:      -8.1      3.319      4.814
REMARK  4 active torsions:
REMARK  status: ('A' for Active; 'I' for Inactive)
REMARK    1  A    between atoms: C3_3  and  O1_4 
REMARK    2  A    between atoms: C5_6  and  N1_7 
REMARK    3  A    between atoms: N1_7  and  C6_8 
REMARK    4  A    between atoms: C7_10  and  C8_11 
ROOT
HETATM    1  C8  UNL     1      26.134   6.472  49.166  1.00  0.00     0.033 C 
HETATM    2  C9  UNL     1      27.309   6.706  48.556  1.00  0.00     0.064 C 
HETATM    3  C10 UNL     1      28.319   5.649  48.353  1.00  0.00     0.210 C 
HETATM    4  N2  UNL     1      29.603   5.855  48.971  1.00  0.00    -0.297 N 
HETATM    5  O2  UNL     1      30.312   6.856  48.534  1.00  0.00    -0.285 OA
HETATM    6  C11 UNL     1      31.241   7.416  49.358  1.00  0.00     0.201 C 
HETATM    7  C12 UNL     1      31.100   8.944  49.389  1.00  0.00     0.029 C 
HETATM    8  C13 UNL     1      31.200   9.565  48.023  1.00  0.00     0.004 C 
HETATM    9  C14 UNL     1      30.924  11.013  47.952  1.00  0.00     0.026 C 
HETATM   10  C15 UNL     1      29.726  11.583  48.608  1.00  0.00     0.167 C 
HETATM   11  O3  UNL     1      28.470  11.333  48.464  1.00  0.00    -0.389 OA
HETATM   12  C16 UNL     1      27.677  10.298  48.684  1.00  0.00     0.199 C 
HETATM   13  C17 UNL     1      27.726   9.042  47.903  1.00  0.00     0.148 C 
HETATM   14  C18 UNL     1      27.328   9.312  46.431  1.00  0.00     0.042 C 
HETATM   15  O4  UNL     1      26.870   8.025  48.426  1.00  0.00    -0.347 OA
HETATM   16  H10 UNL     1      29.659   5.614  49.968  1.00  0.00     0.188 HD
ENDROOT
BRANCH   1  17
HETATM   17  C7  UNL     1      25.532   5.260  49.759  1.00  0.00     0.158 A 
HETATM   18  C6  UNL     1      24.953   4.213  50.332  1.00  0.00     0.087 A 
HETATM   19 CL1  UNL     1      24.214   5.544  51.188  1.00  0.00    -0.153 Cl
BRANCH  18  20
HETATM   20  N1  UNL     1      24.742   2.826  50.495  1.00  0.00    -0.347 N 
HETATM   21  H5  UNL     1      24.028   2.315  49.966  1.00  0.00     0.167 HD
BRANCH  20  22
HETATM   22  C5  UNL     1      25.676   2.409  51.470  1.00  0.00     0.075 A 
HETATM   23  C4  UNL     1      27.141   2.566  51.561  1.00  0.00     0.070 A 
HETATM   24  C3  UNL     1      27.574   1.989  52.691  1.00  0.00     0.080 A 
HETATM   25  C2  UNL     1      26.438   1.429  53.396  1.00  0.00     0.029 A 
HETATM   26  C1  UNL     1      26.472   0.784  54.544  1.00  0.00     0.029 C 
HETATM   27  C19 UNL     1      25.297   1.735  52.567  1.00  0.00     0.155 A 
HETATM   28  F1  UNL     1      24.031   1.349  52.930  1.00  0.00    -0.203 F 
BRANCH  24  29
HETATM   29  O1  UNL     1      28.917   1.978  53.049  1.00  0.00    -0.360 OA
HETATM   30  H3  UNL     1      29.292   2.645  53.710  1.00  0.00     0.217 HD
ENDBRANCH  24  29
ENDBRANCH  20  22
ENDBRANCH  18  20
ENDBRANCH   1  17
TORSDOF 4
ENDMDL
