MODEL 1
REMARK VINA RESULT:      -8.2      0.000      0.000
REMARK  3 active torsions:
REMARK  status: ('A' for Active; 'I' for Inactive)
REMARK    1  A    between atoms: O1_2  and  C2_3 
REMARK    2  A    between atoms: C5_6  and  C6_7 
REMARK    3  A    between atoms: C7_10  and  N2_11 
ROOT
HETATM    1  C6  UNL     1      25.365   2.287  52.337  1.00  0.00     0.078 C 
HETATM    2  N1  UNL     1      26.331   2.755  53.012  1.00  0.00    -0.130 NA
HETATM    3  O2  UNL     1      26.634   2.212  54.244  1.00  0.00    -0.194 OA
HETATM    4  C7  UNL     1      27.605   1.195  54.283  1.00  0.00     0.182 C 
HETATM    5  C8  UNL     1      27.356  -0.052  53.950  1.00  0.00     0.148 C 
HETATM    6  N3  UNL     1      26.167  -0.683  53.501  1.00  0.00    -0.357 N 
HETATM    7  C9  UNL     1      26.218  -1.924  52.759  1.00  0.00     0.156 C 
HETATM    8  C10 UNL     1      24.762  -0.420  53.600  1.00  0.00     0.040 A 
HETATM    9  C11 UNL     1      24.227  -1.286  54.564  1.00  0.00     0.030 A 
HETATM   10  C12 UNL     1      22.882  -1.332  54.967  1.00  0.00     0.002 A 
HETATM   11  C13 UNL     1      22.050  -0.444  54.343  1.00  0.00     0.001 A 
HETATM   12  C14 UNL     1      22.589   0.392  53.403  1.00  0.00     0.010 A 
HETATM   13  C15 UNL     1      23.903   0.460  52.988  1.00  0.00    -0.025 A 
HETATM   14  C16 UNL     1      24.211   1.451  51.937  1.00  0.00     0.103 C 
ENDROOT
BRANCH   1  15
HETATM   15  C5  UNL     1      25.575   3.240  51.224  1.00  0.00     0.009 A 
HETATM   16  C4  UNL     1      26.552   3.139  50.246  1.00  0.00     0.017 A 
HETATM   17  C3  UNL     1      26.643   4.098  49.245  1.00  0.00     0.038 A 
HETATM   18  C2  UNL     1      25.784   5.161  49.192  1.00  0.00     0.069 A 
HETATM   19  C18 UNL     1      24.799   5.321  50.122  1.00  0.00     0.056 A 
HETATM   20  C17 UNL     1      24.723   4.346  51.121  1.00  0.00     0.025 A 
HETATM   21 BR1  UNL     1      23.352   4.550  52.435  1.00  0.00    -0.050 Br
BRANCH  18  22
HETATM   22  O1  UNL     1      25.929   6.073  48.176  1.00  0.00    -0.356 OA
HETATM   23  C1  UNL     1      26.947   7.063  48.140  1.00  0.00     0.210 C 
ENDBRANCH  18  22
ENDBRANCH   1  15
BRANCH   4  24
HETATM   24  N2  UNL     1      28.908   1.559  54.705  1.00  0.00    -0.377 N 
HETATM   25  H6  UNL     1      29.493   0.777  55.084  1.00  0.00     0.158 HD
HETATM   26  H7  UNL     1      29.172   2.579  54.600  1.00  0.00     0.158 HD
ENDBRANCH   4  24
TORSDOF 3
ENDMDL
MODEL 2
REMARK VINA RESULT:      -8.1      3.979      6.176
REMARK  3 active torsions:
REMARK  status: ('A' for Active; 'I' for Inactive)
REMARK    1  A    between atoms: O1_2  and  C2_3 
REMARK    2  A    between atoms: C5_6  and  C6_7 
REMARK    3  A    between atoms: C7_10  and  N2_11 
ROOT
HETATM    1  C6  UNL     1      21.952   0.729  52.042  1.00  0.00     0.078 C 
HETATM    2  N1  UNL     1      22.374   0.786  50.848  1.00  0.00    -0.130 NA
HETATM    3  O2  UNL     1      21.512   0.529  49.802  1.00  0.00    -0.194 OA
HETATM    4  C7  UNL     1      20.859   1.627  49.214  1.00  0.00     0.182 C 
HETATM    5  C8  UNL     1      19.811   2.213  49.751  1.00  0.00     0.148 C 
HETATM    6  N3  UNL     1      19.099   1.948  50.949  1.00  0.00    -0.357 N 
HETATM    7  C9  UNL     1      18.291   2.971  51.578  1.00  0.00     0.156 C 
HETATM    8  C10 UNL     1      18.914   0.814  51.807  1.00  0.00     0.040 A 
HETATM    9  C11 UNL     1      17.640   0.286  51.557  1.00  0.00     0.030 A 
HETATM   10  C12 UNL     1      17.084  -0.841  52.184  1.00  0.00     0.002 A 
HETATM   11  C13 UNL     1      17.880  -1.449  53.115  1.00  0.00     0.001 A 
HETATM   12  C14 UNL     1      19.121  -0.919  53.347  1.00  0.00     0.010 A 
HETATM   13  C15 UNL     1      19.692   0.184  52.747  1.00  0.00    -0.025 A 
HETATM   14  C16 UNL     1      21.049   0.551  53.202  1.00  0.00     0.103 C 
ENDROOT
BRANCH   1  15
HETATM   15  C5  UNL     1      23.271   1.082  52.612  1.00  0.00     0.009 A 
HETATM   16  C4  UNL     1      24.233   0.182  53.042  1.00  0.00     0.017 A 
HETATM   17  C3  UNL     1      25.441   0.638  53.556  1.00  0.00     0.038 A 
HETATM   18  C2  UNL     1      25.717   1.973  53.654  1.00  0.00     0.069 A 
HETATM   19  C18 UNL     1      24.815   2.914  53.250  1.00  0.00     0.056 A 
HETATM   20  C17 UNL     1      23.607   2.435  52.736  1.00  0.00     0.025 A 
HETATM   21 BR1  UNL     1      22.327   3.734  52.164  1.00  0.00    -0.050 Br
BRANCH  18  22
HETATM   22  O1  UNL     1      26.929   2.357  54.171  1.00  0.00    -0.356 OA
HETATM   23  C1  UNL     1      28.155   2.279  53.457  1.00  0.00     0.210 C 
ENDBRANCH  18  22
ENDBRANCH   1  15
BRANCH   4  24
HETATM   24  N2  UNL     1      21.375   2.107  47.985  1.00  0.00    -0.377 N 
HETATM   25  H6  UNL     1      21.099   1.559  47.137  1.00  0.00     0.158 HD
HETATM   26  H7  UNL     1      21.987   2.970  48.033  1.00  0.00     0.158 HD
ENDBRANCH   4  24
TORSDOF 3
ENDMDL
MODEL 3
REMARK VINA RESULT:      -8.0      1.898      2.118
REMARK  3 active torsions:
REMARK  status: ('A' for Active; 'I' for Inactive)
REMARK    1  A    between atoms: O1_2  and  C2_3 
REMARK    2  A    between atoms: C5_6  and  C6_7 
REMARK    3  A    between atoms: C7_10  and  N2_11 
ROOT
HETATM    1  C6  UNL     1      23.829   2.208  52.125  1.00  0.00     0.078 C 
HETATM    2  N1  UNL     1      24.686   3.021  52.587  1.00  0.00    -0.130 NA
HETATM    3  O2  UNL     1      25.294   2.764  53.798  1.00  0.00    -0.194 OA
HETATM    4  C7  UNL     1      26.524   2.083  53.774  1.00  0.00     0.182 C 
HETATM    5  C8  UNL     1      26.625   0.783  53.606  1.00  0.00     0.148 C 
HETATM    6  N3  UNL     1      25.636  -0.217  53.418  1.00  0.00    -0.357 N 
HETATM    7  C9  UNL     1      25.966  -1.483  52.798  1.00  0.00     0.156 C 
HETATM    8  C10 UNL     1      24.242  -0.356  53.720  1.00  0.00     0.040 A 
HETATM    9  C11 UNL     1      24.124  -1.196  54.836  1.00  0.00     0.030 A 
HETATM   10  C12 UNL     1      22.919  -1.569  55.456  1.00  0.00     0.002 A 
HETATM   11  C13 UNL     1      21.784  -1.051  54.895  1.00  0.00     0.001 A 
HETATM   12  C14 UNL     1      21.919  -0.235  53.804  1.00  0.00     0.010 A 
HETATM   13  C15 UNL     1      23.086   0.148  53.177  1.00  0.00    -0.025 A 
HETATM   14  C16 UNL     1      22.942   1.030  52.000  1.00  0.00     0.103 C 
ENDROOT
BRANCH   1  15
HETATM   15  C5  UNL     1      23.596   3.017  50.908  1.00  0.00     0.009 A 
HETATM   16  C4  UNL     1      24.459   3.122  49.829  1.00  0.00     0.017 A 
HETATM   17  C3  UNL     1      24.123   3.912  48.737  1.00  0.00     0.038 A 
HETATM   18  C2  UNL     1      22.944   4.604  48.690  1.00  0.00     0.069 A 
HETATM   19  C18 UNL     1      22.048   4.544  49.717  1.00  0.00     0.056 A 
HETATM   20  C17 UNL     1      22.405   3.745  50.807  1.00  0.00     0.025 A 
HETATM   21 BR1  UNL     1      21.165   3.647  52.258  1.00  0.00    -0.050 Br
BRANCH  18  22
HETATM   22  O1  UNL     1      22.673   5.366  47.581  1.00  0.00    -0.356 OA
HETATM   23  C1  UNL     1      22.058   4.861  46.404  1.00  0.00     0.210 C 
ENDBRANCH  18  22
ENDBRANCH   1  15
BRANCH   4  24
HETATM   24  N2  UNL     1      27.698   2.859  53.941  1.00  0.00    -0.377 N 
HETATM   25  H6  UNL     1      27.944   3.096  54.932  1.00  0.00     0.158 HD
HETATM   26  H7  UNL     1      28.218   3.128  53.059  1.00  0.00     0.158 HD
ENDBRANCH   4  24
TORSDOF 3
ENDMDL
MODEL 4
REMARK VINA RESULT:      -7.9      2.904      6.613
REMARK  3 active torsions:
REMARK  status: ('A' for Active; 'I' for Inactive)
REMARK    1  A    between atoms: O1_2  and  C2_3 
REMARK    2  A    between atoms: C5_6  and  C6_7 
REMARK    3  A    between atoms: C7_10  and  N2_11 
ROOT
HETATM    1  C6  UNL     1      25.148   3.264  50.239  1.00  0.00     0.078 C 
HETATM    2  N1  UNL     1      26.195   3.966  50.111  1.00  0.00    -0.130 NA
HETATM    3  O2  UNL     1      26.272   4.908  49.105  1.00  0.00    -0.194 OA
HETATM    4  C7  UNL     1      25.894   6.225  49.420  1.00  0.00     0.182 C 
HETATM    5  C8  UNL     1      24.641   6.615  49.498  1.00  0.00     0.148 C 
HETATM    6  N3  UNL     1      23.425   5.907  49.311  1.00  0.00    -0.357 N 
HETATM    7  C9  UNL     1      22.188   6.387  49.889  1.00  0.00     0.156 C 
HETATM    8  C10 UNL     1      23.021   4.722  48.614  1.00  0.00     0.040 A 
HETATM    9  C11 UNL     1      22.358   5.114  47.443  1.00  0.00     0.030 A 
HETATM   10  C12 UNL     1      21.821   4.247  46.478  1.00  0.00     0.002 A 
HETATM   11  C13 UNL     1      21.974   2.912  46.735  1.00  0.00     0.001 A 
HETATM   12  C14 UNL     1      22.623   2.548  47.884  1.00  0.00     0.010 A 
HETATM   13  C15 UNL     1      23.160   3.375  48.848  1.00  0.00    -0.025 A 
HETATM   14  C16 UNL     1      23.794   2.712  50.006  1.00  0.00     0.103 C 
ENDROOT
BRANCH   1  15
HETATM   15  C5  UNL     1      25.686   2.526  51.404  1.00  0.00     0.009 A 
HETATM   16  C4  UNL     1      26.676   1.557  51.360  1.00  0.00     0.017 A 
HETATM   17  C3  UNL     1      27.102   0.937  52.528  1.00  0.00     0.038 A 
HETATM   18  C2  UNL     1      26.565   1.257  53.745  1.00  0.00     0.069 A 
HETATM   19  C18 UNL     1      25.587   2.202  53.860  1.00  0.00     0.056 A 
HETATM   20  C17 UNL     1      25.172   2.814  52.673  1.00  0.00     0.025 A 
HETATM   21 BR1  UNL     1      23.803   4.140  52.809  1.00  0.00    -0.050 Br
BRANCH  18  22
HETATM   22  O1  UNL     1      27.031   0.608  54.860  1.00  0.00    -0.356 OA
HETATM   23  C1  UNL     1      28.366   0.144  55.007  1.00  0.00     0.210 C 
ENDBRANCH  18  22
ENDBRANCH   1  15
BRANCH   4  24
HETATM   24  N2  UNL     1      26.933   7.158  49.660  1.00  0.00    -0.377 N 
HETATM   25  H6  UNL     1      27.702   7.168  48.949  1.00  0.00     0.158 HD
HETATM   26  H7  UNL     1      26.840   7.758  50.527  1.00  0.00     0.158 HD
ENDBRANCH   4  24
TORSDOF 3
ENDMDL
MODEL 5
REMARK VINA RESULT:      -7.8      3.200      4.588
REMARK  3 active torsions:
REMARK  status: ('A' for Active; 'I' for Inactive)
REMARK    1  A    between atoms: O1_2  and  C2_3 
REMARK    2  A    between atoms: C5_6  and  C6_7 
REMARK    3  A    between atoms: C7_10  and  N2_11 
ROOT
HETATM    1  C6  UNL     1      23.843   2.626  50.314  1.00  0.00     0.078 C 
HETATM    2  N1  UNL     1      23.352   2.455  49.158  1.00  0.00    -0.130 NA
HETATM    3  O2  UNL     1      22.298   1.583  48.981  1.00  0.00    -0.194 OA
HETATM    4  C7  UNL     1      20.998   2.116  49.033  1.00  0.00     0.182 C 
HETATM    5  C8  UNL     1      20.384   2.410  50.158  1.00  0.00     0.148 C 
HETATM    6  N3  UNL     1      20.798   2.292  51.511  1.00  0.00    -0.357 N 
HETATM    7  C9  UNL     1      20.179   3.086  52.550  1.00  0.00     0.156 C 
HETATM    8  C10 UNL     1      21.755   1.503  52.229  1.00  0.00     0.040 A 
HETATM    9  C11 UNL     1      21.060   0.492  52.906  1.00  0.00     0.030 A 
HETATM   10  C12 UNL     1      21.640  -0.502  53.712  1.00  0.00     0.002 A 
HETATM   11  C13 UNL     1      23.002  -0.447  53.826  1.00  0.00     0.001 A 
HETATM   12  C14 UNL     1      23.663   0.549  53.158  1.00  0.00     0.010 A 
HETATM   13  C15 UNL     1      23.121   1.535  52.361  1.00  0.00    -0.025 A 
HETATM   14  C16 UNL     1      24.071   2.501  51.772  1.00  0.00     0.103 C 
ENDROOT
BRANCH   1  15
HETATM   15  C5  UNL     1      24.847   3.601  49.834  1.00  0.00     0.009 A 
HETATM   16  C4  UNL     1      26.163   3.313  49.507  1.00  0.00     0.017 A 
HETATM   17  C3  UNL     1      27.011   4.319  49.060  1.00  0.00     0.038 A 
HETATM   18  C2  UNL     1      26.582   5.611  48.930  1.00  0.00     0.069 A 
HETATM   19  C18 UNL     1      25.299   5.964  49.233  1.00  0.00     0.056 A 
HETATM   20  C17 UNL     1      24.462   4.938  49.682  1.00  0.00     0.025 A 
HETATM   21 BR1  UNL     1      22.661   5.409  50.114  1.00  0.00    -0.050 Br
BRANCH  18  22
HETATM   22  O1  UNL     1      27.470   6.556  48.482  1.00  0.00    -0.356 OA
HETATM   23  C1  UNL     1      28.784   6.258  48.033  1.00  0.00     0.210 C 
ENDBRANCH  18  22
ENDBRANCH   1  15
BRANCH   4  24
HETATM   24  N2  UNL     1      20.339   2.340  47.798  1.00  0.00    -0.377 N 
HETATM   25  H6  UNL     1      20.725   3.122  47.218  1.00  0.00     0.158 HD
HETATM   26  H7  UNL     1      19.524   1.703  47.574  1.00  0.00     0.158 HD
ENDBRANCH   4  24
TORSDOF 3
ENDMDL
MODEL 6
REMARK VINA RESULT:      -7.8      3.088      7.486
REMARK  3 active torsions:
REMARK  status: ('A' for Active; 'I' for Inactive)
REMARK    1  A    between atoms: O1_2  and  C2_3 
REMARK    2  A    between atoms: C5_6  and  C6_7 
REMARK    3  A    between atoms: C7_10  and  N2_11 
ROOT
HETATM    1  C6  UNL     1      24.148   3.768  50.981  1.00  0.00     0.078 C 
HETATM    2  N1  UNL     1      23.486   4.507  51.771  1.00  0.00    -0.130 NA
HETATM    3  O2  UNL     1      23.607   5.879  51.691  1.00  0.00    -0.194 OA
HETATM    4  C7  UNL     1      22.679   6.567  50.890  1.00  0.00     0.182 C 
HETATM    5  C8  UNL     1      22.762   6.623  49.579  1.00  0.00     0.148 C 
HETATM    6  N3  UNL     1      23.706   6.071  48.674  1.00  0.00    -0.357 N 
HETATM    7  C9  UNL     1      23.367   5.857  47.284  1.00  0.00     0.156 C 
HETATM    8  C10 UNL     1      25.067   5.630  48.750  1.00  0.00     0.040 A 
HETATM    9  C11 UNL     1      25.874   6.615  48.163  1.00  0.00     0.030 A 
HETATM   10  C12 UNL     1      27.273   6.568  48.052  1.00  0.00     0.002 A 
HETATM   11  C13 UNL     1      27.867   5.450  48.570  1.00  0.00     0.001 A 
HETATM   12  C14 UNL     1      27.064   4.498  49.137  1.00  0.00     0.010 A 
HETATM   13  C15 UNL     1      25.690   4.517  49.260  1.00  0.00    -0.025 A 
HETATM   14  C16 UNL     1      25.070   3.341  49.905  1.00  0.00     0.103 C 
ENDROOT
BRANCH   1  15
HETATM   15  C5  UNL     1      23.598   2.520  51.556  1.00  0.00     0.009 A 
HETATM   16  C4  UNL     1      24.040   1.901  52.714  1.00  0.00     0.017 A 
HETATM   17  C3  UNL     1      23.437   0.730  53.157  1.00  0.00     0.038 A 
HETATM   18  C2  UNL     1      22.401   0.157  52.474  1.00  0.00     0.069 A 
HETATM   19  C18 UNL     1      21.915   0.714  51.326  1.00  0.00     0.056 A 
HETATM   20  C17 UNL     1      22.536   1.891  50.897  1.00  0.00     0.025 A 
HETATM   21 BR1  UNL     1      21.874   2.689  49.292  1.00  0.00    -0.050 Br
BRANCH  18  22
HETATM   22  O1  UNL     1      21.849  -1.000  52.965  1.00  0.00    -0.356 OA
HETATM   23  C1  UNL     1      21.983  -1.431  54.313  1.00  0.00     0.210 C 
ENDBRANCH  18  22
ENDBRANCH   1  15
BRANCH   4  24
HETATM   24  N2  UNL     1      21.610   7.222  51.551  1.00  0.00    -0.377 N 
HETATM   25  H6  UNL     1      21.475   6.959  52.556  1.00  0.00     0.158 HD
HETATM   26  H7  UNL     1      21.050   7.912  50.977  1.00  0.00     0.158 HD
ENDBRANCH   4  24
TORSDOF 3
ENDMDL
MODEL 7
REMARK VINA RESULT:      -7.7      3.091      6.330
REMARK  3 active torsions:
REMARK  status: ('A' for Active; 'I' for Inactive)
REMARK    1  A    between atoms: O1_2  and  C2_3 
REMARK    2  A    between atoms: C5_6  and  C6_7 
REMARK    3  A    between atoms: C7_10  and  N2_11 
ROOT
HETATM    1  C6  UNL     1      23.224   1.676  52.764  1.00  0.00     0.078 C 
HETATM    2  N1  UNL     1      22.729   2.834  52.905  1.00  0.00    -0.130 NA
HETATM    3  O2  UNL     1      23.561   3.923  53.070  1.00  0.00    -0.194 OA
HETATM    4  C7  UNL     1      23.924   4.641  51.917  1.00  0.00     0.182 C 
HETATM    5  C8  UNL     1      24.852   4.235  51.078  1.00  0.00     0.148 C 
HETATM    6  N3  UNL     1      25.675   3.080  51.078  1.00  0.00    -0.357 N 
HETATM    7  C9  UNL     1      26.279   2.596  49.855  1.00  0.00     0.156 C 
HETATM    8  C10 UNL     1      26.152   2.156  52.064  1.00  0.00     0.040 A 
HETATM    9  C11 UNL     1      27.493   2.464  52.333  1.00  0.00     0.030 A 
HETATM   10  C12 UNL     1      28.316   1.800  53.256  1.00  0.00     0.002 A 
HETATM   11  C13 UNL     1      27.728   0.766  53.932  1.00  0.00     0.001 A 
HETATM   12  C14 UNL     1      26.419   0.478  53.655  1.00  0.00     0.010 A 
HETATM   13  C15 UNL     1      25.587   1.112  52.756  1.00  0.00    -0.025 A 
HETATM   14  C16 UNL     1      24.213   0.581  52.643  1.00  0.00     0.103 C 
ENDROOT
BRANCH   1  15
HETATM   15  C5  UNL     1      21.897   1.032  52.646  1.00  0.00     0.009 A 
HETATM   16  C4  UNL     1      21.174   0.475  53.689  1.00  0.00     0.017 A 
HETATM   17  C3  UNL     1      19.931  -0.098  53.451  1.00  0.00     0.038 A 
HETATM   18  C2  UNL     1      19.386  -0.132  52.197  1.00  0.00     0.069 A 
HETATM   19  C18 UNL     1      20.044   0.399  51.126  1.00  0.00     0.056 A 
HETATM   20  C17 UNL     1      21.293   0.971  51.386  1.00  0.00     0.025 A 
HETATM   21 BR1  UNL     1      22.234   1.720  49.900  1.00  0.00    -0.050 Br
BRANCH  18  22
HETATM   22  O1  UNL     1      18.154  -0.712  52.031  1.00  0.00    -0.356 OA
HETATM   23  C1  UNL     1      17.472  -1.428  53.051  1.00  0.00     0.210 C 
ENDBRANCH  18  22
ENDBRANCH   1  15
BRANCH   4  24
HETATM   24  N2  UNL     1      23.243   5.859  51.670  1.00  0.00    -0.377 N 
HETATM   25  H6  UNL     1      22.710   5.901  50.769  1.00  0.00     0.158 HD
HETATM   26  H7  UNL     1      23.331   6.610  52.410  1.00  0.00     0.158 HD
ENDBRANCH   4  24
TORSDOF 3
ENDMDL
MODEL 8
REMARK VINA RESULT:      -7.6      3.131      4.378
REMARK  3 active torsions:
REMARK  status: ('A' for Active; 'I' for Inactive)
REMARK    1  A    between atoms: O1_2  and  C2_3 
REMARK    2  A    between atoms: C5_6  and  C6_7 
REMARK    3  A    between atoms: C7_10  and  N2_11 
ROOT
HETATM    1  C6  UNL     1      23.975   4.777  49.670  1.00  0.00     0.078 C 
HETATM    2  N1  UNL     1      23.809   5.579  50.637  1.00  0.00    -0.130 NA
HETATM    3  O2  UNL     1      23.001   5.221  51.696  1.00  0.00    -0.194 OA
HETATM    4  C7  UNL     1      23.616   4.618  52.807  1.00  0.00     0.182 C 
HETATM    5  C8  UNL     1      23.974   3.353  52.834  1.00  0.00     0.148 C 
HETATM    6  N3  UNL     1      23.861   2.326  51.861  1.00  0.00    -0.357 N 
HETATM    7  C9  UNL     1      24.716   1.160  51.908  1.00  0.00     0.156 C 
HETATM    8  C10 UNL     1      23.031   2.076  50.721  1.00  0.00     0.040 A 
HETATM    9  C11 UNL     1      22.081   1.110  51.081  1.00  0.00     0.030 A 
HETATM   10  C12 UNL     1      21.072   0.602  50.246  1.00  0.00     0.002 A 
HETATM   11  C13 UNL     1      21.044   1.114  48.978  1.00  0.00     0.001 A 
HETATM   12  C14 UNL     1      21.981   2.056  48.644  1.00  0.00     0.010 A 
HETATM   13  C15 UNL     1      22.980   2.572  49.441  1.00  0.00    -0.025 A 
HETATM   14  C16 UNL     1      23.870   3.572  48.815  1.00  0.00     0.103 C 
ENDROOT
BRANCH   1  15
HETATM   15  C5  UNL     1      24.874   5.703  48.947  1.00  0.00     0.009 A 
HETATM   16  C4  UNL     1      24.483   6.855  48.283  1.00  0.00     0.017 A 
HETATM   17  C3  UNL     1      25.427   7.650  47.643  1.00  0.00     0.038 A 
HETATM   18  C2  UNL     1      26.755   7.326  47.646  1.00  0.00     0.069 A 
HETATM   19  C18 UNL     1      27.209   6.206  48.281  1.00  0.00     0.056 A 
HETATM   20  C17 UNL     1      26.244   5.420  48.918  1.00  0.00     0.025 A 
HETATM   21 BR1  UNL     1      26.856   3.846  49.813  1.00  0.00    -0.050 Br
BRANCH  18  22
HETATM   22  O1  UNL     1      27.635   8.153  46.995  1.00  0.00    -0.356 OA
HETATM   23  C1  UNL     1      28.963   7.783  46.649  1.00  0.00     0.210 C 
ENDBRANCH  18  22
ENDBRANCH   1  15
BRANCH   4  24
HETATM   24  N2  UNL     1      23.852   5.436  53.941  1.00  0.00    -0.377 N 
HETATM   25  H6  UNL     1      23.555   6.436  53.844  1.00  0.00     0.158 HD
HETATM   26  H7  UNL     1      24.302   4.968  54.777  1.00  0.00     0.158 HD
ENDBRANCH   4  24
TORSDOF 3
ENDMDL
MODEL 9
REMARK VINA RESULT:      -7.5      3.243      4.746
REMARK  3 active torsions:
REMARK  status: ('A' for Active; 'I' for Inactive)
REMARK    1  A    between atoms: O1_2  and  C2_3 
REMARK    2  A    between atoms: C5_6  and  C6_7 
REMARK    3  A    between atoms: C7_10  and  N2_11 
ROOT
HETATM    1  C6  UNL     1      23.687   3.682  50.777  1.00  0.00     0.078 C 
HETATM    2  N1  UNL     1      23.312   3.588  49.570  1.00  0.00    -0.130 NA
HETATM    3  O2  UNL     1      22.743   2.415  49.117  1.00  0.00    -0.194 OA
HETATM    4  C7  UNL     1      21.341   2.318  49.155  1.00  0.00     0.182 C 
HETATM    5  C8  UNL     1      20.666   2.058  50.253  1.00  0.00     0.148 C 
HETATM    6  N3  UNL     1      21.096   1.822  51.584  1.00  0.00    -0.357 N 
HETATM    7  C9  UNL     1      20.199   2.018  52.702  1.00  0.00     0.156 C 
HETATM    8  C10 UNL     1      22.305   1.375  52.211  1.00  0.00     0.040 A 
HETATM    9  C11 UNL     1      22.123   0.039  52.595  1.00  0.00     0.030 A 
HETATM   10  C12 UNL     1      23.082  -0.768  53.229  1.00  0.00     0.002 A 
HETATM   11  C13 UNL     1      24.284  -0.167  53.480  1.00  0.00     0.001 A 
HETATM   12  C14 UNL     1      24.443   1.139  53.099  1.00  0.00     0.010 A 
HETATM   13  C15 UNL     1      23.522   1.954  52.476  1.00  0.00    -0.025 A 
HETATM   14  C16 UNL     1      23.953   3.338  52.192  1.00  0.00     0.103 C 
ENDROOT
BRANCH   1  15
HETATM   15  C5  UNL     1      24.163   5.073  50.607  1.00  0.00     0.009 A 
HETATM   16  C4  UNL     1      23.459   6.217  50.951  1.00  0.00     0.017 A 
HETATM   17  C3  UNL     1      24.019   7.472  50.747  1.00  0.00     0.038 A 
HETATM   18  C2  UNL     1      25.266   7.620  50.206  1.00  0.00     0.069 A 
HETATM   19  C18 UNL     1      26.013   6.537  49.845  1.00  0.00     0.056 A 
HETATM   20  C17 UNL     1      25.433   5.283  50.058  1.00  0.00     0.025 A 
HETATM   21 BR1  UNL     1      26.461   3.751  49.559  1.00  0.00    -0.050 Br
BRANCH  18  22
HETATM   22  O1  UNL     1      25.760   8.888  50.031  1.00  0.00    -0.356 OA
HETATM   23  C1  UNL     1      27.136   9.224  50.141  1.00  0.00     0.210 C 
ENDBRANCH  18  22
ENDBRANCH   1  15
BRANCH   4  24
HETATM   24  N2  UNL     1      20.644   2.516  47.936  1.00  0.00    -0.377 N 
HETATM   25  H6  UNL     1      19.630   2.762  48.032  1.00  0.00     0.158 HD
HETATM   26  H7  UNL     1      21.204   2.398  47.046  1.00  0.00     0.158 HD
ENDBRANCH   4  24
TORSDOF 3
ENDMDL
