MODEL 1
REMARK VINA RESULT:      -7.8      0.000      0.000
REMARK  9 active torsions:
REMARK  status: ('A' for Active; 'I' for Inactive)
REMARK    1  A    between atoms: C2_2  and  C3_3 
REMARK    2  A    between atoms: C4_4  and  C5_5 
REMARK    3  A    between atoms: C4_4  and  N1_9 
REMARK    4  A    between atoms: N1_9  and  C8_10 
REMARK    5  A    between atoms: N1_9  and  C15_18 
REMARK    6  A    between atoms: C8_10  and  C9_11 
REMARK    7  A    between atoms: C12_14  and  O2_15 
REMARK    8  A    between atoms: C15_18  and  N2_19 
REMARK    9  A    between atoms: C15_18  and  C16_20 
ROOT
HETATM    1  N1  UNL     1      24.148   3.144  51.347  1.00  0.00    -0.341 N 
ENDROOT
BRANCH   1   2
HETATM    2  C4  UNL     1      25.488   3.147  50.865  1.00  0.00     0.069 C 
HETATM    3  C3  UNL     1      25.740   3.833  49.764  1.00  0.00     0.028 C 
BRANCH   3   4
HETATM    4  C2  UNL     1      27.032   3.965  49.109  1.00  0.00    -0.024 C 
HETATM    5  C1  UNL     1      27.651   4.995  48.611  1.00  0.00     0.031 C 
ENDBRANCH   3   4
BRANCH   2   6
HETATM    6  C5  UNL     1      26.522   2.409  51.581  1.00  0.00     0.131 A 
HETATM    7  C6  UNL     1      26.914   1.188  51.966  1.00  0.00     0.086 A 
HETATM    8  C7  UNL     1      26.781  -0.276  52.063  1.00  0.00     0.079 C 
HETATM    9  O1  UNL     1      27.656   2.338  52.276  1.00  0.00    -0.308 OA
ENDBRANCH   2   6
ENDBRANCH   1   2
BRANCH   1  10
HETATM   10  C8  UNL     1      23.485   1.944  50.809  1.00  0.00     0.164 C 
BRANCH  10  11
HETATM   11  C9  UNL     1      22.730   1.254  51.911  1.00  0.00    -0.040 A 
HETATM   12  C10 UNL     1      21.373   1.359  52.109  1.00  0.00     0.011 A 
HETATM   13  C11 UNL     1      20.819   0.664  53.165  1.00  0.00     0.037 A 
HETATM   14  C12 UNL     1      21.552  -0.116  54.015  1.00  0.00     0.065 A 
HETATM   15  C13 UNL     1      22.914  -0.237  53.839  1.00  0.00     0.037 A 
HETATM   16  C14 UNL     1      23.468   0.465  52.773  1.00  0.00     0.011 A 
BRANCH  14  17
HETATM   17  O2  UNL     1      21.005  -0.818  55.082  1.00  0.00    -0.361 OA
HETATM   18  H12 UNL     1      20.224  -0.387  55.563  1.00  0.00     0.217 HD
ENDBRANCH  14  17
ENDBRANCH  10  11
ENDBRANCH   1  10
BRANCH   1  19
HETATM   19  C15 UNL     1      23.508   4.100  52.197  1.00  0.00     0.353 C 
BRANCH  19  20
HETATM   20  N2  UNL     1      24.245   4.420  53.406  1.00  0.00     0.106 N 
HETATM   21  H16 UNL     1      25.232   4.620  53.123  1.00  0.00     0.316 HD
HETATM   22  H17 UNL     1      24.313   3.614  54.060  1.00  0.00     0.316 HD
ENDBRANCH  19  20
BRANCH  19  23
HETATM   23  C16 UNL     1      23.086   5.363  51.593  1.00  0.00    -0.006 A 
HETATM   24  C17 UNL     1      21.775   5.525  51.196  1.00  0.00     0.011 A 
HETATM   25  C18 UNL     1      21.286   6.676  50.618  1.00  0.00     0.001 A 
HETATM   26  C19 UNL     1      22.155   7.753  50.416  1.00  0.00     0.000 A 
HETATM   27  C20 UNL     1      23.475   7.610  50.808  1.00  0.00     0.001 A 
HETATM   28  C21 UNL     1      23.923   6.447  51.379  1.00  0.00     0.011 A 
ENDBRANCH  19  23
ENDBRANCH   1  19
TORSDOF 9
ENDMDL
MODEL 2
REMARK VINA RESULT:      -7.6      2.648      4.851
REMARK  9 active torsions:
REMARK  status: ('A' for Active; 'I' for Inactive)
REMARK    1  A    between atoms: C2_2  and  C3_3 
REMARK    2  A    between atoms: C4_4  and  C5_5 
REMARK    3  A    between atoms: C4_4  and  N1_9 
REMARK    4  A    between atoms: N1_9  and  C8_10 
REMARK    5  A    between atoms: N1_9  and  C15_18 
REMARK    6  A    between atoms: C8_10  and  C9_11 
REMARK    7  A    between atoms: C12_14  and  O2_15 
REMARK    8  A    between atoms: C15_18  and  N2_19 
REMARK    9  A    between atoms: C15_18  and  C16_20 
ROOT
HETATM    1  N1  UNL     1      25.088   2.909  51.031  1.00  0.00    -0.341 N 
ENDROOT
BRANCH   1   2
HETATM    2  C4  UNL     1      24.935   3.854  49.976  1.00  0.00     0.069 C 
HETATM    3  C3  UNL     1      25.869   4.778  49.845  1.00  0.00     0.028 C 
BRANCH   3   4
HETATM    4  C2  UNL     1      25.904   5.830  48.841  1.00  0.00    -0.024 C 
HETATM    5  C1  UNL     1      26.883   6.543  48.365  1.00  0.00     0.031 C 
ENDBRANCH   3   4
BRANCH   2   6
HETATM    6  C5  UNL     1      23.779   3.777  49.091  1.00  0.00     0.131 A 
HETATM    7  C6  UNL     1      22.788   2.984  48.667  1.00  0.00     0.086 A 
HETATM    8  C7  UNL     1      22.021   1.726  48.633  1.00  0.00     0.079 C 
HETATM    9  O1  UNL     1      22.945   4.295  48.191  1.00  0.00    -0.308 OA
ENDBRANCH   2   6
ENDBRANCH   1   2
BRANCH   1  10
HETATM   10  C8  UNL     1      26.155   1.972  50.637  1.00  0.00     0.164 C 
BRANCH  10  11
HETATM   11  C9  UNL     1      26.841   1.449  51.868  1.00  0.00    -0.040 A 
HETATM   12  C10 UNL     1      27.611   2.214  52.714  1.00  0.00     0.011 A 
HETATM   13  C11 UNL     1      28.179   1.593  53.807  1.00  0.00     0.037 A 
HETATM   14  C12 UNL     1      28.012   0.265  54.085  1.00  0.00     0.065 A 
HETATM   15  C13 UNL     1      27.246  -0.523  53.252  1.00  0.00     0.037 A 
HETATM   16  C14 UNL     1      26.676   0.107  52.151  1.00  0.00     0.011 A 
BRANCH  14  17
HETATM   17  O2  UNL     1      28.580  -0.371  55.182  1.00  0.00    -0.361 OA
HETATM   18  H12 UNL     1      28.616   0.154  56.048  1.00  0.00     0.217 HD
ENDBRANCH  14  17
ENDBRANCH  10  11
ENDBRANCH   1  10
BRANCH   1  19
HETATM   19  C15 UNL     1      24.371   2.832  52.267  1.00  0.00     0.353 C 
BRANCH  19  20
HETATM   20  N2  UNL     1      24.180   4.108  52.932  1.00  0.00     0.106 N 
HETATM   21  H16 UNL     1      24.906   4.179  53.681  1.00  0.00     0.316 HD
HETATM   22  H17 UNL     1      23.271   4.166  53.435  1.00  0.00     0.316 HD
ENDBRANCH  19  20
BRANCH  19  23
HETATM   23  C16 UNL     1      23.081   2.145  52.255  1.00  0.00    -0.006 A 
HETATM   24  C17 UNL     1      23.042   0.766  52.232  1.00  0.00     0.011 A 
HETATM   25  C18 UNL     1      21.876   0.032  52.220  1.00  0.00     0.001 A 
HETATM   26  C19 UNL     1      20.652   0.708  52.231  1.00  0.00     0.000 A 
HETATM   27  C20 UNL     1      20.670   2.092  52.254  1.00  0.00     0.001 A 
HETATM   28  C21 UNL     1      21.852   2.786  52.265  1.00  0.00     0.011 A 
ENDBRANCH  19  23
ENDBRANCH   1  19
TORSDOF 9
ENDMDL
MODEL 3
REMARK VINA RESULT:      -7.6      2.154      6.660
REMARK  9 active torsions:
REMARK  status: ('A' for Active; 'I' for Inactive)
REMARK    1  A    between atoms: C2_2  and  C3_3 
REMARK    2  A    between atoms: C4_4  and  C5_5 
REMARK    3  A    between atoms: C4_4  and  N1_9 
REMARK    4  A    between atoms: N1_9  and  C8_10 
REMARK    5  A    between atoms: N1_9  and  C15_18 
REMARK    6  A    between atoms: C8_10  and  C9_11 
REMARK    7  A    between atoms: C12_14  and  O2_15 
REMARK    8  A    between atoms: C15_18  and  N2_19 
REMARK    9  A    between atoms: C15_18  and  C16_20 
ROOT
HETATM    1  N1  UNL     1      23.832   2.707  51.470  1.00  0.00    -0.341 N 
ENDROOT
BRANCH   1   2
HETATM    2  C4  UNL     1      22.497   2.334  51.796  1.00  0.00     0.069 C 
HETATM    3  C3  UNL     1      21.578   3.283  51.788  1.00  0.00     0.028 C 
BRANCH   3   4
HETATM    4  C2  UNL     1      20.165   3.115  52.088  1.00  0.00    -0.024 C 
HETATM    5  C1  UNL     1      19.095   3.590  51.520  1.00  0.00     0.031 C 
ENDBRANCH   3   4
BRANCH   2   6
HETATM    6  C5  UNL     1      22.188   0.947  52.124  1.00  0.00     0.131 A 
HETATM    7  C6  UNL     1      22.488  -0.066  52.945  1.00  0.00     0.086 A 
HETATM    8  C7  UNL     1      23.219  -0.697  54.057  1.00  0.00     0.079 C 
HETATM    9  O1  UNL     1      21.520  -0.190  51.935  1.00  0.00    -0.308 OA
ENDBRANCH   2   6
ENDBRANCH   1   2
BRANCH   1  10
HETATM   10  C8  UNL     1      23.901   2.878  50.009  1.00  0.00     0.164 C 
BRANCH  10  11
HETATM   11  C9  UNL     1      25.028   3.811  49.666  1.00  0.00    -0.040 A 
HETATM   12  C10 UNL     1      26.297   3.407  49.322  1.00  0.00     0.011 A 
HETATM   13  C11 UNL     1      27.229   4.382  49.032  1.00  0.00     0.037 A 
HETATM   14  C12 UNL     1      26.951   5.720  49.071  1.00  0.00     0.065 A 
HETATM   15  C13 UNL     1      25.687   6.151  49.414  1.00  0.00     0.037 A 
HETATM   16  C14 UNL     1      24.751   5.165  49.706  1.00  0.00     0.011 A 
BRANCH  14  17
HETATM   17  O2  UNL     1      27.881   6.710  48.783  1.00  0.00    -0.361 OA
HETATM   18  H12 UNL     1      28.346   6.655  47.884  1.00  0.00     0.217 HD
ENDBRANCH  14  17
ENDBRANCH  10  11
ENDBRANCH   1  10
BRANCH   1  19
HETATM   19  C15 UNL     1      24.942   2.899  52.352  1.00  0.00     0.353 C 
BRANCH  19  20
HETATM   20  N2  UNL     1      24.622   3.608  53.578  1.00  0.00     0.106 N 
HETATM   21  H16 UNL     1      25.114   3.115  54.358  1.00  0.00     0.316 HD
HETATM   22  H17 UNL     1      23.612   3.552  53.822  1.00  0.00     0.316 HD
ENDBRANCH  19  20
BRANCH  19  23
HETATM   23  C16 UNL     1      25.723   1.718  52.718  1.00  0.00    -0.006 A 
HETATM   24  C17 UNL     1      26.208   1.592  54.003  1.00  0.00     0.011 A 
HETATM   25  C18 UNL     1      26.952   0.517  54.439  1.00  0.00     0.001 A 
HETATM   26  C19 UNL     1      27.239  -0.514  53.540  1.00  0.00     0.000 A 
HETATM   27  C20 UNL     1      26.761  -0.406  52.246  1.00  0.00     0.001 A 
HETATM   28  C21 UNL     1      26.025   0.680  51.851  1.00  0.00     0.011 A 
ENDBRANCH  19  23
ENDBRANCH   1  19
TORSDOF 9
ENDMDL
MODEL 4
REMARK VINA RESULT:      -7.5      2.606      5.166
REMARK  9 active torsions:
REMARK  status: ('A' for Active; 'I' for Inactive)
REMARK    1  A    between atoms: C2_2  and  C3_3 
REMARK    2  A    between atoms: C4_4  and  C5_5 
REMARK    3  A    between atoms: C4_4  and  N1_9 
REMARK    4  A    between atoms: N1_9  and  C8_10 
REMARK    5  A    between atoms: N1_9  and  C15_18 
REMARK    6  A    between atoms: C8_10  and  C9_11 
REMARK    7  A    between atoms: C12_14  and  O2_15 
REMARK    8  A    between atoms: C15_18  and  N2_19 
REMARK    9  A    between atoms: C15_18  and  C16_20 
ROOT
HETATM    1  N1  UNL     1      24.961   2.795  51.110  1.00  0.00    -0.341 N 
ENDROOT
BRANCH   1   2
HETATM    2  C4  UNL     1      24.419   3.470  49.979  1.00  0.00     0.069 C 
HETATM    3  C3  UNL     1      23.335   2.958  49.425  1.00  0.00     0.028 C 
BRANCH   3   4
HETATM    4  C2  UNL     1      22.627   3.488  48.270  1.00  0.00    -0.024 C 
HETATM    5  C1  UNL     1      22.199   2.922  47.180  1.00  0.00     0.031 C 
ENDBRANCH   3   4
BRANCH   2   6
HETATM    6  C5  UNL     1      25.060   4.678  49.475  1.00  0.00     0.131 A 
HETATM    7  C6  UNL     1      26.207   5.181  49.002  1.00  0.00     0.086 A 
HETATM    8  C7  UNL     1      27.622   5.100  48.599  1.00  0.00     0.079 C 
HETATM    9  O1  UNL     1      25.054   5.968  49.144  1.00  0.00    -0.308 OA
ENDBRANCH   2   6
ENDBRANCH   1   2
BRANCH   1  10
HETATM   10  C8  UNL     1      26.177   2.091  50.667  1.00  0.00     0.164 C 
BRANCH  10  11
HETATM   11  C9  UNL     1      26.879   1.505  51.860  1.00  0.00    -0.040 A 
HETATM   12  C10 UNL     1      27.618   2.234  52.763  1.00  0.00     0.011 A 
HETATM   13  C11 UNL     1      28.206   1.556  53.811  1.00  0.00     0.037 A 
HETATM   14  C12 UNL     1      28.088   0.207  53.992  1.00  0.00     0.065 A 
HETATM   15  C13 UNL     1      27.353  -0.546  53.100  1.00  0.00     0.037 A 
HETATM   16  C14 UNL     1      26.762   0.141  52.045  1.00  0.00     0.011 A 
BRANCH  14  17
HETATM   17  O2  UNL     1      28.676  -0.485  55.042  1.00  0.00    -0.361 OA
HETATM   18  H12 UNL     1      29.656  -0.722  54.945  1.00  0.00     0.217 HD
ENDBRANCH  14  17
ENDBRANCH  10  11
ENDBRANCH   1  10
BRANCH   1  19
HETATM   19  C15 UNL     1      24.465   2.769  52.452  1.00  0.00     0.353 C 
BRANCH  19  20
HETATM   20  N2  UNL     1      24.081   4.066  52.977  1.00  0.00     0.106 N 
HETATM   21  H16 UNL     1      24.943   4.510  53.368  1.00  0.00     0.316 HD
HETATM   22  H17 UNL     1      23.429   3.995  53.785  1.00  0.00     0.316 HD
ENDBRANCH  19  20
BRANCH  19  23
HETATM   23  C16 UNL     1      23.380   1.835  52.750  1.00  0.00    -0.006 A 
HETATM   24  C17 UNL     1      22.070   2.232  52.576  1.00  0.00     0.011 A 
HETATM   25  C18 UNL     1      20.984   1.423  52.830  1.00  0.00     0.001 A 
HETATM   26  C19 UNL     1      21.204   0.121  53.291  1.00  0.00     0.000 A 
HETATM   27  C20 UNL     1      22.512  -0.296  53.472  1.00  0.00     0.001 A 
HETATM   28  C21 UNL     1      23.566   0.540  53.208  1.00  0.00     0.011 A 
ENDBRANCH  19  23
ENDBRANCH   1  19
TORSDOF 9
ENDMDL
MODEL 5
REMARK VINA RESULT:      -7.4      2.098      6.996
REMARK  9 active torsions:
REMARK  status: ('A' for Active; 'I' for Inactive)
REMARK    1  A    between atoms: C2_2  and  C3_3 
REMARK    2  A    between atoms: C4_4  and  C5_5 
REMARK    3  A    between atoms: C4_4  and  N1_9 
REMARK    4  A    between atoms: N1_9  and  C8_10 
REMARK    5  A    between atoms: N1_9  and  C15_18 
REMARK    6  A    between atoms: C8_10  and  C9_11 
REMARK    7  A    between atoms: C12_14  and  O2_15 
REMARK    8  A    between atoms: C15_18  and  N2_19 
REMARK    9  A    between atoms: C15_18  and  C16_20 
ROOT
HETATM    1  N1  UNL     1      23.877   2.445  51.452  1.00  0.00    -0.341 N 
ENDROOT
BRANCH   1   2
HETATM    2  C4  UNL     1      22.561   2.043  51.820  1.00  0.00     0.069 C 
HETATM    3  C3  UNL     1      22.337   0.749  51.965  1.00  0.00     0.028 C 
BRANCH   3   4
HETATM    4  C2  UNL     1      21.073   0.132  52.334  1.00  0.00    -0.024 C 
HETATM    5  C1  UNL     1      20.595  -0.247  53.484  1.00  0.00     0.031 C 
ENDBRANCH   3   4
BRANCH   2   6
HETATM    6  C5  UNL     1      21.522   3.045  52.020  1.00  0.00     0.131 A 
HETATM    7  C6  UNL     1      21.167   4.308  51.753  1.00  0.00     0.086 A 
HETATM    8  C7  UNL     1      21.365   5.642  51.159  1.00  0.00     0.079 C 
HETATM    9  O1  UNL     1      20.352   3.451  52.509  1.00  0.00    -0.308 OA
ENDBRANCH   2   6
ENDBRANCH   1   2
BRANCH   1  10
HETATM   10  C8  UNL     1      23.916   2.546  49.983  1.00  0.00     0.164 C 
BRANCH  10  11
HETATM   11  C9  UNL     1      24.947   3.562  49.578  1.00  0.00    -0.040 A 
HETATM   12  C10 UNL     1      26.292   3.301  49.459  1.00  0.00     0.011 A 
HETATM   13  C11 UNL     1      27.119   4.338  49.076  1.00  0.00     0.037 A 
HETATM   14  C12 UNL     1      26.666   5.600  48.813  1.00  0.00     0.065 A 
HETATM   15  C13 UNL     1      25.322   5.888  48.927  1.00  0.00     0.037 A 
HETATM   16  C14 UNL     1      24.492   4.840  49.312  1.00  0.00     0.011 A 
BRANCH  14  17
HETATM   17  O2  UNL     1      27.488   6.651  48.429  1.00  0.00    -0.361 OA
HETATM   18  H12 UNL     1      27.114   7.302  47.749  1.00  0.00     0.217 HD
ENDBRANCH  14  17
ENDBRANCH  10  11
ENDBRANCH   1  10
BRANCH   1  19
HETATM   19  C15 UNL     1      24.994   2.716  52.303  1.00  0.00     0.353 C 
BRANCH  19  20
HETATM   20  N2  UNL     1      24.674   3.489  53.489  1.00  0.00     0.106 N 
HETATM   21  H16 UNL     1      23.688   3.822  53.385  1.00  0.00     0.316 HD
HETATM   22  H17 UNL     1      25.242   4.357  53.568  1.00  0.00     0.316 HD
ENDBRANCH  19  20
BRANCH  19  23
HETATM   23  C16 UNL     1      25.810   1.579  52.726  1.00  0.00    -0.006 A 
HETATM   24  C17 UNL     1      26.263   1.510  54.027  1.00  0.00     0.011 A 
HETATM   25  C18 UNL     1      27.036   0.480  54.516  1.00  0.00     0.001 A 
HETATM   26  C19 UNL     1      27.389  -0.566  53.658  1.00  0.00     0.000 A 
HETATM   27  C20 UNL     1      26.944  -0.515  52.348  1.00  0.00     0.001 A 
HETATM   28  C21 UNL     1      26.178   0.529  51.900  1.00  0.00     0.011 A 
ENDBRANCH  19  23
ENDBRANCH   1  19
TORSDOF 9
ENDMDL
MODEL 6
REMARK VINA RESULT:      -7.2      2.365      6.517
REMARK  9 active torsions:
REMARK  status: ('A' for Active; 'I' for Inactive)
REMARK    1  A    between atoms: C2_2  and  C3_3 
REMARK    2  A    between atoms: C4_4  and  C5_5 
REMARK    3  A    between atoms: C4_4  and  N1_9 
REMARK    4  A    between atoms: N1_9  and  C8_10 
REMARK    5  A    between atoms: N1_9  and  C15_18 
REMARK    6  A    between atoms: C8_10  and  C9_11 
REMARK    7  A    between atoms: C12_14  and  O2_15 
REMARK    8  A    between atoms: C15_18  and  N2_19 
REMARK    9  A    between atoms: C15_18  and  C16_20 
ROOT
HETATM    1  N1  UNL     1      24.643   2.218  52.134  1.00  0.00    -0.341 N 
ENDROOT
BRANCH   1   2
HETATM    2  C4  UNL     1      23.477   1.403  52.083  1.00  0.00     0.069 C 
HETATM    3  C3  UNL     1      23.149   0.738  53.176  1.00  0.00     0.028 C 
BRANCH   3   4
HETATM    4  C2  UNL     1      22.004  -0.145  53.335  1.00  0.00    -0.024 C 
HETATM    5  C1  UNL     1      21.552  -0.802  54.363  1.00  0.00     0.031 C 
ENDBRANCH   3   4
BRANCH   2   6
HETATM    6  C5  UNL     1      22.694   1.326  50.855  1.00  0.00     0.131 A 
HETATM    7  C6  UNL     1      22.539   1.849  49.633  1.00  0.00     0.086 A 
HETATM    8  C7  UNL     1      22.874   2.775  48.537  1.00  0.00     0.079 C 
HETATM    9  O1  UNL     1      21.726   0.806  50.103  1.00  0.00    -0.308 OA
ENDBRANCH   2   6
ENDBRANCH   1   2
BRANCH   1  10
HETATM   10  C8  UNL     1      24.321   3.405  52.945  1.00  0.00     0.164 C 
BRANCH  10  11
HETATM   11  C9  UNL     1      23.456   4.338  52.146  1.00  0.00    -0.040 A 
HETATM   12  C10 UNL     1      22.094   4.462  52.300  1.00  0.00     0.011 A 
HETATM   13  C11 UNL     1      21.433   5.364  51.491  1.00  0.00     0.037 A 
HETATM   14  C12 UNL     1      22.063   6.133  50.554  1.00  0.00     0.065 A 
HETATM   15  C13 UNL     1      23.428   6.028  50.380  1.00  0.00     0.037 A 
HETATM   16  C14 UNL     1      24.090   5.117  51.197  1.00  0.00     0.011 A 
BRANCH  14  17
HETATM   17  O2  UNL     1      21.408   7.044  49.735  1.00  0.00    -0.361 OA
HETATM   18  H12 UNL     1      21.968   7.518  49.037  1.00  0.00     0.217 HD
ENDBRANCH  14  17
ENDBRANCH  10  11
ENDBRANCH   1  10
BRANCH   1  19
HETATM   19  C15 UNL     1      25.919   1.983  51.531  1.00  0.00     0.353 C 
BRANCH  19  20
HETATM   20  N2  UNL     1      26.647   3.187  51.173  1.00  0.00     0.106 N 
HETATM   21  H16 UNL     1      27.078   3.021  50.234  1.00  0.00     0.316 HD
HETATM   22  H17 UNL     1      27.451   3.374  51.806  1.00  0.00     0.316 HD
ENDBRANCH  19  20
BRANCH  19  23
HETATM   23  C16 UNL     1      26.847   1.104  52.241  1.00  0.00    -0.006 A 
HETATM   24  C17 UNL     1      26.687  -0.264  52.162  1.00  0.00     0.011 A 
HETATM   25  C18 UNL     1      27.510  -1.169  52.795  1.00  0.00     0.001 A 
HETATM   26  C19 UNL     1      28.574  -0.691  53.566  1.00  0.00     0.000 A 
HETATM   27  C20 UNL     1      28.752   0.678  53.657  1.00  0.00     0.001 A 
HETATM   28  C21 UNL     1      27.910   1.547  53.012  1.00  0.00     0.011 A 
ENDBRANCH  19  23
ENDBRANCH   1  19
TORSDOF 9
ENDMDL
MODEL 7
REMARK VINA RESULT:      -7.2      1.954      5.406
REMARK  9 active torsions:
REMARK  status: ('A' for Active; 'I' for Inactive)
REMARK    1  A    between atoms: C2_2  and  C3_3 
REMARK    2  A    between atoms: C4_4  and  C5_5 
REMARK    3  A    between atoms: C4_4  and  N1_9 
REMARK    4  A    between atoms: N1_9  and  C8_10 
REMARK    5  A    between atoms: N1_9  and  C15_18 
REMARK    6  A    between atoms: C8_10  and  C9_11 
REMARK    7  A    between atoms: C12_14  and  O2_15 
REMARK    8  A    between atoms: C15_18  and  N2_19 
REMARK    9  A    between atoms: C15_18  and  C16_20 
ROOT
HETATM    1  N1  UNL     1      23.738   3.000  51.826  1.00  0.00    -0.341 N 
ENDROOT
BRANCH   1   2
HETATM    2  C4  UNL     1      25.053   2.913  51.285  1.00  0.00     0.069 C 
HETATM    3  C3  UNL     1      25.267   3.476  50.109  1.00  0.00     0.028 C 
BRANCH   3   4
HETATM    4  C2  UNL     1      26.527   3.502  49.384  1.00  0.00    -0.024 C 
HETATM    5  C1  UNL     1      27.254   4.487  48.943  1.00  0.00     0.031 C 
ENDBRANCH   3   4
BRANCH   2   6
HETATM    6  C5  UNL     1      26.102   2.222  52.024  1.00  0.00     0.131 A 
HETATM    7  C6  UNL     1      26.653   1.025  52.262  1.00  0.00     0.086 A 
HETATM    8  C7  UNL     1      26.772  -0.434  52.099  1.00  0.00     0.079 C 
HETATM    9  O1  UNL     1      27.132   2.198  52.868  1.00  0.00    -0.308 OA
ENDBRANCH   2   6
ENDBRANCH   1   2
BRANCH   1  10
HETATM   10  C8  UNL     1      23.695   4.184  52.700  1.00  0.00     0.164 C 
BRANCH  10  11
HETATM   11  C9  UNL     1      23.262   5.381  51.901  1.00  0.00    -0.040 A 
HETATM   12  C10 UNL     1      24.096   6.408  51.523  1.00  0.00     0.011 A 
HETATM   13  C11 UNL     1      23.554   7.443  50.788  1.00  0.00     0.037 A 
HETATM   14  C12 UNL     1      22.238   7.492  50.421  1.00  0.00     0.065 A 
HETATM   15  C13 UNL     1      21.382   6.475  50.788  1.00  0.00     0.037 A 
HETATM   16  C14 UNL     1      21.932   5.435  51.529  1.00  0.00     0.011 A 
BRANCH  14  17
HETATM   17  O2  UNL     1      21.682   8.528  49.683  1.00  0.00    -0.361 OA
HETATM   18  H12 UNL     1      22.040   9.460  49.856  1.00  0.00     0.217 HD
ENDBRANCH  14  17
ENDBRANCH  10  11
ENDBRANCH   1  10
BRANCH   1  19
HETATM   19  C15 UNL     1      22.625   2.130  51.600  1.00  0.00     0.353 C 
BRANCH  19  20
HETATM   20  N2  UNL     1      22.667   1.413  50.339  1.00  0.00     0.106 N 
HETATM   21  H16 UNL     1      21.728   1.518  49.891  1.00  0.00     0.316 HD
HETATM   22  H17 UNL     1      22.789   0.387  50.464  1.00  0.00     0.316 HD
ENDBRANCH  19  20
BRANCH  19  23
HETATM   23  C16 UNL     1      22.305   1.161  52.647  1.00  0.00    -0.006 A 
HETATM   24  C17 UNL     1      21.071   1.203  53.262  1.00  0.00     0.011 A 
HETATM   25  C18 UNL     1      20.680   0.333  54.256  1.00  0.00     0.001 A 
HETATM   26  C19 UNL     1      21.574  -0.657  54.677  1.00  0.00     0.000 A 
HETATM   27  C20 UNL     1      22.817  -0.716  54.072  1.00  0.00     0.001 A 
HETATM   28  C21 UNL     1      23.168   0.169  53.086  1.00  0.00     0.011 A 
ENDBRANCH  19  23
ENDBRANCH   1  19
TORSDOF 9
ENDMDL
MODEL 8
REMARK VINA RESULT:      -7.1      2.192      5.571
REMARK  9 active torsions:
REMARK  status: ('A' for Active; 'I' for Inactive)
REMARK    1  A    between atoms: C2_2  and  C3_3 
REMARK    2  A    between atoms: C4_4  and  C5_5 
REMARK    3  A    between atoms: C4_4  and  N1_9 
REMARK    4  A    between atoms: N1_9  and  C8_10 
REMARK    5  A    between atoms: N1_9  and  C15_18 
REMARK    6  A    between atoms: C8_10  and  C9_11 
REMARK    7  A    between atoms: C12_14  and  O2_15 
REMARK    8  A    between atoms: C15_18  and  N2_19 
REMARK    9  A    between atoms: C15_18  and  C16_20 
ROOT
HETATM    1  N1  UNL     1      22.924   2.261  51.456  1.00  0.00    -0.341 N 
ENDROOT
BRANCH   1   2
HETATM    2  C4  UNL     1      21.567   1.969  51.772  1.00  0.00     0.069 C 
HETATM    3  C3  UNL     1      21.257   0.711  52.031  1.00  0.00     0.028 C 
BRANCH   3   4
HETATM    4  C2  UNL     1      19.939   0.203  52.374  1.00  0.00    -0.024 C 
HETATM    5  C1  UNL     1      19.526  -0.546  53.355  1.00  0.00     0.031 C 
ENDBRANCH   3   4
BRANCH   2   6
HETATM    6  C5  UNL     1      20.579   3.041  51.802  1.00  0.00     0.131 A 
HETATM    7  C6  UNL     1      20.243   4.222  51.269  1.00  0.00     0.086 A 
HETATM    8  C7  UNL     1      20.433   5.368  50.364  1.00  0.00     0.079 C 
HETATM    9  O1  UNL     1      19.465   3.606  52.263  1.00  0.00    -0.308 OA
ENDBRANCH   2   6
ENDBRANCH   1   2
BRANCH   1  10
HETATM   10  C8  UNL     1      23.594   2.669  52.703  1.00  0.00     0.164 C 
BRANCH  10  11
HETATM   11  C9  UNL     1      24.649   1.659  53.058  1.00  0.00    -0.040 A 
HETATM   12  C10 UNL     1      24.443   0.299  53.096  1.00  0.00     0.011 A 
HETATM   13  C11 UNL     1      25.510  -0.506  53.440  1.00  0.00     0.037 A 
HETATM   14  C12 UNL     1      26.750  -0.017  53.742  1.00  0.00     0.065 A 
HETATM   15  C13 UNL     1      26.982   1.342  53.712  1.00  0.00     0.037 A 
HETATM   16  C14 UNL     1      25.904   2.149  53.365  1.00  0.00     0.011 A 
BRANCH  14  17
HETATM   17  O2  UNL     1      27.831  -0.817  54.090  1.00  0.00    -0.361 OA
HETATM   18  H12 UNL     1      27.823  -1.772  53.752  1.00  0.00     0.217 HD
ENDBRANCH  14  17
ENDBRANCH  10  11
ENDBRANCH   1  10
BRANCH   1  19
HETATM   19  C15 UNL     1      23.576   2.189  50.184  1.00  0.00     0.353 C 
BRANCH  19  20
HETATM   20  N2  UNL     1      22.686   1.934  49.066  1.00  0.00     0.106 N 
HETATM   21  H16 UNL     1      22.808   0.932  48.794  1.00  0.00     0.316 HD
HETATM   22  H17 UNL     1      22.946   2.474  48.215  1.00  0.00     0.316 HD
ENDBRANCH  19  20
BRANCH  19  23
HETATM   23  C16 UNL     1      24.445   3.304  49.809  1.00  0.00    -0.006 A 
HETATM   24  C17 UNL     1      25.811   3.117  49.759  1.00  0.00     0.011 A 
HETATM   25  C18 UNL     1      26.707   4.106  49.417  1.00  0.00     0.001 A 
HETATM   26  C19 UNL     1      26.221   5.378  49.098  1.00  0.00     0.000 A 
HETATM   27  C20 UNL     1      24.853   5.585  49.142  1.00  0.00     0.001 A 
HETATM   28  C21 UNL     1      23.994   4.575  49.488  1.00  0.00     0.011 A 
ENDBRANCH  19  23
ENDBRANCH   1  19
TORSDOF 9
ENDMDL
MODEL 9
REMARK VINA RESULT:      -7.1      2.190      6.242
REMARK  9 active torsions:
REMARK  status: ('A' for Active; 'I' for Inactive)
REMARK    1  A    between atoms: C2_2  and  C3_3 
REMARK    2  A    between atoms: C4_4  and  C5_5 
REMARK    3  A    between atoms: C4_4  and  N1_9 
REMARK    4  A    between atoms: N1_9  and  C8_10 
REMARK    5  A    between atoms: N1_9  and  C15_18 
REMARK    6  A    between atoms: C8_10  and  C9_11 
REMARK    7  A    between atoms: C12_14  and  O2_15 
REMARK    8  A    between atoms: C15_18  and  N2_19 
REMARK    9  A    between atoms: C15_18  and  C16_20 
ROOT
HETATM    1  N1  UNL     1      24.624   2.171  52.012  1.00  0.00    -0.341 N 
ENDROOT
BRANCH   1   2
HETATM    2  C4  UNL     1      23.473   1.363  51.788  1.00  0.00     0.069 C 
HETATM    3  C3  UNL     1      22.850   1.495  50.630  1.00  0.00     0.028 C 
BRANCH   3   4
HETATM    4  C2  UNL     1      21.664   0.769  50.204  1.00  0.00    -0.024 C 
HETATM    5  C1  UNL     1      20.400   1.077  50.237  1.00  0.00     0.031 C 
ENDBRANCH   3   4
BRANCH   2   6
HETATM    6  C5  UNL     1      23.024   0.433  52.817  1.00  0.00     0.131 A 
HETATM    7  C6  UNL     1      22.023   0.149  53.659  1.00  0.00     0.086 A 
HETATM    8  C7  UNL     1      20.705   0.381  54.277  1.00  0.00     0.079 C 
HETATM    9  O1  UNL     1      23.182  -0.639  53.590  1.00  0.00    -0.308 OA
ENDBRANCH   2   6
ENDBRANCH   1   2
BRANCH   1  10
HETATM   10  C8  UNL     1      24.233   3.257  52.928  1.00  0.00     0.164 C 
BRANCH  10  11
HETATM   11  C9  UNL     1      23.316   4.209  52.213  1.00  0.00    -0.040 A 
HETATM   12  C10 UNL     1      21.944   4.191  52.312  1.00  0.00     0.011 A 
HETATM   13  C11 UNL     1      21.233   5.132  51.595  1.00  0.00     0.037 A 
HETATM   14  C12 UNL     1      21.825   6.072  50.798  1.00  0.00     0.065 A 
HETATM   15  C13 UNL     1      23.199   6.110  50.682  1.00  0.00     0.037 A 
HETATM   16  C14 UNL     1      23.911   5.160  51.406  1.00  0.00     0.011 A 
BRANCH  14  17
HETATM   17  O2  UNL     1      21.120   7.022  50.072  1.00  0.00    -0.361 OA
HETATM   18  H12 UNL     1      20.110   7.005  50.152  1.00  0.00     0.217 HD
ENDBRANCH  14  17
ENDBRANCH  10  11
ENDBRANCH   1  10
BRANCH   1  19
HETATM   19  C15 UNL     1      25.941   2.010  51.477  1.00  0.00     0.353 C 
BRANCH  19  20
HETATM   20  N2  UNL     1      26.631   3.255  51.191  1.00  0.00     0.106 N 
HETATM   21  H16 UNL     1      26.909   3.230  50.183  1.00  0.00     0.316 HD
HETATM   22  H17 UNL     1      27.526   3.347  51.712  1.00  0.00     0.316 HD
ENDBRANCH  19  20
BRANCH  19  23
HETATM   23  C16 UNL     1      26.868   1.154  52.216  1.00  0.00    -0.006 A 
HETATM   24  C17 UNL     1      26.701  -0.215  52.190  1.00  0.00     0.011 A 
HETATM   25  C18 UNL     1      27.523  -1.099  52.855  1.00  0.00     0.001 A 
HETATM   26  C19 UNL     1      28.593  -0.597  53.601  1.00  0.00     0.000 A 
HETATM   27  C20 UNL     1      28.777   0.774  53.639  1.00  0.00     0.001 A 
HETATM   28  C21 UNL     1      27.937   1.622  52.965  1.00  0.00     0.011 A 
ENDBRANCH  19  23
ENDBRANCH   1  19
TORSDOF 9
ENDMDL
