MODEL 1
REMARK VINA RESULT:      -8.6      0.000      0.000
REMARK  1 active torsions:
REMARK  status: ('A' for Active; 'I' for Inactive)
REMARK    1  A    between atoms: C5_6  and  C6_7 
ROOT
HETATM    1  C6  UNL     1      24.284   0.440  52.991  1.00  0.00     0.039 C 
HETATM    2  C7  UNL     1      24.313   1.204  51.640  1.00  0.00    -0.006 C 
HETATM    3  C8  UNL     1      25.627   1.426  51.607  1.00  0.00     0.011 C 
HETATM    4  C9  UNL     1      25.591   1.681  53.047  1.00  0.00    -0.008 C 
HETATM    5  C10 UNL     1      24.481   1.680  53.830  1.00  0.00     0.007 C 
HETATM    6  C11 UNL     1      27.016   1.569  53.629  1.00  0.00     0.096 A 
HETATM    7  N1  UNL     1      27.857   2.587  53.363  1.00  0.00    -0.239 NA
HETATM    8  C12 UNL     1      29.075   2.291  53.983  1.00  0.00     0.233 A 
HETATM    9  N2  UNL     1      29.355   1.197  54.711  1.00  0.00    -0.252 NA
HETATM   10  C13 UNL     1      28.537   0.175  54.987  1.00  0.00     0.149 A 
HETATM   11  C14 UNL     1      27.318   0.346  54.432  1.00  0.00     0.075 A 
HETATM   12  N3  UNL     1      26.167  -0.606  54.345  1.00  0.00    -0.385 N 
HETATM   13  C15 UNL     1      25.167  -0.641  53.230  1.00  0.00     0.142 C 
HETATM   14  H9  UNL     1      26.333  -1.176  55.241  1.00  0.00     0.159 HD
ENDROOT
BRANCH   1  15
HETATM   15  C5  UNL     1      22.850   0.069  53.100  1.00  0.00    -0.039 A 
HETATM   16  C4  UNL     1      22.579  -0.782  54.185  1.00  0.00     0.009 A 
HETATM   17  C3  UNL     1      21.322  -1.301  54.532  1.00  0.00     0.002 A 
HETATM   18  C2  UNL     1      20.256  -0.943  53.738  1.00  0.00     0.019 A 
HETATM   19  C1  UNL     1      20.475  -0.110  52.664  1.00  0.00     0.011 A 
HETATM   20 BR1  UNL     1      19.063   0.439  51.509  1.00  0.00    -0.051 Br
HETATM   21  C16 UNL     1      21.729   0.367  52.371  1.00  0.00     0.027 A 
ENDBRANCH   1  15
TORSDOF 1
ENDMDL
MODEL 2
REMARK VINA RESULT:      -8.6      2.445      3.535
REMARK  1 active torsions:
REMARK  status: ('A' for Active; 'I' for Inactive)
REMARK    1  A    between atoms: C5_6  and  C6_7 
ROOT
HETATM    1  C6  UNL     1      25.115   1.284  53.138  1.00  0.00     0.039 C 
HETATM    2  C7  UNL     1      24.229   0.071  53.527  1.00  0.00    -0.006 C 
HETATM    3  C8  UNL     1      25.211  -0.710  53.976  1.00  0.00     0.011 C 
HETATM    4  C9  UNL     1      26.052  -0.233  52.878  1.00  0.00    -0.008 C 
HETATM    5  C10 UNL     1      25.673   0.628  51.899  1.00  0.00     0.007 C 
HETATM    6  C11 UNL     1      27.534  -0.529  53.194  1.00  0.00     0.096 A 
HETATM    7  N1  UNL     1      27.930  -1.812  53.080  1.00  0.00    -0.239 NA
HETATM    8  C12 UNL     1      29.291  -1.856  53.399  1.00  0.00     0.233 A 
HETATM    9  N2  UNL     1      30.061  -0.815  53.752  1.00  0.00    -0.252 NA
HETATM   10  C13 UNL     1      29.690   0.466  53.871  1.00  0.00     0.149 A 
HETATM   11  C14 UNL     1      28.380   0.635  53.590  1.00  0.00     0.075 A 
HETATM   12  N3  UNL     1      27.519   1.847  53.753  1.00  0.00    -0.385 N 
HETATM   13  C15 UNL     1      26.052   1.820  54.056  1.00  0.00     0.142 C 
HETATM   14  H9  UNL     1      28.256   2.617  53.616  1.00  0.00     0.159 HD
ENDROOT
BRANCH   1  15
HETATM   15  C5  UNL     1      24.101   2.269  52.684  1.00  0.00    -0.039 A 
HETATM   16  C4  UNL     1      22.789   1.766  52.713  1.00  0.00     0.009 A 
HETATM   17  C3  UNL     1      21.630   2.463  52.335  1.00  0.00     0.002 A 
HETATM   18  C2  UNL     1      21.792   3.758  51.898  1.00  0.00     0.019 A 
HETATM   19  C1  UNL     1      23.061   4.292  51.854  1.00  0.00     0.011 A 
HETATM   20 BR1  UNL     1      23.384   6.074  51.262  1.00  0.00    -0.051 Br
HETATM   21  C16 UNL     1      24.160   3.562  52.235  1.00  0.00     0.027 A 
ENDBRANCH   1  15
TORSDOF 1
ENDMDL
MODEL 3
REMARK VINA RESULT:      -8.3      1.300      2.661
REMARK  1 active torsions:
REMARK  status: ('A' for Active; 'I' for Inactive)
REMARK    1  A    between atoms: C5_6  and  C6_7 
ROOT
HETATM    1  C6  UNL     1      24.223   0.641  53.026  1.00  0.00     0.039 C 
HETATM    2  C7  UNL     1      23.888  -0.549  53.964  1.00  0.00    -0.006 C 
HETATM    3  C8  UNL     1      25.028  -0.537  54.655  1.00  0.00     0.011 C 
HETATM    4  C9  UNL     1      25.743  -0.247  53.413  1.00  0.00    -0.008 C 
HETATM    5  C10 UNL     1      25.189  -0.148  52.177  1.00  0.00     0.007 C 
HETATM    6  C11 UNL     1      27.143   0.316  53.740  1.00  0.00     0.096 A 
HETATM    7  N1  UNL     1      28.058  -0.567  54.185  1.00  0.00    -0.239 NA
HETATM    8  C12 UNL     1      29.243   0.141  54.410  1.00  0.00     0.233 A 
HETATM    9  N2  UNL     1      29.435   1.456  54.218  1.00  0.00    -0.252 NA
HETATM   10  C13 UNL     1      28.541   2.351  53.779  1.00  0.00     0.149 A 
HETATM   11  C14 UNL     1      27.343   1.781  53.529  1.00  0.00     0.075 A 
HETATM   12  N3  UNL     1      26.035   2.420  53.187  1.00  0.00    -0.385 N 
HETATM   13  C15 UNL     1      24.691   1.870  53.555  1.00  0.00     0.142 C 
HETATM   14  H9  UNL     1      26.388   3.299  52.679  1.00  0.00     0.159 HD
ENDROOT
BRANCH   1  15
HETATM   15  C5  UNL     1      22.969   0.774  52.243  1.00  0.00    -0.039 A 
HETATM   16  C4  UNL     1      23.136   1.491  51.046  1.00  0.00     0.009 A 
HETATM   17  C3  UNL     1      22.131   1.780  50.110  1.00  0.00     0.002 A 
HETATM   18  C2  UNL     1      20.864   1.317  50.388  1.00  0.00     0.019 A 
HETATM   19  C1  UNL     1      20.654   0.608  51.550  1.00  0.00     0.011 A 
HETATM   20 BR1  UNL     1      18.938  -0.071  52.020  1.00  0.00    -0.051 Br
HETATM   21  C16 UNL     1      21.677   0.356  52.431  1.00  0.00     0.027 A 
ENDBRANCH   1  15
TORSDOF 1
ENDMDL
MODEL 4
REMARK VINA RESULT:      -8.2      3.817      6.358
REMARK  1 active torsions:
REMARK  status: ('A' for Active; 'I' for Inactive)
REMARK    1  A    between atoms: C5_6  and  C6_7 
ROOT
HETATM    1  C6  UNL     1      25.616   1.880  52.292  1.00  0.00     0.039 C 
HETATM    2  C7  UNL     1      24.593   0.719  52.407  1.00  0.00    -0.006 C 
HETATM    3  C8  UNL     1      23.553   1.365  51.879  1.00  0.00     0.011 C 
HETATM    4  C9  UNL     1      23.977   2.570  52.592  1.00  0.00    -0.008 C 
HETATM    5  C10 UNL     1      25.032   2.664  53.443  1.00  0.00     0.007 C 
HETATM    6  C11 UNL     1      23.311   3.809  51.958  1.00  0.00     0.096 A 
HETATM    7  N1  UNL     1      22.002   3.989  52.218  1.00  0.00    -0.239 NA
HETATM    8  C12 UNL     1      21.605   5.159  51.562  1.00  0.00     0.233 A 
HETATM    9  N2  UNL     1      22.384   5.957  50.814  1.00  0.00    -0.252 NA
HETATM   10  C13 UNL     1      23.685   5.798  50.543  1.00  0.00     0.149 A 
HETATM   11  C14 UNL     1      24.185   4.687  51.124  1.00  0.00     0.075 A 
HETATM   12  N3  UNL     1      25.525   4.044  50.956  1.00  0.00    -0.385 N 
HETATM   13  C15 UNL     1      25.789   2.573  51.069  1.00  0.00     0.142 C 
HETATM   14  H9  UNL     1      26.119   4.911  50.734  1.00  0.00     0.159 HD
ENDROOT
BRANCH   1  15
HETATM   15  C5  UNL     1      26.859   1.241  52.793  1.00  0.00    -0.039 A 
HETATM   16  C4  UNL     1      27.743   2.149  53.401  1.00  0.00     0.009 A 
HETATM   17  C3  UNL     1      28.993   1.836  53.958  1.00  0.00     0.002 A 
HETATM   18  C2  UNL     1      29.391   0.520  53.903  1.00  0.00     0.019 A 
HETATM   19  C1  UNL     1      28.556  -0.405  53.316  1.00  0.00     0.011 A 
HETATM   20 BR1  UNL     1      29.020  -2.249  53.194  1.00  0.00    -0.051 Br
HETATM   21  C16 UNL     1      27.342  -0.041  52.786  1.00  0.00     0.027 A 
ENDBRANCH   1  15
TORSDOF 1
ENDMDL
MODEL 5
REMARK VINA RESULT:      -8.1      2.975      5.524
REMARK  1 active torsions:
REMARK  status: ('A' for Active; 'I' for Inactive)
REMARK    1  A    between atoms: C5_6  and  C6_7 
ROOT
HETATM    1  C6  UNL     1      25.115   1.781  51.855  1.00  0.00     0.039 C 
HETATM    2  C7  UNL     1      26.474   1.063  51.643  1.00  0.00    -0.006 C 
HETATM    3  C8  UNL     1      26.178  -0.047  52.319  1.00  0.00     0.011 C 
HETATM    4  C9  UNL     1      25.479   0.775  53.306  1.00  0.00    -0.008 C 
HETATM    5  C10 UNL     1      25.392   2.130  53.297  1.00  0.00     0.007 C 
HETATM    6  C11 UNL     1      24.529  -0.111  54.139  1.00  0.00     0.096 A 
HETATM    7  N1  UNL     1      25.103  -0.912  55.058  1.00  0.00    -0.239 NA
HETATM    8  C12 UNL     1      24.076  -1.613  55.697  1.00  0.00     0.233 A 
HETATM    9  N2  UNL     1      22.761  -1.507  55.446  1.00  0.00    -0.252 NA
HETATM   10  C13 UNL     1      22.169  -0.719  54.540  1.00  0.00     0.149 A 
HETATM   11  C14 UNL     1      23.070   0.011  53.847  1.00  0.00     0.075 A 
HETATM   12  N3  UNL     1      22.871   0.884  52.649  1.00  0.00    -0.385 N 
HETATM   13  C15 UNL     1      23.895   1.117  51.580  1.00  0.00     0.142 C 
HETATM   14  H9  UNL     1      21.859   1.202  52.820  1.00  0.00     0.159 HD
ENDROOT
BRANCH   1  15
HETATM   15  C5  UNL     1      25.303   3.026  51.067  1.00  0.00    -0.039 A 
HETATM   16  C4  UNL     1      26.400   2.967  50.191  1.00  0.00     0.009 A 
HETATM   17  C3  UNL     1      26.824   3.991  49.329  1.00  0.00     0.002 A 
HETATM   18  C2  UNL     1      26.099   5.160  49.343  1.00  0.00     0.019 A 
HETATM   19  C1  UNL     1      25.014   5.263  50.186  1.00  0.00     0.011 A 
HETATM   20 BR1  UNL     1      23.951   6.841  50.274  1.00  0.00    -0.051 Br
HETATM   21  C16 UNL     1      24.646   4.227  51.009  1.00  0.00     0.027 A 
ENDBRANCH   1  15
TORSDOF 1
ENDMDL
MODEL 6
REMARK VINA RESULT:      -7.9      3.964      7.221
REMARK  1 active torsions:
REMARK  status: ('A' for Active; 'I' for Inactive)
REMARK    1  A    between atoms: C5_6  and  C6_7 
ROOT
HETATM    1  C6  UNL     1      21.637   0.802  52.859  1.00  0.00     0.039 C 
HETATM    2  C7  UNL     1      21.261   2.211  52.329  1.00  0.00    -0.006 C 
HETATM    3  C8  UNL     1      19.938   2.048  52.362  1.00  0.00     0.011 C 
HETATM    4  C9  UNL     1      20.125   0.677  51.887  1.00  0.00    -0.008 C 
HETATM    5  C10 UNL     1      21.310   0.099  51.564  1.00  0.00     0.007 C 
HETATM    6  C11 UNL     1      18.850  -0.147  52.170  1.00  0.00     0.096 A 
HETATM    7  N1  UNL     1      17.788   0.095  51.378  1.00  0.00    -0.239 NA
HETATM    8  C12 UNL     1      16.757  -0.753  51.795  1.00  0.00     0.233 A 
HETATM    9  N2  UNL     1      16.815  -1.644  52.797  1.00  0.00    -0.252 NA
HETATM   10  C13 UNL     1      17.857  -1.901  53.596  1.00  0.00     0.149 A 
HETATM   11  C14 UNL     1      18.924  -1.131  53.291  1.00  0.00     0.075 A 
HETATM   12  N3  UNL     1      20.222  -0.968  54.016  1.00  0.00    -0.385 N 
HETATM   13  C15 UNL     1      21.039   0.287  54.036  1.00  0.00     0.142 C 
HETATM   14  H9  UNL     1      20.306  -1.941  54.463  1.00  0.00     0.159 HD
ENDROOT
BRANCH   1  15
HETATM   15  C5  UNL     1      23.118   0.892  52.938  1.00  0.00    -0.039 A 
HETATM   16  C4  UNL     1      23.588   2.213  53.032  1.00  0.00     0.009 A 
HETATM   17  C3  UNL     1      24.933   2.606  53.114  1.00  0.00     0.002 A 
HETATM   18  C2  UNL     1      25.879   1.606  53.101  1.00  0.00     0.019 A 
HETATM   19  C1  UNL     1      25.464   0.296  53.011  1.00  0.00     0.011 A 
HETATM   20 BR1  UNL     1      26.698  -1.154  52.986  1.00  0.00    -0.051 Br
HETATM   21  C16 UNL     1      24.132  -0.030  52.933  1.00  0.00     0.027 A 
ENDBRANCH   1  15
TORSDOF 1
ENDMDL
MODEL 7
REMARK VINA RESULT:      -7.8      1.876      3.709
REMARK  1 active torsions:
REMARK  status: ('A' for Active; 'I' for Inactive)
REMARK    1  A    between atoms: C5_6  and  C6_7 
ROOT
HETATM    1  C6  UNL     1      21.515   0.037  53.202  1.00  0.00     0.039 C 
HETATM    2  C7  UNL     1      21.216  -0.869  54.426  1.00  0.00    -0.006 C 
HETATM    3  C8  UNL     1      22.385  -0.700  55.043  1.00  0.00     0.011 C 
HETATM    4  C9  UNL     1      23.046  -0.746  53.739  1.00  0.00    -0.008 C 
HETATM    5  C10 UNL     1      22.438  -0.958  52.543  1.00  0.00     0.007 C 
HETATM    6  C11 UNL     1      24.462  -0.141  53.853  1.00  0.00     0.096 A 
HETATM    7  N1  UNL     1      25.392  -0.896  54.470  1.00  0.00    -0.239 NA
HETATM    8  C12 UNL     1      26.589  -0.172  54.457  1.00  0.00     0.233 A 
HETATM    9  N2  UNL     1      26.778   1.047  53.928  1.00  0.00    -0.252 NA
HETATM   10  C13 UNL     1      25.870   1.814  53.312  1.00  0.00     0.149 A 
HETATM   11  C14 UNL     1      24.659   1.218  53.266  1.00  0.00     0.075 A 
HETATM   12  N3  UNL     1      23.340   1.769  52.827  1.00  0.00    -0.385 N 
HETATM   13  C15 UNL     1      22.011   1.352  53.379  1.00  0.00     0.142 C 
HETATM   14  H9  UNL     1      23.674   2.485  52.098  1.00  0.00     0.159 HD
ENDROOT
BRANCH   1  15
HETATM   15  C5  UNL     1      20.227  -0.015  52.464  1.00  0.00    -0.039 A 
HETATM   16  C4  UNL     1      20.276   0.635  51.218  1.00  0.00     0.009 A 
HETATM   17  C3  UNL     1      19.214   0.754  50.308  1.00  0.00     0.002 A 
HETATM   18  C2  UNL     1      18.015   0.181  50.666  1.00  0.00     0.019 A 
HETATM   19  C1  UNL     1      17.922  -0.467  51.878  1.00  0.00     0.011 A 
HETATM   20 BR1  UNL     1      16.305  -1.289  52.459  1.00  0.00    -0.051 Br
HETATM   21  C16 UNL     1      18.995  -0.551  52.730  1.00  0.00     0.027 A 
ENDBRANCH   1  15
TORSDOF 1
ENDMDL
MODEL 8
REMARK VINA RESULT:      -7.7      4.352      6.221
REMARK  1 active torsions:
REMARK  status: ('A' for Active; 'I' for Inactive)
REMARK    1  A    between atoms: C5_6  and  C6_7 
ROOT
HETATM    1  C6  UNL     1      24.698   2.607  51.729  1.00  0.00     0.039 C 
HETATM    2  C7  UNL     1      23.424   1.780  51.412  1.00  0.00    -0.006 C 
HETATM    3  C8  UNL     1      22.736   2.760  50.824  1.00  0.00     0.011 C 
HETATM    4  C9  UNL     1      23.259   3.688  51.827  1.00  0.00    -0.008 C 
HETATM    5  C10 UNL     1      24.065   3.364  52.871  1.00  0.00     0.007 C 
HETATM    6  C11 UNL     1      23.094   5.138  51.327  1.00  0.00     0.096 A 
HETATM    7  N1  UNL     1      21.847   5.647  51.352  1.00  0.00    -0.239 NA
HETATM    8  C12 UNL     1      21.923   6.958  50.871  1.00  0.00     0.233 A 
HETATM    9  N2  UNL     1      23.032   7.593  50.461  1.00  0.00    -0.252 NA
HETATM   10  C13 UNL     1      24.279   7.109  50.426  1.00  0.00     0.149 A 
HETATM   11  C14 UNL     1      24.333   5.834  50.868  1.00  0.00     0.075 A 
HETATM   12  N3  UNL     1      25.472   4.864  50.847  1.00  0.00    -0.385 N 
HETATM   13  C15 UNL     1      25.329   3.378  50.722  1.00  0.00     0.142 C 
HETATM   14  H9  UNL     1      26.297   5.549  50.919  1.00  0.00     0.159 HD
ENDROOT
BRANCH   1  15
HETATM   15  C5  UNL     1      25.585   1.580  52.332  1.00  0.00    -0.039 A 
HETATM   16  C4  UNL     1      24.926   0.368  52.602  1.00  0.00     0.009 A 
HETATM   17  C3  UNL     1      25.504  -0.775  53.175  1.00  0.00     0.002 A 
HETATM   18  C2  UNL     1      26.839  -0.705  53.502  1.00  0.00     0.019 A 
HETATM   19  C1  UNL     1      27.526   0.463  53.254  1.00  0.00     0.011 A 
HETATM   20 BR1  UNL     1      29.374   0.655  53.672  1.00  0.00    -0.051 Br
HETATM   21  C16 UNL     1      26.907   1.553  52.691  1.00  0.00     0.027 A 
ENDBRANCH   1  15
TORSDOF 1
ENDMDL
MODEL 9
REMARK VINA RESULT:      -7.6      3.510      4.922
REMARK  1 active torsions:
REMARK  status: ('A' for Active; 'I' for Inactive)
REMARK    1  A    between atoms: C5_6  and  C6_7 
ROOT
HETATM    1  C6  UNL     1      24.376   2.670  51.237  1.00  0.00     0.039 C 
HETATM    2  C7  UNL     1      25.605   1.725  51.293  1.00  0.00    -0.006 C 
HETATM    3  C8  UNL     1      26.527   2.640  50.989  1.00  0.00     0.011 C 
HETATM    4  C9  UNL     1      25.591   3.218  50.025  1.00  0.00    -0.008 C 
HETATM    5  C10 UNL     1      24.353   2.744  49.730  1.00  0.00     0.007 C 
HETATM    6  C11 UNL     1      26.034   4.654  49.670  1.00  0.00     0.096 A 
HETATM    7  N1  UNL     1      27.105   4.772  48.861  1.00  0.00    -0.239 NA
HETATM    8  C12 UNL     1      27.328   6.138  48.664  1.00  0.00     0.233 A 
HETATM    9  N2  UNL     1      26.608   7.146  49.182  1.00  0.00    -0.252 NA
HETATM   10  C13 UNL     1      25.543   7.053  49.986  1.00  0.00     0.149 A 
HETATM   11  C14 UNL     1      25.230   5.768  50.256  1.00  0.00     0.075 A 
HETATM   12  N3  UNL     1      24.236   5.211  51.224  1.00  0.00    -0.385 N 
HETATM   13  C15 UNL     1      24.377   3.901  51.939  1.00  0.00     0.142 C 
HETATM   14  H9  UNL     1      23.513   6.006  51.223  1.00  0.00     0.159 HD
ENDROOT
BRANCH   1  15
HETATM   15  C5  UNL     1      23.274   1.760  51.641  1.00  0.00    -0.039 A 
HETATM   16  C4  UNL     1      22.373   1.484  50.598  1.00  0.00     0.009 A 
HETATM   17  C3  UNL     1      21.236   0.666  50.686  1.00  0.00     0.002 A 
HETATM   18  C2  UNL     1      20.979   0.078  51.904  1.00  0.00     0.019 A 
HETATM   19  C1  UNL     1      21.837   0.320  52.954  1.00  0.00     0.011 A 
HETATM   20 BR1  UNL     1      21.563  -0.448  54.676  1.00  0.00    -0.051 Br
HETATM   21  C16 UNL     1      22.935   1.132  52.811  1.00  0.00     0.027 A 
ENDBRANCH   1  15
TORSDOF 1
ENDMDL
