MODEL 1
REMARK VINA RESULT:      -7.6      0.000      0.000
REMARK  4 active torsions:
REMARK  status: ('A' for Active; 'I' for Inactive)
REMARK    1  A    between atoms: C2_3  and  C3_4 
REMARK    2  A    between atoms: C3_4  and  N1_5 
REMARK    3  A    between atoms: N1_5  and  C4_6 
REMARK    4  A    between atoms: C7_11  and  C8_12 
ROOT
HETATM    1  C4  UNL     1      26.744   0.410  54.341  1.00  0.00     0.137 A 
HETATM    2  N2  UNL     1      27.927  -0.032  54.773  1.00  0.00    -0.224 NA
HETATM    3  C5  UNL     1      29.071   0.582  54.524  1.00  0.00     0.234 A 
HETATM    4  N3  UNL     1      28.979   1.701  53.801  1.00  0.00    -0.253 NA
HETATM    5  C6  UNL     1      27.812   2.179  53.347  1.00  0.00     0.134 A 
HETATM    6  C7  UNL     1      26.586   1.541  53.596  1.00  0.00     0.033 A 
ENDROOT
BRANCH   1   7
HETATM    7  N1  UNL     1      25.550  -0.256  54.714  1.00  0.00    -0.370 N 
HETATM    8  H3  UNL     1      24.998  -0.415  55.567  1.00  0.00     0.161 HD
BRANCH   7   9
HETATM    9  C3  UNL     1      24.859  -0.986  53.678  1.00  0.00     0.159 C 
BRANCH   9  10
HETATM   10  C2  UNL     1      23.380  -0.705  53.654  1.00  0.00    -0.020 A 
HETATM   11  C1  UNL     1      22.621  -1.053  54.703  1.00  0.00     0.120 A 
HETATM   12  F1  UNL     1      23.013  -1.664  55.866  1.00  0.00    -0.206 F 
HETATM   13  C16 UNL     1      21.221  -0.740  54.584  1.00  0.00     0.039 A 
HETATM   14  C15 UNL     1      21.096  -0.168  53.402  1.00  0.00    -0.019 A 
HETATM   15  C14 UNL     1      22.429  -0.089  52.704  1.00  0.00     0.066 A 
ENDBRANCH   9  10
ENDBRANCH   7   9
ENDBRANCH   1   7
BRANCH   6  16
HETATM   16  C8  UNL     1      25.503   2.163  52.907  1.00  0.00    -0.043 C 
HETATM   17  C9  UNL     1      24.564   2.973  53.330  1.00  0.00    -0.015 C 
HETATM   18  C10 UNL     1      23.508   3.534  52.452  1.00  0.00     0.054 C 
HETATM   19  C11 UNL     1      24.266   4.216  51.337  1.00  0.00    -0.027 C 
HETATM   20  C12 UNL     1      25.167   3.370  50.858  1.00  0.00    -0.026 C 
HETATM   21  C13 UNL     1      25.283   1.984  51.449  1.00  0.00     0.066 C 
ENDBRANCH   6  16
TORSDOF 4
ENDMDL
MODEL 2
REMARK VINA RESULT:      -7.6      2.464      4.135
REMARK  4 active torsions:
REMARK  status: ('A' for Active; 'I' for Inactive)
REMARK    1  A    between atoms: C2_3  and  C3_4 
REMARK    2  A    between atoms: C3_4  and  N1_5 
REMARK    3  A    between atoms: N1_5  and  C4_6 
REMARK    4  A    between atoms: C7_11  and  C8_12 
ROOT
HETATM    1  C4  UNL     1      24.737   3.057  51.830  1.00  0.00     0.137 A 
HETATM    2  N2  UNL     1      24.518   4.151  51.096  1.00  0.00    -0.224 NA
HETATM    3  C5  UNL     1      25.332   4.565  50.141  1.00  0.00     0.234 A 
HETATM    4  N3  UNL     1      26.416   3.811  49.940  1.00  0.00    -0.253 NA
HETATM    5  C6  UNL     1      26.676   2.707  50.655  1.00  0.00     0.134 A 
HETATM    6  C7  UNL     1      25.826   2.250  51.676  1.00  0.00     0.033 A 
ENDROOT
BRANCH   1   7
HETATM    7  N1  UNL     1      23.780   2.629  52.783  1.00  0.00    -0.370 N 
HETATM    8  H3  UNL     1      23.568   2.787  53.777  1.00  0.00     0.161 HD
BRANCH   7   9
HETATM    9  C3  UNL     1      22.805   1.662  52.339  1.00  0.00     0.159 C 
BRANCH   9  10
HETATM   10  C2  UNL     1      22.617   0.531  53.316  1.00  0.00    -0.020 A 
HETATM   11  C1  UNL     1      21.420   0.343  53.891  1.00  0.00     0.120 A 
HETATM   12  F1  UNL     1      20.272   1.070  53.713  1.00  0.00    -0.206 F 
HETATM   13  C16 UNL     1      21.343  -0.765  54.807  1.00  0.00     0.039 A 
HETATM   14  C15 UNL     1      22.550  -1.297  54.806  1.00  0.00    -0.019 A 
HETATM   15  C14 UNL     1      23.465  -0.542  53.876  1.00  0.00     0.066 A 
ENDBRANCH   9  10
ENDBRANCH   7   9
ENDBRANCH   1   7
BRANCH   6  16
HETATM   16  C8  UNL     1      26.374   1.135  52.377  1.00  0.00    -0.043 C 
HETATM   17  C9  UNL     1      26.592  -0.099  51.994  1.00  0.00    -0.015 C 
HETATM   18  C10 UNL     1      27.186  -1.136  52.873  1.00  0.00     0.054 C 
HETATM   19  C11 UNL     1      28.493  -0.538  53.337  1.00  0.00    -0.027 C 
HETATM   20  C12 UNL     1      28.260   0.685  53.793  1.00  0.00    -0.026 C 
HETATM   21  C13 UNL     1      26.853   1.236  53.779  1.00  0.00     0.066 C 
ENDBRANCH   6  16
TORSDOF 4
ENDMDL
MODEL 3
REMARK VINA RESULT:      -7.5      2.770      5.677
REMARK  4 active torsions:
REMARK  status: ('A' for Active; 'I' for Inactive)
REMARK    1  A    between atoms: C2_3  and  C3_4 
REMARK    2  A    between atoms: C3_4  and  N1_5 
REMARK    3  A    between atoms: N1_5  and  C4_6 
REMARK    4  A    between atoms: C7_11  and  C8_12 
ROOT
HETATM    1  C4  UNL     1      23.133  -0.039  53.245  1.00  0.00     0.137 A 
HETATM    2  N2  UNL     1      21.836  -0.236  53.496  1.00  0.00    -0.224 NA
HETATM    3  C5  UNL     1      21.389  -0.930  54.529  1.00  0.00     0.234 A 
HETATM    4  N3  UNL     1      22.328  -1.436  55.332  1.00  0.00    -0.253 NA
HETATM    5  C6  UNL     1      23.640  -1.264  55.116  1.00  0.00     0.134 A 
HETATM    6  C7  UNL     1      24.137  -0.534  54.024  1.00  0.00     0.033 A 
ENDROOT
BRANCH   1   7
HETATM    7  N1  UNL     1      23.537   0.783  52.164  1.00  0.00    -0.370 N 
HETATM    8  H3  UNL     1      23.567   0.734  51.137  1.00  0.00     0.161 HD
BRANCH   7   9
HETATM    9  C3  UNL     1      24.124   2.058  52.497  1.00  0.00     0.159 C 
BRANCH   9  10
HETATM   10  C2  UNL     1      24.983   2.613  51.391  1.00  0.00    -0.020 A 
HETATM   11  C1  UNL     1      24.431   3.393  50.451  1.00  0.00     0.120 A 
HETATM   12  F1  UNL     1      23.122   3.786  50.337  1.00  0.00    -0.206 F 
HETATM   13  C16 UNL     1      25.335   3.874  49.440  1.00  0.00     0.039 A 
HETATM   14  C15 UNL     1      26.511   3.372  49.762  1.00  0.00    -0.019 A 
HETATM   15  C14 UNL     1      26.409   2.535  51.011  1.00  0.00     0.066 A 
ENDBRANCH   9  10
ENDBRANCH   7   9
ENDBRANCH   1   7
BRANCH   6  16
HETATM   16  C8  UNL     1      25.558  -0.597  53.933  1.00  0.00    -0.043 C 
HETATM   17  C9  UNL     1      26.340  -1.124  53.023  1.00  0.00    -0.015 C 
HETATM   18  C10 UNL     1      27.822  -1.088  53.095  1.00  0.00     0.054 C 
HETATM   19  C11 UNL     1      28.159   0.379  53.229  1.00  0.00    -0.027 C 
HETATM   20  C12 UNL     1      27.420   0.895  54.201  1.00  0.00    -0.026 C 
HETATM   21  C13 UNL     1      26.448   0.017  54.952  1.00  0.00     0.066 C 
ENDBRANCH   6  16
TORSDOF 4
ENDMDL
MODEL 4
REMARK VINA RESULT:      -7.4      2.828      5.904
REMARK  4 active torsions:
REMARK  status: ('A' for Active; 'I' for Inactive)
REMARK    1  A    between atoms: C2_3  and  C3_4 
REMARK    2  A    between atoms: C3_4  and  N1_5 
REMARK    3  A    between atoms: N1_5  and  C4_6 
REMARK    4  A    between atoms: C7_11  and  C8_12 
ROOT
HETATM    1  C4  UNL     1      23.647   1.505  52.367  1.00  0.00     0.137 A 
HETATM    2  N2  UNL     1      22.405   1.016  52.401  1.00  0.00    -0.224 NA
HETATM    3  C5  UNL     1      22.076  -0.098  53.033  1.00  0.00     0.234 A 
HETATM    4  N3  UNL     1      23.077  -0.726  53.653  1.00  0.00    -0.253 NA
HETATM    5  C6  UNL     1      24.338  -0.271  53.643  1.00  0.00     0.134 A 
HETATM    6  C7  UNL     1      24.711   0.909  52.976  1.00  0.00     0.033 A 
ENDROOT
BRANCH   1   7
HETATM    7  N1  UNL     1      23.911   2.747  51.739  1.00  0.00    -0.370 N 
HETATM    8  H3  UNL     1      24.065   3.726  52.015  1.00  0.00     0.161 HD
BRANCH   7   9
HETATM    9  C3  UNL     1      23.956   2.753  50.296  1.00  0.00     0.159 C 
BRANCH   9  10
HETATM   10  C2  UNL     1      24.956   3.735  49.747  1.00  0.00    -0.020 A 
HETATM   11  C1  UNL     1      26.247   3.385  49.654  1.00  0.00     0.120 A 
HETATM   12  F1  UNL     1      26.830   2.195  50.006  1.00  0.00    -0.206 F 
HETATM   13  C16 UNL     1      27.122   4.393  49.115  1.00  0.00     0.039 A 
HETATM   14  C15 UNL     1      26.342   5.424  48.856  1.00  0.00    -0.019 A 
HETATM   15  C14 UNL     1      24.913   5.117  49.225  1.00  0.00     0.066 A 
ENDBRANCH   9  10
ENDBRANCH   7   9
ENDBRANCH   1   7
BRANCH   6  16
HETATM   16  C8  UNL     1      26.121   1.119  52.998  1.00  0.00    -0.043 C 
HETATM   17  C9  UNL     1      26.836   2.116  53.459  1.00  0.00    -0.015 C 
HETATM   18  C10 UNL     1      28.318   2.158  53.399  1.00  0.00     0.054 C 
HETATM   19  C11 UNL     1      28.761   0.888  54.086  1.00  0.00    -0.027 C 
HETATM   20  C12 UNL     1      28.091  -0.131  53.567  1.00  0.00    -0.026 C 
HETATM   21  C13 UNL     1      27.082   0.116  52.471  1.00  0.00     0.066 C 
ENDBRANCH   6  16
TORSDOF 4
ENDMDL
MODEL 5
REMARK VINA RESULT:      -7.3      2.509      5.268
REMARK  4 active torsions:
REMARK  status: ('A' for Active; 'I' for Inactive)
REMARK    1  A    between atoms: C2_3  and  C3_4 
REMARK    2  A    between atoms: C3_4  and  N1_5 
REMARK    3  A    between atoms: N1_5  and  C4_6 
REMARK    4  A    between atoms: C7_11  and  C8_12 
ROOT
HETATM    1  C4  UNL     1      24.077  -0.398  53.583  1.00  0.00     0.137 A 
HETATM    2  N2  UNL     1      24.178  -1.098  54.716  1.00  0.00    -0.224 NA
HETATM    3  C5  UNL     1      23.137  -1.461  55.445  1.00  0.00     0.234 A 
HETATM    4  N3  UNL     1      21.945  -1.083  54.977  1.00  0.00    -0.253 NA
HETATM    5  C6  UNL     1      21.799  -0.378  53.845  1.00  0.00     0.134 A 
HETATM    6  C7  UNL     1      22.891   0.020  53.056  1.00  0.00     0.033 A 
ENDROOT
BRANCH   1   7
HETATM    7  N1  UNL     1      25.231  -0.113  52.811  1.00  0.00    -0.370 N 
HETATM    8  H3  UNL     1      25.577   0.641  52.204  1.00  0.00     0.161 HD
BRANCH   7   9
HETATM    9  C3  UNL     1      26.254  -1.130  52.768  1.00  0.00     0.159 C 
BRANCH   9  10
HETATM   10  C2  UNL     1      27.617  -0.603  53.133  1.00  0.00    -0.020 A 
HETATM   11  C1  UNL     1      28.655  -1.448  53.213  1.00  0.00     0.120 A 
HETATM   12  F1  UNL     1      28.664  -2.803  53.001  1.00  0.00    -0.206 F 
HETATM   13  C16 UNL     1      29.914  -0.847  53.566  1.00  0.00     0.039 A 
HETATM   14  C15 UNL     1      29.654   0.437  53.715  1.00  0.00    -0.019 A 
HETATM   15  C14 UNL     1      28.195   0.717  53.459  1.00  0.00     0.066 A 
ENDBRANCH   9  10
ENDBRANCH   7   9
ENDBRANCH   1   7
BRANCH   6  16
HETATM   16  C8  UNL     1      22.498   0.865  51.977  1.00  0.00    -0.043 C 
HETATM   17  C9  UNL     1      23.160   1.784  51.318  1.00  0.00    -0.015 C 
HETATM   18  C10 UNL     1      22.579   2.570  50.201  1.00  0.00     0.054 C 
HETATM   19  C11 UNL     1      22.091   1.530  49.220  1.00  0.00    -0.027 C 
HETATM   20  C12 UNL     1      21.359   0.640  49.875  1.00  0.00    -0.026 C 
HETATM   21  C13 UNL     1      21.148   0.792  51.363  1.00  0.00     0.066 C 
ENDBRANCH   6  16
TORSDOF 4
ENDMDL
MODEL 6
REMARK VINA RESULT:      -7.3      2.292      5.058
REMARK  4 active torsions:
REMARK  status: ('A' for Active; 'I' for Inactive)
REMARK    1  A    between atoms: C2_3  and  C3_4 
REMARK    2  A    between atoms: C3_4  and  N1_5 
REMARK    3  A    between atoms: N1_5  and  C4_6 
REMARK    4  A    between atoms: C7_11  and  C8_12 
ROOT
HETATM    1  C4  UNL     1      23.937   0.206  53.166  1.00  0.00     0.137 A 
HETATM    2  N2  UNL     1      22.912  -0.553  53.561  1.00  0.00    -0.224 NA
HETATM    3  C5  UNL     1      21.719  -0.524  52.991  1.00  0.00     0.234 A 
HETATM    4  N3  UNL     1      21.589   0.326  51.970  1.00  0.00    -0.253 NA
HETATM    5  C6  UNL     1      22.591   1.107  51.542  1.00  0.00     0.134 A 
HETATM    6  C7  UNL     1      23.865   1.094  52.134  1.00  0.00     0.033 A 
ENDROOT
BRANCH   1   7
HETATM    7  N1  UNL     1      25.210   0.063  53.771  1.00  0.00    -0.370 N 
HETATM    8  H3  UNL     1      25.751   0.506  54.526  1.00  0.00     0.161 HD
BRANCH   7   9
HETATM    9  C3  UNL     1      26.089  -0.937  53.215  1.00  0.00     0.159 C 
BRANCH   9  10
HETATM   10  C2  UNL     1      27.545  -0.583  53.366  1.00  0.00    -0.020 A 
HETATM   11  C1  UNL     1      28.478  -1.532  53.203  1.00  0.00     0.120 A 
HETATM   12  F1  UNL     1      28.296  -2.857  52.903  1.00  0.00    -0.206 F 
HETATM   13  C16 UNL     1      29.840  -1.093  53.365  1.00  0.00     0.039 A 
HETATM   14  C15 UNL     1      29.756   0.194  53.642  1.00  0.00    -0.019 A 
HETATM   15  C14 UNL     1      28.317   0.640  53.671  1.00  0.00     0.066 A 
ENDBRANCH   9  10
ENDBRANCH   7   9
ENDBRANCH   1   7
BRANCH   6  16
HETATM   16  C8  UNL     1      24.722   2.098  51.593  1.00  0.00    -0.043 C 
HETATM   17  C9  UNL     1      25.933   2.020  51.098  1.00  0.00    -0.015 C 
HETATM   18  C10 UNL     1      26.678   3.188  50.567  1.00  0.00     0.054 C 
HETATM   19  C11 UNL     1      25.764   3.775  49.516  1.00  0.00    -0.027 C 
HETATM   20  C12 UNL     1      24.556   3.923  50.042  1.00  0.00    -0.026 C 
HETATM   21  C13 UNL     1      24.306   3.519  51.475  1.00  0.00     0.066 C 
ENDBRANCH   6  16
TORSDOF 4
ENDMDL
MODEL 7
REMARK VINA RESULT:      -7.3      2.653      5.553
REMARK  4 active torsions:
REMARK  status: ('A' for Active; 'I' for Inactive)
REMARK    1  A    between atoms: C2_3  and  C3_4 
REMARK    2  A    between atoms: C3_4  and  N1_5 
REMARK    3  A    between atoms: N1_5  and  C4_6 
REMARK    4  A    between atoms: C7_11  and  C8_12 
ROOT
HETATM    1  C4  UNL     1      24.756   2.298  51.531  1.00  0.00     0.137 A 
HETATM    2  N2  UNL     1      24.996   3.106  50.496  1.00  0.00    -0.224 NA
HETATM    3  C5  UNL     1      24.159   3.267  49.485  1.00  0.00     0.234 A 
HETATM    4  N3  UNL     1      23.028   2.561  49.555  1.00  0.00    -0.253 NA
HETATM    5  C6  UNL     1      22.748   1.736  50.574  1.00  0.00     0.134 A 
HETATM    6  C7  UNL     1      23.624   1.548  51.657  1.00  0.00     0.033 A 
ENDROOT
BRANCH   1   7
HETATM    7  N1  UNL     1      25.662   2.236  52.618  1.00  0.00    -0.370 N 
HETATM    8  H3  UNL     1      25.622   2.212  53.645  1.00  0.00     0.161 HD
BRANCH   7   9
HETATM    9  C3  UNL     1      27.069   2.247  52.297  1.00  0.00     0.159 C 
BRANCH   9  10
HETATM   10  C2  UNL     1      27.819   1.100  52.921  1.00  0.00    -0.020 A 
HETATM   11  C1  UNL     1      27.475  -0.160  52.619  1.00  0.00     0.120 A 
HETATM   12  F1  UNL     1      26.481  -0.589  51.778  1.00  0.00    -0.206 F 
HETATM   13  C16 UNL     1      28.254  -1.184  53.266  1.00  0.00     0.039 A 
HETATM   14  C15 UNL     1      29.129  -0.534  54.008  1.00  0.00    -0.019 A 
HETATM   15  C14 UNL     1      28.945   0.955  53.867  1.00  0.00     0.066 A 
ENDBRANCH   9  10
ENDBRANCH   7   9
ENDBRANCH   1   7
BRANCH   6  16
HETATM   16  C8  UNL     1      23.169   0.532  52.549  1.00  0.00    -0.043 C 
HETATM   17  C9  UNL     1      23.712   0.032  53.631  1.00  0.00    -0.015 C 
HETATM   18  C10 UNL     1      23.079  -1.034  54.447  1.00  0.00     0.054 C 
HETATM   19  C11 UNL     1      21.718  -0.482  54.801  1.00  0.00    -0.027 C 
HETATM   20  C12 UNL     1      21.138  -0.043  53.693  1.00  0.00    -0.026 C 
HETATM   21  C13 UNL     1      21.864  -0.153  52.373  1.00  0.00     0.066 C 
ENDBRANCH   6  16
TORSDOF 4
ENDMDL
MODEL 8
REMARK VINA RESULT:      -7.3      3.009      5.826
REMARK  4 active torsions:
REMARK  status: ('A' for Active; 'I' for Inactive)
REMARK    1  A    between atoms: C2_3  and  C3_4 
REMARK    2  A    between atoms: C3_4  and  N1_5 
REMARK    3  A    between atoms: N1_5  and  C4_6 
REMARK    4  A    between atoms: C7_11  and  C8_12 
ROOT
HETATM    1  C4  UNL     1      23.748   3.452  52.377  1.00  0.00     0.137 A 
HETATM    2  N2  UNL     1      23.766   4.698  51.897  1.00  0.00    -0.224 NA
HETATM    3  C5  UNL     1      22.684   5.337  51.486  1.00  0.00     0.234 A 
HETATM    4  N3  UNL     1      21.540   4.655  51.579  1.00  0.00    -0.253 NA
HETATM    5  C6  UNL     1      21.478   3.402  52.053  1.00  0.00     0.134 A 
HETATM    6  C7  UNL     1      22.614   2.703  52.492  1.00  0.00     0.033 A 
ENDROOT
BRANCH   1   7
HETATM    7  N1  UNL     1      24.934   2.858  52.874  1.00  0.00    -0.370 N 
HETATM    8  H3  UNL     1      25.358   2.646  53.787  1.00  0.00     0.161 HD
BRANCH   7   9
HETATM    9  C3  UNL     1      25.911   2.435  51.899  1.00  0.00     0.159 C 
BRANCH   9  10
HETATM   10  C2  UNL     1      26.750   1.280  52.377  1.00  0.00    -0.020 A 
HETATM   11  C1  UNL     1      27.840   1.515  53.123  1.00  0.00     0.120 A 
HETATM   12  F1  UNL     1      28.336   2.723  53.540  1.00  0.00    -0.206 F 
HETATM   13  C16 UNL     1      28.573   0.346  53.531  1.00  0.00     0.039 A 
HETATM   14  C15 UNL     1      27.911  -0.673  53.018  1.00  0.00    -0.019 A 
HETATM   15  C14 UNL     1      26.708  -0.192  52.247  1.00  0.00     0.066 A 
ENDBRANCH   9  10
ENDBRANCH   7   9
ENDBRANCH   1   7
BRANCH   6  16
HETATM   16  C8  UNL     1      22.319   1.349  52.830  1.00  0.00    -0.043 C 
HETATM   17  C9  UNL     1      23.086   0.288  52.883  1.00  0.00    -0.015 C 
HETATM   18  C10 UNL     1      22.596  -1.059  53.267  1.00  0.00     0.054 C 
HETATM   19  C11 UNL     1      21.956  -0.858  54.621  1.00  0.00    -0.027 C 
HETATM   20  C12 UNL     1      21.123   0.171  54.546  1.00  0.00    -0.026 C 
HETATM   21  C13 UNL     1      20.960   0.911  53.240  1.00  0.00     0.066 C 
ENDBRANCH   6  16
TORSDOF 4
ENDMDL
MODEL 9
REMARK VINA RESULT:      -7.2      3.036      5.468
REMARK  4 active torsions:
REMARK  status: ('A' for Active; 'I' for Inactive)
REMARK    1  A    between atoms: C2_3  and  C3_4 
REMARK    2  A    between atoms: C3_4  and  N1_5 
REMARK    3  A    between atoms: N1_5  and  C4_6 
REMARK    4  A    between atoms: C7_11  and  C8_12 
ROOT
HETATM    1  C4  UNL     1      26.604   1.230  52.621  1.00  0.00     0.137 A 
HETATM    2  N2  UNL     1      27.805   0.748  52.952  1.00  0.00    -0.224 NA
HETATM    3  C5  UNL     1      28.004  -0.489  53.376  1.00  0.00     0.234 A 
HETATM    4  N3  UNL     1      26.912  -1.253  53.457  1.00  0.00    -0.253 NA
HETATM    5  C6  UNL     1      25.688  -0.809  53.137  1.00  0.00     0.134 A 
HETATM    6  C7  UNL     1      25.453   0.501  52.687  1.00  0.00     0.033 A 
ENDROOT
BRANCH   1   7
HETATM    7  N1  UNL     1      26.477   2.540  52.098  1.00  0.00    -0.370 N 
HETATM    8  H3  UNL     1      26.239   3.480  52.440  1.00  0.00     0.161 HD
BRANCH   7   9
HETATM    9  C3  UNL     1      26.682   2.699  50.678  1.00  0.00     0.159 C 
BRANCH   9  10
HETATM   10  C2  UNL     1      26.041   3.947  50.131  1.00  0.00    -0.020 A 
HETATM   11  C1  UNL     1      26.647   4.627  49.147  1.00  0.00     0.120 A 
HETATM   12  F1  UNL     1      27.836   4.341  48.527  1.00  0.00    -0.206 F 
HETATM   13  C16 UNL     1      25.954   5.804  48.693  1.00  0.00     0.039 A 
HETATM   14  C15 UNL     1      24.860   5.864  49.426  1.00  0.00    -0.019 A 
HETATM   15  C14 UNL     1      24.805   4.712  50.396  1.00  0.00     0.066 A 
ENDBRANCH   9  10
ENDBRANCH   7   9
ENDBRANCH   1   7
BRANCH   6  16
HETATM   16  C8  UNL     1      24.063   0.778  52.532  1.00  0.00    -0.043 C 
HETATM   17  C9  UNL     1      23.417   1.456  51.615  1.00  0.00    -0.015 C 
HETATM   18  C10 UNL     1      21.944   1.635  51.615  1.00  0.00     0.054 C 
HETATM   19  C11 UNL     1      21.391   0.230  51.655  1.00  0.00    -0.027 C 
HETATM   20  C12 UNL     1      21.993  -0.434  52.632  1.00  0.00    -0.026 C 
HETATM   21  C13 UNL     1      23.040   0.256  53.474  1.00  0.00     0.066 C 
ENDBRANCH   6  16
TORSDOF 4
ENDMDL
