MODEL 1
REMARK VINA RESULT:      -8.2      0.000      0.000
REMARK  3 active torsions:
REMARK  status: ('A' for Active; 'I' for Inactive)
REMARK    1  A    between atoms: O1_1  and  N1_2 
REMARK    2  A    between atoms: C1_4  and  C2_5 
REMARK    3  A    between atoms: C9_13  and  C10_14 
ROOT
HETATM    1  N1  UNL     1      26.097   2.507  51.679  1.00  0.00    -0.169 N 
HETATM    2  N2  UNL     1      24.847   2.576  51.016  1.00  0.00    -0.154 NA
HETATM    3  C1  UNL     1      24.066   1.631  51.420  1.00  0.00     0.069 C 
HETATM    4  C8  UNL     1      24.773   0.795  52.453  1.00  0.00     0.096 C 
HETATM    5  C9  UNL     1      25.960   1.645  52.840  1.00  0.00     0.174 C 
ENDROOT
BRANCH   3   6
HETATM    6  C2  UNL     1      22.700   1.368  50.977  1.00  0.00    -0.009 A 
HETATM    7  C3  UNL     1      22.244   1.742  49.739  1.00  0.00     0.016 A 
HETATM    8  C4  UNL     1      20.937   1.463  49.381  1.00  0.00     0.043 A 
HETATM    9  C5  UNL     1      20.080   0.814  50.249  1.00  0.00     0.116 A 
HETATM   10  F1  UNL     1      18.801   0.533  49.915  1.00  0.00    -0.206 F 
HETATM   11  C6  UNL     1      20.518   0.423  51.514  1.00  0.00     0.043 A 
HETATM   12  C7  UNL     1      21.828   0.716  51.839  1.00  0.00     0.016 A 
ENDBRANCH   3   6
BRANCH   1  13
HETATM   13  O1  UNL     1      27.155   3.193  51.182  1.00  0.00    -0.270 OA
HETATM   14  H1  UNL     1      27.094   3.319  50.204  1.00  0.00     0.246 HD
ENDBRANCH   1  13
BRANCH   5  15
HETATM   15  C10 UNL     1      27.157   0.866  53.158  1.00  0.00    -0.031 A 
HETATM   16  C11 UNL     1      28.223   1.455  53.823  1.00  0.00     0.012 A 
HETATM   17  C12 UNL     1      29.364   0.748  54.138  1.00  0.00     0.043 A 
HETATM   18  C13 UNL     1      29.481  -0.595  53.791  1.00  0.00     0.116 A 
HETATM   19  F2  UNL     1      30.567  -1.364  54.062  1.00  0.00    -0.206 F 
HETATM   20  C14 UNL     1      28.402  -1.138  53.134  1.00  0.00     0.043 A 
HETATM   21  C15 UNL     1      27.238  -0.460  52.800  1.00  0.00     0.012 A 
ENDBRANCH   5  15
TORSDOF 3
ENDMDL
MODEL 2
REMARK VINA RESULT:      -8.2      1.164      1.782
REMARK  3 active torsions:
REMARK  status: ('A' for Active; 'I' for Inactive)
REMARK    1  A    between atoms: O1_1  and  N1_2 
REMARK    2  A    between atoms: C1_4  and  C2_5 
REMARK    3  A    between atoms: C9_13  and  C10_14 
ROOT
HETATM    1  N1  UNL     1      25.643   1.810  51.737  1.00  0.00    -0.169 N 
HETATM    2  N2  UNL     1      24.261   1.721  51.438  1.00  0.00    -0.154 NA
HETATM    3  C1  UNL     1      23.657   0.976  52.303  1.00  0.00     0.069 C 
HETATM    4  C8  UNL     1      24.647   0.472  53.319  1.00  0.00     0.096 C 
HETATM    5  C9  UNL     1      25.854   1.353  53.100  1.00  0.00     0.174 C 
ENDROOT
BRANCH   3   6
HETATM    6  C2  UNL     1      22.236   0.643  52.338  1.00  0.00    -0.009 A 
HETATM    7  C3  UNL     1      21.454   0.639  51.211  1.00  0.00     0.016 A 
HETATM    8  C4  UNL     1      20.114   0.314  51.312  1.00  0.00     0.043 A 
HETATM    9  C5  UNL     1      19.544  -0.006  52.530  1.00  0.00     0.116 A 
HETATM   10  F1  UNL     1      18.237  -0.326  52.647  1.00  0.00    -0.206 F 
HETATM   11  C6  UNL     1      20.317  -0.009  53.692  1.00  0.00     0.043 A 
HETATM   12  C7  UNL     1      21.651   0.319  53.555  1.00  0.00     0.016 A 
ENDBRANCH   3   6
BRANCH   1  13
HETATM   13  O1  UNL     1      26.502   2.268  50.795  1.00  0.00    -0.270 OA
HETATM   14  H1  UNL     1      26.086   2.943  50.205  1.00  0.00     0.246 HD
ENDBRANCH   1  13
BRANCH   5  15
HETATM   15  C10 UNL     1      27.127   0.663  53.315  1.00  0.00    -0.031 A 
HETATM   16  C11 UNL     1      27.257  -0.684  53.012  1.00  0.00     0.012 A 
HETATM   17  C12 UNL     1      28.442  -1.362  53.203  1.00  0.00     0.043 A 
HETATM   18  C13 UNL     1      29.557  -0.705  53.714  1.00  0.00     0.116 A 
HETATM   19  F2  UNL     1      30.760  -1.294  53.933  1.00  0.00    -0.206 F 
HETATM   20  C14 UNL     1      29.384   0.630  54.000  1.00  0.00     0.043 A 
HETATM   21  C15 UNL     1      28.208   1.346  53.822  1.00  0.00     0.012 A 
ENDBRANCH   5  15
TORSDOF 3
ENDMDL
MODEL 3
REMARK VINA RESULT:      -8.2      2.889      7.960
REMARK  3 active torsions:
REMARK  status: ('A' for Active; 'I' for Inactive)
REMARK    1  A    between atoms: O1_1  and  N1_2 
REMARK    2  A    between atoms: C1_4  and  C2_5 
REMARK    3  A    between atoms: C9_13  and  C10_14 
ROOT
HETATM    1  N1  UNL     1      22.440  -0.978  54.570  1.00  0.00    -0.169 N 
HETATM    2  N2  UNL     1      23.812  -1.218  54.831  1.00  0.00    -0.154 NA
HETATM    3  C1  UNL     1      24.554  -0.512  54.046  1.00  0.00     0.069 C 
HETATM    4  C8  UNL     1      23.687   0.314  53.134  1.00  0.00     0.096 C 
HETATM    5  C9  UNL     1      22.324   0.236  53.781  1.00  0.00     0.174 C 
ENDROOT
BRANCH   3   6
HETATM    6  C2  UNL     1      26.013  -0.480  54.005  1.00  0.00    -0.009 A 
HETATM    7  C3  UNL     1      26.756   0.272  54.880  1.00  0.00     0.016 A 
HETATM    8  C4  UNL     1      28.136   0.259  54.788  1.00  0.00     0.043 A 
HETATM    9  C5  UNL     1      28.783  -0.499  53.830  1.00  0.00     0.116 A 
HETATM   10  F1  UNL     1      30.130  -0.523  53.728  1.00  0.00    -0.206 F 
HETATM   11  C6  UNL     1      28.052  -1.273  52.929  1.00  0.00     0.043 A 
HETATM   12  C7  UNL     1      26.677  -1.237  53.048  1.00  0.00     0.016 A 
ENDBRANCH   3   6
BRANCH   1  13
HETATM   13  O1  UNL     1      21.509  -1.837  55.049  1.00  0.00    -0.270 OA
HETATM   14  H1  UNL     1      20.892  -2.152  54.344  1.00  0.00     0.246 HD
ENDBRANCH   1  13
BRANCH   5  15
HETATM   15  C10 UNL     1      21.221   0.228  52.819  1.00  0.00    -0.031 A 
HETATM   16  C11 UNL     1      19.929  -0.064  53.233  1.00  0.00     0.012 A 
HETATM   17  C12 UNL     1      18.869  -0.079  52.352  1.00  0.00     0.043 A 
HETATM   18  C13 UNL     1      19.067   0.200  51.003  1.00  0.00     0.116 A 
HETATM   19  F2  UNL     1      18.081   0.206  50.070  1.00  0.00    -0.206 F 
HETATM   20  C14 UNL     1      20.363   0.484  50.637  1.00  0.00     0.043 A 
HETATM   21  C15 UNL     1      21.454   0.509  51.493  1.00  0.00     0.012 A 
ENDBRANCH   5  15
TORSDOF 3
ENDMDL
MODEL 4
REMARK VINA RESULT:      -8.2      2.766      3.178
REMARK  3 active torsions:
REMARK  status: ('A' for Active; 'I' for Inactive)
REMARK    1  A    between atoms: O1_1  and  N1_2 
REMARK    2  A    between atoms: C1_4  and  C2_5 
REMARK    3  A    between atoms: C9_13  and  C10_14 
ROOT
HETATM    1  N1  UNL     1      24.762  -0.973  54.881  1.00  0.00    -0.169 N 
HETATM    2  N2  UNL     1      23.368  -1.037  54.640  1.00  0.00    -0.154 NA
HETATM    3  C1  UNL     1      23.067  -0.426  53.544  1.00  0.00     0.069 C 
HETATM    4  C8  UNL     1      24.316   0.135  52.917  1.00  0.00     0.096 C 
HETATM    5  C9  UNL     1      25.427  -0.575  53.652  1.00  0.00     0.174 C 
ENDROOT
BRANCH   3   6
HETATM    6  C2  UNL     1      21.740  -0.273  52.955  1.00  0.00    -0.009 A 
HETATM    7  C3  UNL     1      21.547   0.262  51.707  1.00  0.00     0.016 A 
HETATM    8  C4  UNL     1      20.263   0.379  51.207  1.00  0.00     0.043 A 
HETATM    9  C5  UNL     1      19.167  -0.031  51.943  1.00  0.00     0.116 A 
HETATM   10  F1  UNL     1      17.907   0.076  51.469  1.00  0.00    -0.206 F 
HETATM   11  C6  UNL     1      19.336  -0.579  53.215  1.00  0.00     0.043 A 
HETATM   12  C7  UNL     1      20.630  -0.682  53.683  1.00  0.00     0.016 A 
ENDBRANCH   3   6
BRANCH   1  13
HETATM   13  O1  UNL     1      25.241  -1.265  56.114  1.00  0.00    -0.270 OA
HETATM   14  H1  UNL     1      26.222  -1.160  56.170  1.00  0.00     0.246 HD
ENDBRANCH   1  13
BRANCH   5  15
HETATM   15  C10 UNL     1      26.618   0.252  53.851  1.00  0.00    -0.031 A 
HETATM   16  C11 UNL     1      27.825  -0.328  54.214  1.00  0.00     0.012 A 
HETATM   17  C12 UNL     1      28.964   0.423  54.408  1.00  0.00     0.043 A 
HETATM   18  C13 UNL     1      28.935   1.805  54.245  1.00  0.00     0.116 A 
HETATM   19  F2  UNL     1      30.009   2.619  54.416  1.00  0.00    -0.206 F 
HETATM   20  C14 UNL     1      27.719   2.338  53.885  1.00  0.00     0.043 A 
HETATM   21  C15 UNL     1      26.552   1.615  53.680  1.00  0.00     0.012 A 
ENDBRANCH   5  15
TORSDOF 3
ENDMDL
MODEL 5
REMARK VINA RESULT:      -8.1      4.067      5.259
REMARK  3 active torsions:
REMARK  status: ('A' for Active; 'I' for Inactive)
REMARK    1  A    between atoms: O1_1  and  N1_2 
REMARK    2  A    between atoms: C1_4  and  C2_5 
REMARK    3  A    between atoms: C9_13  and  C10_14 
ROOT
HETATM    1  N1  UNL     1      26.699   2.456  51.606  1.00  0.00    -0.169 N 
HETATM    2  N2  UNL     1      25.915   1.575  52.390  1.00  0.00    -0.154 NA
HETATM    3  C1  UNL     1      24.701   1.535  51.953  1.00  0.00     0.069 C 
HETATM    4  C8  UNL     1      24.561   2.446  50.762  1.00  0.00     0.096 C 
HETATM    5  C9  UNL     1      25.991   2.730  50.368  1.00  0.00     0.174 C 
ENDROOT
BRANCH   3   6
HETATM    6  C2  UNL     1      23.596   0.748  52.491  1.00  0.00    -0.009 A 
HETATM    7  C3  UNL     1      22.336   0.784  51.950  1.00  0.00     0.016 A 
HETATM    8  C4  UNL     1      21.333   0.013  52.507  1.00  0.00     0.043 A 
HETATM    9  C5  UNL     1      21.574  -0.795  53.603  1.00  0.00     0.116 A 
HETATM   10  F1  UNL     1      20.605  -1.554  54.159  1.00  0.00    -0.206 F 
HETATM   11  C6  UNL     1      22.846  -0.850  54.172  1.00  0.00     0.043 A 
HETATM   12  C7  UNL     1      23.825  -0.069  53.592  1.00  0.00     0.016 A 
ENDBRANCH   3   6
BRANCH   1  13
HETATM   13  O1  UNL     1      27.895   2.884  52.077  1.00  0.00    -0.270 OA
HETATM   14  H1  UNL     1      27.961   3.870  52.090  1.00  0.00     0.246 HD
ENDBRANCH   1  13
BRANCH   5  15
HETATM   15  C10 UNL     1      26.194   4.081  49.842  1.00  0.00    -0.031 A 
HETATM   16  C11 UNL     1      25.327   5.107  50.188  1.00  0.00     0.012 A 
HETATM   17  C12 UNL     1      25.491   6.390  49.710  1.00  0.00     0.043 A 
HETATM   18  C13 UNL     1      26.546   6.696  48.855  1.00  0.00     0.116 A 
HETATM   19  F2  UNL     1      26.781   7.929  48.339  1.00  0.00    -0.206 F 
HETATM   20  C14 UNL     1      27.380   5.648  48.539  1.00  0.00     0.043 A 
HETATM   21  C15 UNL     1      27.248   4.346  48.999  1.00  0.00     0.012 A 
ENDBRANCH   5  15
TORSDOF 3
ENDMDL
MODEL 6
REMARK VINA RESULT:      -7.6      4.458      5.693
REMARK  3 active torsions:
REMARK  status: ('A' for Active; 'I' for Inactive)
REMARK    1  A    between atoms: O1_1  and  N1_2 
REMARK    2  A    between atoms: C1_4  and  C2_5 
REMARK    3  A    between atoms: C9_13  and  C10_14 
ROOT
HETATM    1  N1  UNL     1      23.488   3.552  49.648  1.00  0.00    -0.169 N 
HETATM    2  N2  UNL     1      23.001   2.457  50.401  1.00  0.00    -0.154 NA
HETATM    3  C1  UNL     1      23.770   2.220  51.410  1.00  0.00     0.069 C 
HETATM    4  C8  UNL     1      24.913   3.201  51.418  1.00  0.00     0.096 C 
HETATM    5  C9  UNL     1      24.463   4.270  50.451  1.00  0.00     0.174 C 
ENDROOT
BRANCH   3   6
HETATM    6  C2  UNL     1      23.606   1.177  52.418  1.00  0.00    -0.009 A 
HETATM    7  C3  UNL     1      24.667   0.473  52.926  1.00  0.00     0.016 A 
HETATM    8  C4  UNL     1      24.443  -0.504  53.880  1.00  0.00     0.043 A 
HETATM    9  C5  UNL     1      23.168  -0.785  54.332  1.00  0.00     0.116 A 
HETATM   10  F1  UNL     1      22.932  -1.735  55.263  1.00  0.00    -0.206 F 
HETATM   11  C6  UNL     1      22.071  -0.083  53.831  1.00  0.00     0.043 A 
HETATM   12  C7  UNL     1      22.329   0.884  52.881  1.00  0.00     0.016 A 
ENDBRANCH   3   6
BRANCH   1  13
HETATM   13  O1  UNL     1      23.021   3.762  48.394  1.00  0.00    -0.270 OA
HETATM   14  H1  UNL     1      23.479   3.196  47.724  1.00  0.00     0.246 HD
ENDBRANCH   1  13
BRANCH   5  15
HETATM   15  C10 UNL     1      25.561   4.862  49.683  1.00  0.00    -0.031 A 
HETATM   16  C11 UNL     1      26.702   4.123  49.405  1.00  0.00     0.012 A 
HETATM   17  C12 UNL     1      27.751   4.651  48.683  1.00  0.00     0.043 A 
HETATM   18  C13 UNL     1      27.696   5.958  48.210  1.00  0.00     0.116 A 
HETATM   19  F2  UNL     1      28.683   6.556  47.493  1.00  0.00    -0.206 F 
HETATM   20  C14 UNL     1      26.547   6.653  48.509  1.00  0.00     0.043 A 
HETATM   21  C15 UNL     1      25.471   6.157  49.230  1.00  0.00     0.012 A 
ENDBRANCH   5  15
TORSDOF 3
ENDMDL
MODEL 7
REMARK VINA RESULT:      -7.6      4.551      5.372
REMARK  3 active torsions:
REMARK  status: ('A' for Active; 'I' for Inactive)
REMARK    1  A    between atoms: O1_1  and  N1_2 
REMARK    2  A    between atoms: C1_4  and  C2_5 
REMARK    3  A    between atoms: C9_13  and  C10_14 
ROOT
HETATM    1  N1  UNL     1      24.841   3.043  51.713  1.00  0.00    -0.169 N 
HETATM    2  N2  UNL     1      24.616   4.231  50.975  1.00  0.00    -0.154 NA
HETATM    3  C1  UNL     1      25.579   4.438  50.141  1.00  0.00     0.069 C 
HETATM    4  C8  UNL     1      26.596   3.334  50.257  1.00  0.00     0.096 C 
HETATM    5  C9  UNL     1      25.869   2.268  51.040  1.00  0.00     0.174 C 
ENDROOT
BRANCH   3   6
HETATM    6  C2  UNL     1      25.711   5.552  49.207  1.00  0.00    -0.009 A 
HETATM    7  C3  UNL     1      24.630   6.269  48.761  1.00  0.00     0.016 A 
HETATM    8  C4  UNL     1      24.823   7.313  47.875  1.00  0.00     0.043 A 
HETATM    9  C5  UNL     1      26.087   7.649  47.428  1.00  0.00     0.116 A 
HETATM   10  F1  UNL     1      26.293   8.666  46.563  1.00  0.00    -0.206 F 
HETATM   11  C6  UNL     1      27.203   6.936  47.866  1.00  0.00     0.043 A 
HETATM   12  C7  UNL     1      26.976   5.900  48.750  1.00  0.00     0.016 A 
ENDBRANCH   3   6
BRANCH   1  13
HETATM   13  O1  UNL     1      24.131   2.814  52.843  1.00  0.00    -0.270 OA
HETATM   14  H1  UNL     1      23.186   3.089  52.755  1.00  0.00     0.246 HD
ENDBRANCH   1  13
BRANCH   5  15
HETATM   15  C10 UNL     1      26.739   1.508  51.940  1.00  0.00    -0.031 A 
HETATM   16  C11 UNL     1      26.632   0.127  52.021  1.00  0.00     0.012 A 
HETATM   17  C12 UNL     1      27.437  -0.616  52.858  1.00  0.00     0.043 A 
HETATM   18  C13 UNL     1      28.391   0.007  53.657  1.00  0.00     0.116 A 
HETATM   19  F2  UNL     1      29.223  -0.648  54.508  1.00  0.00    -0.206 F 
HETATM   20  C14 UNL     1      28.462   1.376  53.544  1.00  0.00     0.043 A 
HETATM   21  C15 UNL     1      27.671   2.158  52.715  1.00  0.00     0.012 A 
ENDBRANCH   5  15
TORSDOF 3
ENDMDL
MODEL 8
REMARK VINA RESULT:      -7.6      4.438      6.370
REMARK  3 active torsions:
REMARK  status: ('A' for Active; 'I' for Inactive)
REMARK    1  A    between atoms: O1_1  and  N1_2 
REMARK    2  A    between atoms: C1_4  and  C2_5 
REMARK    3  A    between atoms: C9_13  and  C10_14 
ROOT
HETATM    1  N1  UNL     1      22.613   3.498  51.386  1.00  0.00    -0.169 N 
HETATM    2  N2  UNL     1      23.425   4.482  50.773  1.00  0.00    -0.154 NA
HETATM    3  C1  UNL     1      24.506   3.954  50.306  1.00  0.00     0.069 C 
HETATM    4  C8  UNL     1      24.509   2.474  50.586  1.00  0.00     0.096 C 
HETATM    5  C9  UNL     1      23.077   2.186  50.967  1.00  0.00     0.174 C 
ENDROOT
BRANCH   3   6
HETATM    6  C2  UNL     1      25.590   4.636  49.606  1.00  0.00    -0.009 A 
HETATM    7  C3  UNL     1      26.788   4.025  49.332  1.00  0.00     0.016 A 
HETATM    8  C4  UNL     1      27.775   4.728  48.666  1.00  0.00     0.043 A 
HETATM    9  C5  UNL     1      27.579   6.038  48.270  1.00  0.00     0.116 A 
HETATM   10  F1  UNL     1      28.532   6.738  47.618  1.00  0.00    -0.206 F 
HETATM   11  C6  UNL     1      26.371   6.683  48.536  1.00  0.00     0.043 A 
HETATM   12  C7  UNL     1      25.407   5.953  49.203  1.00  0.00     0.016 A 
ENDBRANCH   3   6
BRANCH   1  13
HETATM   13  O1  UNL     1      21.606   3.879  52.207  1.00  0.00    -0.270 OA
HETATM   14  H1  UNL     1      21.372   4.834  52.096  1.00  0.00     0.246 HD
ENDBRANCH   1  13
BRANCH   5  15
HETATM   15  C10 UNL     1      22.942   1.143  51.985  1.00  0.00    -0.031 A 
HETATM   16  C11 UNL     1      21.745   0.457  52.134  1.00  0.00     0.012 A 
HETATM   17  C12 UNL     1      21.586  -0.530  53.083  1.00  0.00     0.043 A 
HETATM   18  C13 UNL     1      22.635  -0.870  53.931  1.00  0.00     0.116 A 
HETATM   19  F2  UNL     1      22.565  -1.827  54.891  1.00  0.00    -0.206 F 
HETATM   20  C14 UNL     1      23.803  -0.165  53.748  1.00  0.00     0.043 A 
HETATM   21  C15 UNL     1      24.001   0.834  52.806  1.00  0.00     0.012 A 
ENDBRANCH   5  15
TORSDOF 3
ENDMDL
MODEL 9
REMARK VINA RESULT:      -7.6      2.859      3.286
REMARK  3 active torsions:
REMARK  status: ('A' for Active; 'I' for Inactive)
REMARK    1  A    between atoms: O1_1  and  N1_2 
REMARK    2  A    between atoms: C1_4  and  C2_5 
REMARK    3  A    between atoms: C9_13  and  C10_14 
ROOT
HETATM    1  N1  UNL     1      24.955  -0.097  53.435  1.00  0.00    -0.169 N 
HETATM    2  N2  UNL     1      24.032   0.928  53.114  1.00  0.00    -0.154 NA
HETATM    3  C1  UNL     1      24.517   1.709  52.207  1.00  0.00     0.069 C 
HETATM    4  C8  UNL     1      25.895   1.241  51.819  1.00  0.00     0.096 C 
HETATM    5  C9  UNL     1      25.967  -0.153  52.394  1.00  0.00     0.174 C 
ENDROOT
BRANCH   3   6
HETATM    6  C2  UNL     1      23.873   2.876  51.613  1.00  0.00    -0.009 A 
HETATM    7  C3  UNL     1      23.712   3.017  50.258  1.00  0.00     0.016 A 
HETATM    8  C4  UNL     1      23.093   4.148  49.759  1.00  0.00     0.043 A 
HETATM    9  C5  UNL     1      22.634   5.144  50.601  1.00  0.00     0.116 A 
HETATM   10  F1  UNL     1      22.027   6.255  50.129  1.00  0.00    -0.206 F 
HETATM   11  C6  UNL     1      22.785   5.026  51.982  1.00  0.00     0.043 A 
HETATM   12  C7  UNL     1      23.406   3.884  52.447  1.00  0.00     0.016 A 
ENDBRANCH   3   6
BRANCH   1  13
HETATM   13  O1  UNL     1      24.783  -0.820  54.568  1.00  0.00    -0.270 OA
HETATM   14  H1  UNL     1      23.956  -0.572  55.049  1.00  0.00     0.246 HD
ENDBRANCH   1  13
BRANCH   5  15
HETATM   15  C10 UNL     1      27.302  -0.521  52.868  1.00  0.00    -0.031 A 
HETATM   16  C11 UNL     1      27.734  -1.838  52.800  1.00  0.00     0.012 A 
HETATM   17  C12 UNL     1      28.986  -2.216  53.237  1.00  0.00     0.043 A 
HETATM   18  C13 UNL     1      29.862  -1.275  53.770  1.00  0.00     0.116 A 
HETATM   19  F2  UNL     1      31.109  -1.561  54.224  1.00  0.00    -0.206 F 
HETATM   20  C14 UNL     1      29.392   0.017  53.819  1.00  0.00     0.043 A 
HETATM   21  C15 UNL     1      28.142   0.436  53.388  1.00  0.00     0.012 A 
ENDBRANCH   5  15
TORSDOF 3
ENDMDL
