MODEL 1
REMARK VINA RESULT:      -7.5      0.000      0.000
REMARK  7 active torsions:
REMARK  status: ('A' for Active; 'I' for Inactive)
REMARK    1  A    between atoms: O1_2  and  C2_3 
REMARK    2  A    between atoms: C2_3  and  C3_4 
REMARK    3  A    between atoms: C3_4  and  O3_23 
REMARK    4  A    between atoms: C4_5  and  C5_6 
REMARK    5  A    between atoms: C6_7  and  N1_8 
REMARK    6  A    between atoms: N1_8  and  C7_9 
REMARK    7  A    between atoms: C15_20  and  O2_21 
ROOT
HETATM    1  C5  UNL     1      24.504   0.585  52.780  1.00  0.00     0.046 A 
HETATM    2  C6  UNL     1      24.396   1.480  51.747  1.00  0.00     0.048 A 
HETATM    3  C13 UNL     1      23.158   1.716  51.201  1.00  0.00     0.050 A 
HETATM    4  C14 UNL     1      22.055   1.072  51.674  1.00  0.00     0.122 A 
HETATM    5  N2  UNL     1      22.167   0.195  52.686  1.00  0.00    -0.236 NA
HETATM    6  C15 UNL     1      23.363  -0.075  53.260  1.00  0.00     0.176 A 
ENDROOT
BRANCH   2   7
HETATM    7  N1  UNL     1      25.573   2.098  51.270  1.00  0.00    -0.355 N 
HETATM    8  H7  UNL     1      26.497   1.639  51.411  1.00  0.00     0.166 HD
BRANCH   7   9
HETATM    9  C7  UNL     1      25.819   3.289  50.566  1.00  0.00     0.034 A 
HETATM   10  C8  UNL     1      26.782   3.467  49.597  1.00  0.00     0.032 A 
HETATM   11  C9  UNL     1      27.013   4.619  48.882  1.00  0.00     0.046 A 
HETATM   12  C10 UNL     1      26.219   5.707  49.139  1.00  0.00     0.138 A 
HETATM   13  F1  UNL     1      26.374   6.868  48.489  1.00  0.00    -0.204 F 
HETATM   14  C11 UNL     1      25.238   5.636  50.080  1.00  0.00     0.074 A 
HETATM   15 CL1  UNL     1      24.219   7.018  50.418  1.00  0.00    -0.081 Cl
HETATM   16  C12 UNL     1      25.063   4.451  50.759  1.00  0.00     0.056 A 
ENDBRANCH   7   9
ENDBRANCH   2   7
BRANCH   1  17
HETATM   17  C4  UNL     1      25.742   0.254  53.513  1.00  0.00     0.052 C 
HETATM   18  C3  UNL     1      26.828   0.888  53.972  1.00  0.00     0.070 C 
BRANCH  18  19
HETATM   19  C2  UNL     1      27.916   0.207  54.694  1.00  0.00     0.231 C 
BRANCH  19  20
HETATM   20  O1  UNL     1      28.266  -0.994  54.127  1.00  0.00    -0.390 OA
HETATM   21  C1  UNL     1      29.632  -0.956  53.782  1.00  0.00     0.201 C 
ENDBRANCH  19  20
ENDBRANCH  18  19
BRANCH  18  22
HETATM   22  O3  UNL     1      27.332   2.173  53.991  1.00  0.00    -0.358 OA
HETATM   23  C17 UNL     1      28.598   2.575  53.561  1.00  0.00     0.209 C 
ENDBRANCH  18  22
ENDBRANCH   1  17
BRANCH   6  24
HETATM   24  O2  UNL     1      23.469  -0.985  54.305  1.00  0.00    -0.339 OA
HETATM   25  C16 UNL     1      22.274  -1.367  54.956  1.00  0.00     0.211 C 
ENDBRANCH   6  24
TORSDOF 7
ENDMDL
MODEL 2
REMARK VINA RESULT:      -7.3      3.520      5.872
REMARK  7 active torsions:
REMARK  status: ('A' for Active; 'I' for Inactive)
REMARK    1  A    between atoms: O1_2  and  C2_3 
REMARK    2  A    between atoms: C2_3  and  C3_4 
REMARK    3  A    between atoms: C3_4  and  O3_23 
REMARK    4  A    between atoms: C4_5  and  C5_6 
REMARK    5  A    between atoms: C6_7  and  N1_8 
REMARK    6  A    between atoms: N1_8  and  C7_9 
REMARK    7  A    between atoms: C15_20  and  O2_21 
ROOT
HETATM    1  C5  UNL     1      22.653   0.126  53.134  1.00  0.00     0.046 A 
HETATM    2  C6  UNL     1      23.863  -0.329  53.591  1.00  0.00     0.048 A 
HETATM    3  C13 UNL     1      23.894  -1.108  54.721  1.00  0.00     0.050 A 
HETATM    4  C14 UNL     1      22.744  -1.425  55.380  1.00  0.00     0.122 A 
HETATM    5  N2  UNL     1      21.561  -0.976  54.928  1.00  0.00    -0.236 NA
HETATM    6  C15 UNL     1      21.473  -0.204  53.819  1.00  0.00     0.176 A 
ENDROOT
BRANCH   2   7
HETATM    7  N1  UNL     1      25.030   0.054  52.893  1.00  0.00    -0.355 N 
HETATM    8  H7  UNL     1      24.955   0.623  52.025  1.00  0.00     0.166 HD
BRANCH   7   9
HETATM    9  C7  UNL     1      26.400  -0.153  53.121  1.00  0.00     0.034 A 
HETATM   10  C8  UNL     1      27.093  -1.316  52.863  1.00  0.00     0.032 A 
HETATM   11  C9  UNL     1      28.440  -1.520  53.055  1.00  0.00     0.046 A 
HETATM   12  C10 UNL     1      29.185  -0.481  53.548  1.00  0.00     0.138 A 
HETATM   13  F1  UNL     1      30.502  -0.592  53.765  1.00  0.00    -0.204 F 
HETATM   14  C11 UNL     1      28.596   0.712  53.837  1.00  0.00     0.074 A 
HETATM   15 CL1  UNL     1      29.536   2.046  54.468  1.00  0.00    -0.081 Cl
HETATM   16  C12 UNL     1      27.242   0.847  53.621  1.00  0.00     0.056 A 
ENDBRANCH   7   9
ENDBRANCH   2   7
BRANCH   1  17
HETATM   17  C4  UNL     1      22.433   0.926  51.913  1.00  0.00     0.052 C 
HETATM   18  C3  UNL     1      23.006   1.958  51.281  1.00  0.00     0.070 C 
BRANCH  18  19
HETATM   19  C2  UNL     1      22.489   2.522  50.023  1.00  0.00     0.231 C 
BRANCH  19  20
HETATM   20  O1  UNL     1      22.253   1.566  49.065  1.00  0.00    -0.390 OA
HETATM   21  C1  UNL     1      20.931   1.705  48.597  1.00  0.00     0.201 C 
ENDBRANCH  19  20
ENDBRANCH  18  19
BRANCH  18  22
HETATM   22  O3  UNL     1      24.093   2.791  51.457  1.00  0.00    -0.358 OA
HETATM   23  C17 UNL     1      25.106   3.040  50.530  1.00  0.00     0.209 C 
ENDBRANCH  18  22
ENDBRANCH   1  17
BRANCH   6  24
HETATM   24  O2  UNL     1      20.246   0.257  53.360  1.00  0.00    -0.339 OA
HETATM   25  C16 UNL     1      19.204  -0.690  53.231  1.00  0.00     0.211 C 
ENDBRANCH   6  24
TORSDOF 7
ENDMDL
MODEL 3
REMARK VINA RESULT:      -7.3      1.125      1.452
REMARK  7 active torsions:
REMARK  status: ('A' for Active; 'I' for Inactive)
REMARK    1  A    between atoms: O1_2  and  C2_3 
REMARK    2  A    between atoms: C2_3  and  C3_4 
REMARK    3  A    between atoms: C3_4  and  O3_23 
REMARK    4  A    between atoms: C4_5  and  C5_6 
REMARK    5  A    between atoms: C6_7  and  N1_8 
REMARK    6  A    between atoms: N1_8  and  C7_9 
REMARK    7  A    between atoms: C15_20  and  O2_21 
ROOT
HETATM    1  C5  UNL     1      24.197   0.630  52.719  1.00  0.00     0.046 A 
HETATM    2  C6  UNL     1      24.071   1.555  51.716  1.00  0.00     0.048 A 
HETATM    3  C13 UNL     1      22.830   1.779  51.173  1.00  0.00     0.050 A 
HETATM    4  C14 UNL     1      21.740   1.094  51.621  1.00  0.00     0.122 A 
HETATM    5  N2  UNL     1      21.870   0.188  52.603  1.00  0.00    -0.236 NA
HETATM    6  C15 UNL     1      23.070  -0.072  53.174  1.00  0.00     0.176 A 
ENDROOT
BRANCH   2   7
HETATM    7  N1  UNL     1      25.235   2.216  51.263  1.00  0.00    -0.355 N 
HETATM    8  H7  UNL     1      26.175   1.837  51.501  1.00  0.00     0.166 HD
BRANCH   7   9
HETATM    9  C7  UNL     1      25.450   3.361  50.478  1.00  0.00     0.034 A 
HETATM   10  C8  UNL     1      24.541   4.374  50.266  1.00  0.00     0.032 A 
HETATM   11  C9  UNL     1      24.750   5.512  49.522  1.00  0.00     0.046 A 
HETATM   12  C10 UNL     1      25.974   5.677  48.927  1.00  0.00     0.138 A 
HETATM   13  F1  UNL     1      26.264   6.755  48.186  1.00  0.00    -0.204 F 
HETATM   14  C11 UNL     1      26.943   4.732  49.073  1.00  0.00     0.074 A 
HETATM   15 CL1  UNL     1      28.508   4.931  48.317  1.00  0.00    -0.081 Cl
HETATM   16  C12 UNL     1      26.665   3.616  49.831  1.00  0.00     0.056 A 
ENDBRANCH   7   9
ENDBRANCH   2   7
BRANCH   1  17
HETATM   17  C4  UNL     1      25.440   0.304  53.446  1.00  0.00     0.052 C 
HETATM   18  C3  UNL     1      26.543   0.936  53.867  1.00  0.00     0.070 C 
BRANCH  18  19
HETATM   19  C2  UNL     1      27.631   0.262  54.597  1.00  0.00     0.231 C 
BRANCH  19  20
HETATM   20  O1  UNL     1      27.969  -0.952  54.052  1.00  0.00    -0.390 OA
HETATM   21  C1  UNL     1      29.356  -0.968  53.797  1.00  0.00     0.201 C 
ENDBRANCH  19  20
ENDBRANCH  18  19
BRANCH  18  22
HETATM   22  O3  UNL     1      27.069   2.212  53.832  1.00  0.00    -0.358 OA
HETATM   23  C17 UNL     1      28.366   2.566  53.457  1.00  0.00     0.209 C 
ENDBRANCH  18  22
ENDBRANCH   1  17
BRANCH   6  24
HETATM   24  O2  UNL     1      23.195  -1.013  54.189  1.00  0.00    -0.339 OA
HETATM   25  C16 UNL     1      22.002  -1.542  54.733  1.00  0.00     0.211 C 
ENDBRANCH   6  24
TORSDOF 7
ENDMDL
MODEL 4
REMARK VINA RESULT:      -7.1      3.756      6.328
REMARK  7 active torsions:
REMARK  status: ('A' for Active; 'I' for Inactive)
REMARK    1  A    between atoms: O1_2  and  C2_3 
REMARK    2  A    between atoms: C2_3  and  C3_4 
REMARK    3  A    between atoms: C3_4  and  O3_23 
REMARK    4  A    between atoms: C4_5  and  C5_6 
REMARK    5  A    between atoms: C6_7  and  N1_8 
REMARK    6  A    between atoms: N1_8  and  C7_9 
REMARK    7  A    between atoms: C15_20  and  O2_21 
ROOT
HETATM    1  C5  UNL     1      24.163   2.153  51.299  1.00  0.00     0.046 A 
HETATM    2  C6  UNL     1      25.498   2.218  51.600  1.00  0.00     0.048 A 
HETATM    3  C13 UNL     1      26.335   2.907  50.756  1.00  0.00     0.050 A 
HETATM    4  C14 UNL     1      25.848   3.515  49.637  1.00  0.00     0.122 A 
HETATM    5  N2  UNL     1      24.538   3.446  49.348  1.00  0.00    -0.236 NA
HETATM    6  C15 UNL     1      23.670   2.780  50.145  1.00  0.00     0.176 A 
ENDROOT
BRANCH   2   7
HETATM    7  N1  UNL     1      25.961   1.545  52.753  1.00  0.00    -0.355 N 
HETATM    8  H7  UNL     1      25.344   1.456  53.586  1.00  0.00     0.166 HD
BRANCH   7   9
HETATM    9  C7  UNL     1      27.160   0.886  53.068  1.00  0.00     0.034 A 
HETATM   10  C8  UNL     1      28.289   1.476  53.592  1.00  0.00     0.032 A 
HETATM   11  C9  UNL     1      29.459   0.836  53.931  1.00  0.00     0.046 A 
HETATM   12  C10 UNL     1      29.531  -0.519  53.740  1.00  0.00     0.138 A 
HETATM   13  F1  UNL     1      30.630  -1.222  54.043  1.00  0.00    -0.204 F 
HETATM   14  C11 UNL     1      28.469  -1.198  53.225  1.00  0.00     0.074 A 
HETATM   15 CL1  UNL     1      28.549  -2.928  52.975  1.00  0.00    -0.081 Cl
HETATM   16  C12 UNL     1      27.329  -0.494  52.908  1.00  0.00     0.056 A 
ENDBRANCH   7   9
ENDBRANCH   2   7
BRANCH   1  17
HETATM   17  C4  UNL     1      23.122   1.503  52.120  1.00  0.00     0.052 C 
HETATM   18  C3  UNL     1      23.049   0.603  53.109  1.00  0.00     0.070 C 
BRANCH  18  19
HETATM   19  C2  UNL     1      21.778   0.171  53.715  1.00  0.00     0.231 C 
BRANCH  19  20
HETATM   20  O1  UNL     1      20.739   0.141  52.817  1.00  0.00    -0.390 OA
HETATM   21  C1  UNL     1      19.644  -0.521  53.408  1.00  0.00     0.201 C 
ENDBRANCH  19  20
ENDBRANCH  18  19
BRANCH  18  22
HETATM   22  O3  UNL     1      23.916  -0.166  53.859  1.00  0.00    -0.358 OA
HETATM   23  C17 UNL     1      23.566  -1.081  54.853  1.00  0.00     0.209 C 
ENDBRANCH  18  22
ENDBRANCH   1  17
BRANCH   6  24
HETATM   24  O2  UNL     1      22.317   2.714  49.836  1.00  0.00    -0.339 OA
HETATM   25  C16 UNL     1      21.780   3.754  49.044  1.00  0.00     0.211 C 
ENDBRANCH   6  24
TORSDOF 7
ENDMDL
MODEL 5
REMARK VINA RESULT:      -7.0      3.624      5.990
REMARK  7 active torsions:
REMARK  status: ('A' for Active; 'I' for Inactive)
REMARK    1  A    between atoms: O1_2  and  C2_3 
REMARK    2  A    between atoms: C2_3  and  C3_4 
REMARK    3  A    between atoms: C3_4  and  O3_23 
REMARK    4  A    between atoms: C4_5  and  C5_6 
REMARK    5  A    between atoms: C6_7  and  N1_8 
REMARK    6  A    between atoms: N1_8  and  C7_9 
REMARK    7  A    between atoms: C15_20  and  O2_21 
ROOT
HETATM    1  C5  UNL     1      25.305   2.949  51.094  1.00  0.00     0.046 A 
HETATM    2  C6  UNL     1      23.985   2.925  51.460  1.00  0.00     0.048 A 
HETATM    3  C13 UNL     1      23.054   3.489  50.622  1.00  0.00     0.050 A 
HETATM    4  C14 UNL     1      23.434   4.065  49.447  1.00  0.00     0.122 A 
HETATM    5  N2  UNL     1      24.730   4.086  49.094  1.00  0.00    -0.236 NA
HETATM    6  C15 UNL     1      25.689   3.544  49.882  1.00  0.00     0.176 A 
ENDROOT
BRANCH   2   7
HETATM    7  N1  UNL     1      23.643   2.346  52.703  1.00  0.00    -0.355 N 
HETATM    8  H7  UNL     1      23.898   2.829  53.590  1.00  0.00     0.166 HD
BRANCH   7   9
HETATM    9  C7  UNL     1      22.960   1.174  53.065  1.00  0.00     0.034 A 
HETATM   10  C8  UNL     1      23.512   0.083  53.701  1.00  0.00     0.032 A 
HETATM   11  C9  UNL     1      22.847  -1.057  54.085  1.00  0.00     0.046 A 
HETATM   12  C10 UNL     1      21.504  -1.139  53.823  1.00  0.00     0.138 A 
HETATM   13  F1  UNL     1      20.778  -2.212  54.163  1.00  0.00    -0.204 F 
HETATM   14  C11 UNL     1      20.862  -0.115  53.197  1.00  0.00     0.074 A 
HETATM   15 CL1  UNL     1      19.148  -0.208  52.857  1.00  0.00    -0.081 Cl
HETATM   16  C12 UNL     1      21.590   0.998  52.840  1.00  0.00     0.056 A 
ENDBRANCH   7   9
ENDBRANCH   2   7
BRANCH   1  17
HETATM   17  C4  UNL     1      26.423   2.346  51.846  1.00  0.00     0.052 C 
HETATM   18  C3  UNL     1      26.935   1.128  52.065  1.00  0.00     0.070 C 
BRANCH  18  19
HETATM   19  C2  UNL     1      28.116   0.889  52.913  1.00  0.00     0.231 C 
BRANCH  19  20
HETATM   20  O1  UNL     1      27.928   1.282  54.215  1.00  0.00    -0.390 OA
HETATM   21  C1  UNL     1      28.617   0.393  55.065  1.00  0.00     0.201 C 
ENDBRANCH  19  20
ENDBRANCH  18  19
BRANCH  18  22
HETATM   22  O3  UNL     1      26.673  -0.175  51.693  1.00  0.00    -0.358 OA
HETATM   23  C17 UNL     1      26.632  -1.287  52.536  1.00  0.00     0.209 C 
ENDBRANCH  18  22
ENDBRANCH   1  17
BRANCH   6  24
HETATM   24  O2  UNL     1      27.027   3.572  49.510  1.00  0.00    -0.339 OA
HETATM   25  C16 UNL     1      27.473   4.696  48.778  1.00  0.00     0.211 C 
ENDBRANCH   6  24
TORSDOF 7
ENDMDL
MODEL 6
REMARK VINA RESULT:      -6.9      3.631      5.696
REMARK  7 active torsions:
REMARK  status: ('A' for Active; 'I' for Inactive)
REMARK    1  A    between atoms: O1_2  and  C2_3 
REMARK    2  A    between atoms: C2_3  and  C3_4 
REMARK    3  A    between atoms: C3_4  and  O3_23 
REMARK    4  A    between atoms: C4_5  and  C5_6 
REMARK    5  A    between atoms: C6_7  and  N1_8 
REMARK    6  A    between atoms: N1_8  and  C7_9 
REMARK    7  A    between atoms: C15_20  and  O2_21 
ROOT
HETATM    1  C5  UNL     1      22.875   1.332  51.545  1.00  0.00     0.046 A 
HETATM    2  C6  UNL     1      23.152   0.865  52.803  1.00  0.00     0.048 A 
HETATM    3  C13 UNL     1      22.206   0.111  53.453  1.00  0.00     0.050 A 
HETATM    4  C14 UNL     1      21.012  -0.170  52.861  1.00  0.00     0.122 A 
HETATM    5  N2  UNL     1      20.746   0.291  51.627  1.00  0.00    -0.236 NA
HETATM    6  C15 UNL     1      21.642   1.039  50.941  1.00  0.00     0.176 A 
ENDROOT
BRANCH   2   7
HETATM    7  N1  UNL     1      24.391   1.210  53.389  1.00  0.00    -0.355 N 
HETATM    8  H7  UNL     1      24.464   2.054  53.994  1.00  0.00     0.166 HD
BRANCH   7   9
HETATM    9  C7  UNL     1      25.665   0.621  53.365  1.00  0.00     0.034 A 
HETATM   10  C8  UNL     1      25.971  -0.616  52.841  1.00  0.00     0.032 A 
HETATM   11  C9  UNL     1      27.220  -1.190  52.786  1.00  0.00     0.046 A 
HETATM   12  C10 UNL     1      28.278  -0.482  53.294  1.00  0.00     0.138 A 
HETATM   13  F1  UNL     1      29.527  -0.964  53.281  1.00  0.00    -0.204 F 
HETATM   14  C11 UNL     1      28.082   0.752  53.836  1.00  0.00     0.074 A 
HETATM   15 CL1  UNL     1      29.425   1.666  54.488  1.00  0.00    -0.081 Cl
HETATM   16  C12 UNL     1      26.805   1.266  53.859  1.00  0.00     0.056 A 
ENDBRANCH   7   9
ENDBRANCH   2   7
BRANCH   1  17
HETATM   17  C4  UNL     1      23.793   2.107  50.687  1.00  0.00     0.052 C 
HETATM   18  C3  UNL     1      24.243   3.364  50.591  1.00  0.00     0.070 C 
BRANCH  18  19
HETATM   19  C2  UNL     1      25.199   3.803  49.560  1.00  0.00     0.231 C 
BRANCH  19  20
HETATM   20  O1  UNL     1      26.032   4.806  49.993  1.00  0.00    -0.390 OA
HETATM   21  C1  UNL     1      26.649   5.402  48.876  1.00  0.00     0.201 C 
ENDBRANCH  19  20
ENDBRANCH  18  19
BRANCH  18  22
HETATM   22  O3  UNL     1      24.075   4.566  51.251  1.00  0.00    -0.358 OA
HETATM   23  C17 UNL     1      23.401   4.763  52.457  1.00  0.00     0.209 C 
ENDBRANCH  18  22
ENDBRANCH   1  17
BRANCH   6  24
HETATM   24  O2  UNL     1      21.358   1.512  49.666  1.00  0.00    -0.339 OA
HETATM   25  C16 UNL     1      20.203   2.313  49.515  1.00  0.00     0.211 C 
ENDBRANCH   6  24
TORSDOF 7
ENDMDL
MODEL 7
REMARK VINA RESULT:      -6.8      3.441      5.871
REMARK  7 active torsions:
REMARK  status: ('A' for Active; 'I' for Inactive)
REMARK    1  A    between atoms: O1_2  and  C2_3 
REMARK    2  A    between atoms: C2_3  and  C3_4 
REMARK    3  A    between atoms: C3_4  and  O3_23 
REMARK    4  A    between atoms: C4_5  and  C5_6 
REMARK    5  A    between atoms: C6_7  and  N1_8 
REMARK    6  A    between atoms: N1_8  and  C7_9 
REMARK    7  A    between atoms: C15_20  and  O2_21 
ROOT
HETATM    1  C5  UNL     1      24.282   3.431  51.448  1.00  0.00     0.046 A 
HETATM    2  C6  UNL     1      25.469   3.274  50.781  1.00  0.00     0.048 A 
HETATM    3  C13 UNL     1      25.978   4.337  50.075  1.00  0.00     0.050 A 
HETATM    4  C14 UNL     1      25.316   5.528  50.036  1.00  0.00     0.122 A 
HETATM    5  N2  UNL     1      24.153   5.675  50.691  1.00  0.00    -0.236 NA
HETATM    6  C15 UNL     1      23.606   4.660  51.402  1.00  0.00     0.176 A 
ENDROOT
BRANCH   2   7
HETATM    7  N1  UNL     1      26.101   2.011  50.824  1.00  0.00    -0.355 N 
HETATM    8  H7  UNL     1      26.116   1.407  49.976  1.00  0.00     0.166 HD
BRANCH   7   9
HETATM    9  C7  UNL     1      26.798   1.317  51.826  1.00  0.00     0.034 A 
HETATM   10  C8  UNL     1      26.696  -0.032  52.091  1.00  0.00     0.032 A 
HETATM   11  C9  UNL     1      27.394  -0.727  53.050  1.00  0.00     0.046 A 
HETATM   12  C10 UNL     1      28.285  -0.034  53.828  1.00  0.00     0.138 A 
HETATM   13  F1  UNL     1      29.007  -0.632  54.785  1.00  0.00    -0.204 F 
HETATM   14  C11 UNL     1      28.460   1.304  53.648  1.00  0.00     0.074 A 
HETATM   15 CL1  UNL     1      29.593   2.200  54.635  1.00  0.00    -0.081 Cl
HETATM   16  C12 UNL     1      27.727   1.937  52.669  1.00  0.00     0.056 A 
ENDBRANCH   7   9
ENDBRANCH   2   7
BRANCH   1  17
HETATM   17  C4  UNL     1      23.623   2.416  52.293  1.00  0.00     0.052 C 
HETATM   18  C3  UNL     1      22.787   1.381  52.139  1.00  0.00     0.070 C 
BRANCH  18  19
HETATM   19  C2  UNL     1      22.316   0.550  53.260  1.00  0.00     0.231 C 
BRANCH  19  20
HETATM   20  O1  UNL     1      23.273  -0.319  53.721  1.00  0.00    -0.390 OA
HETATM   21  C1  UNL     1      22.725  -1.093  54.764  1.00  0.00     0.201 C 
ENDBRANCH  19  20
ENDBRANCH  18  19
BRANCH  18  22
HETATM   22  O3  UNL     1      22.126   0.744  51.108  1.00  0.00    -0.358 OA
HETATM   23  C17 UNL     1      21.486   1.355  50.028  1.00  0.00     0.209 C 
ENDBRANCH  18  22
ENDBRANCH   1  17
BRANCH   6  24
HETATM   24  O2  UNL     1      22.402   4.822  52.076  1.00  0.00    -0.339 OA
HETATM   25  C16 UNL     1      21.255   5.098  51.296  1.00  0.00     0.211 C 
ENDBRANCH   6  24
TORSDOF 7
ENDMDL
MODEL 8
REMARK VINA RESULT:      -6.6      2.705      4.772
REMARK  7 active torsions:
REMARK  status: ('A' for Active; 'I' for Inactive)
REMARK    1  A    between atoms: O1_2  and  C2_3 
REMARK    2  A    between atoms: C2_3  and  C3_4 
REMARK    3  A    between atoms: C3_4  and  O3_23 
REMARK    4  A    between atoms: C4_5  and  C5_6 
REMARK    5  A    between atoms: C6_7  and  N1_8 
REMARK    6  A    between atoms: N1_8  and  C7_9 
REMARK    7  A    between atoms: C15_20  and  O2_21 
ROOT
HETATM    1  C5  UNL     1      25.869   0.655  53.457  1.00  0.00     0.046 A 
HETATM    2  C6  UNL     1      26.151   1.996  53.438  1.00  0.00     0.048 A 
HETATM    3  C13 UNL     1      27.463   2.397  53.377  1.00  0.00     0.050 A 
HETATM    4  C14 UNL     1      28.470   1.480  53.337  1.00  0.00     0.122 A 
HETATM    5  N2  UNL     1      28.187   0.167  53.357  1.00  0.00    -0.236 NA
HETATM    6  C15 UNL     1      26.912  -0.283  53.417  1.00  0.00     0.176 A 
ENDROOT
BRANCH   2   7
HETATM    7  N1  UNL     1      25.075   2.909  53.515  1.00  0.00    -0.355 N 
HETATM    8  H7  UNL     1      24.790   3.302  54.435  1.00  0.00     0.166 HD
BRANCH   7   9
HETATM    9  C7  UNL     1      24.228   3.483  52.552  1.00  0.00     0.034 A 
HETATM   10  C8  UNL     1      23.448   4.604  52.732  1.00  0.00     0.032 A 
HETATM   11  C9  UNL     1      22.638   5.191  51.788  1.00  0.00     0.046 A 
HETATM   12  C10 UNL     1      22.587   4.626  50.541  1.00  0.00     0.138 A 
HETATM   13  F1  UNL     1      21.826   5.132  49.561  1.00  0.00    -0.204 F 
HETATM   14  C11 UNL     1      23.320   3.513  50.260  1.00  0.00     0.074 A 
HETATM   15 CL1  UNL     1      23.263   2.781  48.671  1.00  0.00    -0.081 Cl
HETATM   16  C12 UNL     1      24.110   2.977  51.252  1.00  0.00     0.056 A 
ENDBRANCH   7   9
ENDBRANCH   2   7
BRANCH   1  17
HETATM   17  C4  UNL     1      24.521   0.053  53.468  1.00  0.00     0.052 C 
HETATM   18  C3  UNL     1      23.775  -0.704  54.282  1.00  0.00     0.070 C 
BRANCH  18  19
HETATM   19  C2  UNL     1      22.406  -1.137  53.951  1.00  0.00     0.231 C 
BRANCH  19  20
HETATM   20  O1  UNL     1      21.454  -0.567  54.761  1.00  0.00    -0.390 OA
HETATM   21  C1  UNL     1      20.412  -0.064  53.958  1.00  0.00     0.201 C 
ENDBRANCH  19  20
ENDBRANCH  18  19
BRANCH  18  22
HETATM   22  O3  UNL     1      23.893  -1.300  55.522  1.00  0.00    -0.358 OA
HETATM   23  C17 UNL     1      24.888  -1.053  56.469  1.00  0.00     0.209 C 
ENDBRANCH  18  22
ENDBRANCH   1  17
BRANCH   6  24
HETATM   24  O2  UNL     1      26.630  -1.644  53.439  1.00  0.00    -0.339 OA
HETATM   25  C16 UNL     1      27.173  -2.435  52.401  1.00  0.00     0.211 C 
ENDBRANCH   6  24
TORSDOF 7
ENDMDL
MODEL 9
REMARK VINA RESULT:      -6.6      3.838      6.074
REMARK  7 active torsions:
REMARK  status: ('A' for Active; 'I' for Inactive)
REMARK    1  A    between atoms: O1_2  and  C2_3 
REMARK    2  A    between atoms: C2_3  and  C3_4 
REMARK    3  A    between atoms: C3_4  and  O3_23 
REMARK    4  A    between atoms: C4_5  and  C5_6 
REMARK    5  A    between atoms: C6_7  and  N1_8 
REMARK    6  A    between atoms: N1_8  and  C7_9 
REMARK    7  A    between atoms: C15_20  and  O2_21 
ROOT
HETATM    1  C5  UNL     1      24.678   3.008  50.922  1.00  0.00     0.046 A 
HETATM    2  C6  UNL     1      23.444   3.355  51.408  1.00  0.00     0.048 A 
HETATM    3  C13 UNL     1      22.754   4.373  50.798  1.00  0.00     0.050 A 
HETATM    4  C14 UNL     1      23.284   5.030  49.728  1.00  0.00     0.122 A 
HETATM    5  N2  UNL     1      24.494   4.687  49.257  1.00  0.00    -0.236 NA
HETATM    6  C15 UNL     1      25.218   3.691  49.821  1.00  0.00     0.176 A 
ENDROOT
BRANCH   2   7
HETATM    7  N1  UNL     1      22.951   2.666  52.539  1.00  0.00    -0.355 N 
HETATM    8  H7  UNL     1      23.351   2.859  53.481  1.00  0.00     0.166 HD
BRANCH   7   9
HETATM    9  C7  UNL     1      21.941   1.707  52.719  1.00  0.00     0.034 A 
HETATM   10  C8  UNL     1      20.663   1.779  52.211  1.00  0.00     0.032 A 
HETATM   11  C9  UNL     1      19.675   0.832  52.356  1.00  0.00     0.046 A 
HETATM   12  C10 UNL     1      19.969  -0.300  53.070  1.00  0.00     0.138 A 
HETATM   13  F1  UNL     1      19.067  -1.273  53.260  1.00  0.00    -0.204 F 
HETATM   14  C11 UNL     1      21.205  -0.469  53.615  1.00  0.00     0.074 A 
HETATM   15 CL1  UNL     1      21.591  -1.911  54.529  1.00  0.00    -0.081 Cl
HETATM   16  C12 UNL     1      22.146   0.519  53.431  1.00  0.00     0.056 A 
ENDBRANCH   7   9
ENDBRANCH   2   7
BRANCH   1  17
HETATM   17  C4  UNL     1      25.528   1.910  51.422  1.00  0.00     0.052 C 
HETATM   18  C3  UNL     1      26.732   1.760  51.989  1.00  0.00     0.070 C 
BRANCH  18  19
HETATM   19  C2  UNL     1      27.286   0.451  52.373  1.00  0.00     0.231 C 
BRANCH  19  20
HETATM   20  O1  UNL     1      26.359  -0.561  52.315  1.00  0.00    -0.390 OA
HETATM   21  C1  UNL     1      26.978  -1.770  52.691  1.00  0.00     0.201 C 
ENDBRANCH  19  20
ENDBRANCH  18  19
BRANCH  18  22
HETATM   22  O3  UNL     1      27.781   2.563  52.393  1.00  0.00    -0.358 OA
HETATM   23  C17 UNL     1      28.562   2.394  53.537  1.00  0.00     0.209 C 
ENDBRANCH  18  22
ENDBRANCH   1  17
BRANCH   6  24
HETATM   24  O2  UNL     1      26.469   3.344  49.327  1.00  0.00    -0.339 OA
HETATM   25  C16 UNL     1      27.324   4.397  48.928  1.00  0.00     0.211 C 
ENDBRANCH   6  24
TORSDOF 7
ENDMDL
