MODEL 1
REMARK VINA RESULT:      -8.7      0.000      0.000
REMARK  4 active torsions:
REMARK  status: ('A' for Active; 'I' for Inactive)
REMARK    1  A    between atoms: C2_2  and  C3_3 
REMARK       I    between atoms: C3_3  and  N1_5 
REMARK    2  A    between atoms: N1_5  and  C4_6 
REMARK    3  A    between atoms: C12_15  and  N3_16 
REMARK    4  A    between atoms: N3_16  and  C13_17 
ROOT
HETATM    1  C4  UNL     1      25.580   1.291  52.908  1.00  0.00     0.035 A 
HETATM    2  C5  UNL     1      25.285   2.630  53.020  1.00  0.00     0.032 A 
HETATM    3  C6  UNL     1      24.026   3.171  52.876  1.00  0.00     0.040 A 
HETATM    4  C7  UNL     1      22.964   2.351  52.603  1.00  0.00     0.086 A 
HETATM    5  C8  UNL     1      23.211   0.999  52.482  1.00  0.00    -0.004 A 
HETATM    6  C9  UNL     1      24.491   0.505  52.634  1.00  0.00     0.041 A 
HETATM    7  C10 UNL     1      22.301  -0.120  52.195  1.00  0.00     0.161 C 
HETATM    8  N2  UNL     1      20.917   0.126  52.421  1.00  0.00    -0.379 N 
HETATM    9  C11 UNL     1      20.092   1.261  52.153  1.00  0.00     0.128 A 
HETATM   10  C12 UNL     1      18.812   0.876  51.848  1.00  0.00     0.156 A 
HETATM   11  N4  UNL     1      17.949   1.869  51.586  1.00  0.00    -0.222 NA
HETATM   12  C18 UNL     1      18.359   3.146  51.632  1.00  0.00     0.238 A 
HETATM   13  N5  UNL     1      19.608   3.548  51.928  1.00  0.00    -0.215 NA
HETATM   14  C19 UNL     1      20.516   2.593  52.200  1.00  0.00     0.202 A 
HETATM   15  O2  UNL     1      21.797   3.095  52.499  1.00  0.00    -0.289 OA
HETATM   16  H10 UNL     1      20.337  -0.643  52.872  1.00  0.00     0.160 HD
ENDROOT
BRANCH  10  17
HETATM   17  N3  UNL     1      18.379  -0.479  51.787  1.00  0.00    -0.362 N 
HETATM   18  H11 UNL     1      18.573  -1.269  51.147  1.00  0.00     0.162 HD
BRANCH  17  19
HETATM   19  C13 UNL     1      17.454  -0.910  52.821  1.00  0.00     0.131 A 
HETATM   20  C14 UNL     1      16.101  -1.188  52.222  1.00  0.00     0.004 A 
HETATM   21  C15 UNL     1      15.766  -2.447  52.468  1.00  0.00     0.022 A 
HETATM   22  C16 UNL     1      16.815  -3.118  53.226  1.00  0.00     0.032 A 
HETATM   23 CL1  UNL     1      16.864  -4.770  53.798  1.00  0.00    -0.085 Cl
HETATM   24  C17 UNL     1      17.781  -2.207  53.417  1.00  0.00     0.026 A 
ENDBRANCH  17  19
ENDBRANCH  10  17
BRANCH   1  25
HETATM   25  N1  UNL     1      26.857   0.699  53.046  1.00  0.00    -0.324 N 
HETATM   26  C3  UNL     1      27.532   0.302  54.204  1.00  0.00     0.244 C 
HETATM   27  O1  UNL     1      26.998   0.456  55.310  1.00  0.00    -0.268 OA
HETATM   28  H4  UNL     1      27.412   0.514  52.179  1.00  0.00     0.169 HD
BRANCH  26  29
HETATM   29  C2  UNL     1      28.857  -0.300  54.196  1.00  0.00     0.064 C 
HETATM   30  C1  UNL     1      29.145  -1.303  53.385  1.00  0.00     0.017 C 
ENDBRANCH  26  29
ENDBRANCH   1  25
TORSDOF 4
ENDMDL
MODEL 2
REMARK VINA RESULT:      -8.6      1.666      2.308
REMARK  4 active torsions:
REMARK  status: ('A' for Active; 'I' for Inactive)
REMARK    1  A    between atoms: C2_2  and  C3_3 
REMARK       I    between atoms: C3_3  and  N1_5 
REMARK    2  A    between atoms: N1_5  and  C4_6 
REMARK    3  A    between atoms: C12_15  and  N3_16 
REMARK    4  A    between atoms: N3_16  and  C13_17 
ROOT
HETATM    1  C4  UNL     1      24.592   0.148  53.478  1.00  0.00     0.035 A 
HETATM    2  C5  UNL     1      24.247   1.274  52.768  1.00  0.00     0.032 A 
HETATM    3  C6  UNL     1      22.966   1.584  52.362  1.00  0.00     0.040 A 
HETATM    4  C7  UNL     1      21.935   0.736  52.669  1.00  0.00     0.086 A 
HETATM    5  C8  UNL     1      22.234  -0.407  53.383  1.00  0.00    -0.004 A 
HETATM    6  C9  UNL     1      23.533  -0.673  53.765  1.00  0.00     0.041 A 
HETATM    7  C10 UNL     1      21.366  -1.495  53.855  1.00  0.00     0.161 C 
HETATM    8  N2  UNL     1      19.975  -1.200  53.927  1.00  0.00    -0.379 N 
HETATM    9  C11 UNL     1      19.105  -0.481  53.051  1.00  0.00     0.128 A 
HETATM   10  C12 UNL     1      17.839  -1.006  53.077  1.00  0.00     0.156 A 
HETATM   11  N4  UNL     1      16.936  -0.398  52.293  1.00  0.00    -0.222 NA
HETATM   12  C18 UNL     1      17.297   0.657  51.547  1.00  0.00     0.238 A 
HETATM   13  N5  UNL     1      18.531   1.190  51.504  1.00  0.00    -0.215 NA
HETATM   14  C19 UNL     1      19.477   0.620  52.272  1.00  0.00     0.202 A 
HETATM   15  O2  UNL     1      20.740   1.234  52.170  1.00  0.00    -0.289 OA
HETATM   16  H10 UNL     1      19.428  -1.556  54.767  1.00  0.00     0.160 HD
ENDROOT
BRANCH  10  17
HETATM   17  N3  UNL     1      17.459  -2.134  53.859  1.00  0.00    -0.362 N 
HETATM   18  H11 UNL     1      17.427  -2.327  54.876  1.00  0.00     0.162 HD
BRANCH  17  19
HETATM   19  C13 UNL     1      17.012  -3.307  53.129  1.00  0.00     0.131 A 
HETATM   20  C14 UNL     1      17.025  -4.513  54.029  1.00  0.00     0.004 A 
HETATM   21  C15 UNL     1      15.804  -5.028  54.086  1.00  0.00     0.022 A 
HETATM   22  C16 UNL     1      14.883  -4.253  53.265  1.00  0.00     0.032 A 
HETATM   23 CL1  UNL     1      13.173  -4.510  53.000  1.00  0.00    -0.085 Cl
HETATM   24  C17 UNL     1      15.606  -3.262  52.721  1.00  0.00     0.026 A 
ENDBRANCH  17  19
ENDBRANCH  10  17
BRANCH   1  25
HETATM   25  N1  UNL     1      25.892  -0.206  53.909  1.00  0.00    -0.324 N 
HETATM   26  C3  UNL     1      26.894   0.597  54.464  1.00  0.00     0.244 C 
HETATM   27  O1  UNL     1      26.687   1.805  54.638  1.00  0.00    -0.268 OA
HETATM   28  H4  UNL     1      26.189  -1.204  53.816  1.00  0.00     0.169 HD
BRANCH  26  29
HETATM   29  C2  UNL     1      28.199   0.093  54.864  1.00  0.00     0.064 C 
HETATM   30  C1  UNL     1      28.998  -0.496  53.991  1.00  0.00     0.017 C 
ENDBRANCH  26  29
ENDBRANCH   1  25
TORSDOF 4
ENDMDL
MODEL 3
REMARK VINA RESULT:      -8.6      4.126      8.950
REMARK  4 active torsions:
REMARK  status: ('A' for Active; 'I' for Inactive)
REMARK    1  A    between atoms: C2_2  and  C3_3 
REMARK       I    between atoms: C3_3  and  N1_5 
REMARK    2  A    between atoms: N1_5  and  C4_6 
REMARK    3  A    between atoms: C12_15  and  N3_16 
REMARK    4  A    between atoms: N3_16  and  C13_17 
ROOT
HETATM    1  C4  UNL     1      19.919  -0.805  53.578  1.00  0.00     0.035 A 
HETATM    2  C5  UNL     1      20.728  -1.731  54.193  1.00  0.00     0.032 A 
HETATM    3  C6  UNL     1      22.105  -1.670  54.229  1.00  0.00     0.040 A 
HETATM    4  C7  UNL     1      22.752  -0.628  53.621  1.00  0.00     0.086 A 
HETATM    5  C8  UNL     1      21.980   0.327  52.991  1.00  0.00    -0.004 A 
HETATM    6  C9  UNL     1      20.604   0.221  52.981  1.00  0.00     0.041 A 
HETATM    7  C10 UNL     1      22.369   1.542  52.259  1.00  0.00     0.161 C 
HETATM    8  N2  UNL     1      23.680   2.036  52.516  1.00  0.00    -0.379 N 
HETATM    9  C11 UNL     1      24.933   1.373  52.684  1.00  0.00     0.128 A 
HETATM   10  C12 UNL     1      25.964   2.143  52.210  1.00  0.00     0.156 A 
HETATM   11  N4  UNL     1      27.191   1.616  52.327  1.00  0.00    -0.222 NA
HETATM   12  C18 UNL     1      27.352   0.404  52.881  1.00  0.00     0.238 A 
HETATM   13  N5  UNL     1      26.360  -0.370  53.353  1.00  0.00    -0.215 NA
HETATM   14  C19 UNL     1      25.106   0.110  53.261  1.00  0.00     0.202 A 
HETATM   15  O2  UNL     1      24.125  -0.759  53.776  1.00  0.00    -0.289 OA
HETATM   16  H10 UNL     1      23.812   3.086  52.611  1.00  0.00     0.160 HD
ENDROOT
BRANCH  10  17
HETATM   17  N3  UNL     1      25.792   3.423  51.610  1.00  0.00    -0.362 N 
HETATM   18  H11 UNL     1      25.643   4.378  51.982  1.00  0.00     0.162 HD
BRANCH  17  19
HETATM   19  C13 UNL     1      25.813   3.466  50.159  1.00  0.00     0.131 A 
HETATM   20  C14 UNL     1      24.634   4.247  49.646  1.00  0.00     0.004 A 
HETATM   21  C15 UNL     1      25.069   5.268  48.920  1.00  0.00     0.022 A 
HETATM   22  C16 UNL     1      26.525   5.278  48.871  1.00  0.00     0.032 A 
HETATM   23 CL1  UNL     1      27.584   6.404  48.053  1.00  0.00    -0.085 Cl
HETATM   24  C17 UNL     1      26.933   4.225  49.597  1.00  0.00     0.026 A 
ENDBRANCH  17  19
ENDBRANCH  10  17
BRANCH   1  25
HETATM   25  N1  UNL     1      18.506  -0.834  53.517  1.00  0.00    -0.324 N 
HETATM   26  C3  UNL     1      17.661  -0.687  52.412  1.00  0.00     0.244 C 
HETATM   27  O1  UNL     1      18.146  -0.504  51.288  1.00  0.00    -0.268 OA
HETATM   28  H4  UNL     1      17.976  -0.984  54.405  1.00  0.00     0.169 HD
BRANCH  26  29
HETATM   29  C2  UNL     1      16.209  -0.739  52.497  1.00  0.00     0.064 C 
HETATM   30  C1  UNL     1      15.562  -1.887  52.406  1.00  0.00     0.017 C 
ENDBRANCH  26  29
ENDBRANCH   1  25
TORSDOF 4
ENDMDL
MODEL 4
REMARK VINA RESULT:      -8.3      3.425      4.849
REMARK  4 active torsions:
REMARK  status: ('A' for Active; 'I' for Inactive)
REMARK    1  A    between atoms: C2_2  and  C3_3 
REMARK       I    between atoms: C3_3  and  N1_5 
REMARK    2  A    between atoms: N1_5  and  C4_6 
REMARK    3  A    between atoms: C12_15  and  N3_16 
REMARK    4  A    between atoms: N3_16  and  C13_17 
ROOT
HETATM    1  C4  UNL     1      25.689   3.750  50.840  1.00  0.00     0.035 A 
HETATM    2  C5  UNL     1      26.593   2.824  51.305  1.00  0.00     0.032 A 
HETATM    3  C6  UNL     1      26.268   1.727  52.075  1.00  0.00     0.040 A 
HETATM    4  C7  UNL     1      24.962   1.508  52.423  1.00  0.00     0.086 A 
HETATM    5  C8  UNL     1      24.019   2.412  51.979  1.00  0.00    -0.004 A 
HETATM    6  C9  UNL     1      24.395   3.496  51.211  1.00  0.00     0.041 A 
HETATM    7  C10 UNL     1      22.564   2.456  52.183  1.00  0.00     0.161 C 
HETATM    8  N2  UNL     1      21.950   1.232  52.578  1.00  0.00    -0.379 N 
HETATM    9  C11 UNL     1      22.352   0.216  53.496  1.00  0.00     0.128 A 
HETATM   10  C12 UNL     1      21.263  -0.359  54.100  1.00  0.00     0.156 A 
HETATM   11  N4  UNL     1      21.529  -1.336  54.980  1.00  0.00    -0.222 NA
HETATM   12  C18 UNL     1      22.799  -1.695  55.222  1.00  0.00     0.238 A 
HETATM   13  N5  UNL     1      23.882  -1.147  54.644  1.00  0.00    -0.215 NA
HETATM   14  C19 UNL     1      23.675  -0.162  53.752  1.00  0.00     0.202 A 
HETATM   15  O2  UNL     1      24.858   0.359  53.193  1.00  0.00    -0.289 OA
HETATM   16  H10 UNL     1      21.017   0.974  52.139  1.00  0.00     0.160 HD
ENDROOT
BRANCH  10  17
HETATM   17  N3  UNL     1      19.916   0.030  53.852  1.00  0.00    -0.362 N 
HETATM   18  H11 UNL     1      19.287   0.745  54.258  1.00  0.00     0.162 HD
BRANCH  17  19
HETATM   19  C13 UNL     1      19.210  -0.704  52.817  1.00  0.00     0.131 A 
HETATM   20  C14 UNL     1      18.041  -1.442  53.412  1.00  0.00     0.004 A 
HETATM   21  C15 UNL     1      16.925  -1.041  52.818  1.00  0.00     0.022 A 
HETATM   22  C16 UNL     1      17.216  -0.034  51.806  1.00  0.00     0.032 A 
HETATM   23 CL1  UNL     1      16.104   0.808  50.751  1.00  0.00    -0.085 Cl
HETATM   24  C17 UNL     1      18.546   0.144  51.825  1.00  0.00     0.026 A 
ENDBRANCH  17  19
ENDBRANCH  10  17
BRANCH   1  25
HETATM   25  N1  UNL     1      25.983   4.888  50.052  1.00  0.00    -0.324 N 
HETATM   26  C3  UNL     1      26.959   5.056  49.065  1.00  0.00     0.244 C 
HETATM   27  O1  UNL     1      27.714   4.117  48.780  1.00  0.00    -0.268 OA
HETATM   28  H4  UNL     1      25.412   5.751  50.198  1.00  0.00     0.169 HD
BRANCH  26  29
HETATM   29  C2  UNL     1      27.152   6.296  48.328  1.00  0.00     0.064 C 
HETATM   30  C1  UNL     1      28.344   6.641  47.874  1.00  0.00     0.017 C 
ENDBRANCH  26  29
ENDBRANCH   1  25
TORSDOF 4
ENDMDL
MODEL 5
REMARK VINA RESULT:      -8.2      5.704      7.315
REMARK  4 active torsions:
REMARK  status: ('A' for Active; 'I' for Inactive)
REMARK    1  A    between atoms: C2_2  and  C3_3 
REMARK       I    between atoms: C3_3  and  N1_5 
REMARK    2  A    between atoms: N1_5  and  C4_6 
REMARK    3  A    between atoms: C12_15  and  N3_16 
REMARK    4  A    between atoms: N3_16  and  C13_17 
ROOT
HETATM    1  C4  UNL     1      28.482   6.273  48.167  1.00  0.00     0.035 A 
HETATM    2  C5  UNL     1      27.757   7.398  48.485  1.00  0.00     0.032 A 
HETATM    3  C6  UNL     1      26.564   7.393  49.176  1.00  0.00     0.040 A 
HETATM    4  C7  UNL     1      26.030   6.204  49.596  1.00  0.00     0.086 A 
HETATM    5  C8  UNL     1      26.724   5.048  49.300  1.00  0.00    -0.004 A 
HETATM    6  C9  UNL     1      27.914   5.105  48.604  1.00  0.00     0.041 A 
HETATM    7  C10 UNL     1      26.418   3.643  49.604  1.00  0.00     0.161 C 
HETATM    8  N2  UNL     1      25.480   3.419  50.652  1.00  0.00    -0.379 N 
HETATM    9  C11 UNL     1      24.258   4.074  50.996  1.00  0.00     0.128 A 
HETATM   10  C12 UNL     1      23.364   3.189  51.543  1.00  0.00     0.156 A 
HETATM   11  N4  UNL     1      22.181   3.705  51.910  1.00  0.00    -0.222 NA
HETATM   12  C18 UNL     1      21.934   5.011  51.734  1.00  0.00     0.238 A 
HETATM   13  N5  UNL     1      22.793   5.898  51.202  1.00  0.00    -0.215 NA
HETATM   14  C19 UNL     1      23.996   5.436  50.815  1.00  0.00     0.202 A 
HETATM   15  O2  UNL     1      24.836   6.425  50.267  1.00  0.00    -0.289 OA
HETATM   16  H10 UNL     1      25.672   2.631  51.339  1.00  0.00     0.160 HD
ENDROOT
BRANCH  10  17
HETATM   17  N3  UNL     1      23.622   1.800  51.718  1.00  0.00    -0.362 N 
HETATM   18  H11 UNL     1      23.696   0.995  51.072  1.00  0.00     0.162 HD
BRANCH  17  19
HETATM   19  C13 UNL     1      23.830   1.347  53.082  1.00  0.00     0.131 A 
HETATM   20  C14 UNL     1      23.694  -0.149  53.158  1.00  0.00     0.004 A 
HETATM   21  C15 UNL     1      24.821  -0.667  53.626  1.00  0.00     0.022 A 
HETATM   22  C16 UNL     1      25.792   0.384  53.901  1.00  0.00     0.032 A 
HETATM   23 CL1  UNL     1      27.419   0.233  54.525  1.00  0.00    -0.085 Cl
HETATM   24  C17 UNL     1      25.195   1.541  53.578  1.00  0.00     0.026 A 
ENDBRANCH  17  19
ENDBRANCH  10  17
BRANCH   1  25
HETATM   25  N1  UNL     1      29.706   6.237  47.458  1.00  0.00    -0.324 N 
HETATM   26  C3  UNL     1      30.977   5.857  47.899  1.00  0.00     0.244 C 
HETATM   27  O1  UNL     1      31.136   5.482  49.068  1.00  0.00    -0.268 OA
HETATM   28  H4  UNL     1      29.704   6.530  46.454  1.00  0.00     0.169 HD
BRANCH  26  29
HETATM   29  C2  UNL     1      32.160   5.871  47.050  1.00  0.00     0.064 C 
HETATM   30  C1  UNL     1      32.625   4.757  46.512  1.00  0.00     0.017 C 
ENDBRANCH  26  29
ENDBRANCH   1  25
TORSDOF 4
ENDMDL
MODEL 6
REMARK VINA RESULT:      -8.2      4.306      6.373
REMARK  4 active torsions:
REMARK  status: ('A' for Active; 'I' for Inactive)
REMARK    1  A    between atoms: C2_2  and  C3_3 
REMARK       I    between atoms: C3_3  and  N1_5 
REMARK    2  A    between atoms: N1_5  and  C4_6 
REMARK    3  A    between atoms: C12_15  and  N3_16 
REMARK    4  A    between atoms: N3_16  and  C13_17 
ROOT
HETATM    1  C4  UNL     1      25.757   0.055  53.068  1.00  0.00     0.035 A 
HETATM    2  C5  UNL     1      24.665  -0.633  53.546  1.00  0.00     0.032 A 
HETATM    3  C6  UNL     1      23.356  -0.224  53.404  1.00  0.00     0.040 A 
HETATM    4  C7  UNL     1      23.079   0.944  52.746  1.00  0.00     0.086 A 
HETATM    5  C8  UNL     1      24.143   1.668  52.248  1.00  0.00    -0.004 A 
HETATM    6  C9  UNL     1      25.437   1.218  52.416  1.00  0.00     0.041 A 
HETATM    7  C10 UNL     1      24.175   2.940  51.511  1.00  0.00     0.161 C 
HETATM    8  N2  UNL     1      22.956   3.333  50.888  1.00  0.00    -0.379 N 
HETATM    9  C11 UNL     1      21.597   3.272  51.325  1.00  0.00     0.128 A 
HETATM   10  C12 UNL     1      20.873   4.322  50.822  1.00  0.00     0.156 A 
HETATM   11  N4  UNL     1      19.577   4.357  51.167  1.00  0.00    -0.222 NA
HETATM   12  C18 UNL     1      19.065   3.402  51.957  1.00  0.00     0.238 A 
HETATM   13  N5  UNL     1      19.754   2.364  52.463  1.00  0.00    -0.215 NA
HETATM   14  C19 UNL     1      21.060   2.278  52.149  1.00  0.00     0.202 A 
HETATM   15  O2  UNL     1      21.710   1.165  52.717  1.00  0.00    -0.289 OA
HETATM   16  H10 UNL     1      23.003   3.756  49.914  1.00  0.00     0.160 HD
ENDROOT
BRANCH  10  17
HETATM   17  N3  UNL     1      21.418   5.344  49.994  1.00  0.00    -0.362 N 
HETATM   18  H11 UNL     1      21.754   5.374  49.015  1.00  0.00     0.162 HD
BRANCH  17  19
HETATM   19  C13 UNL     1      21.568   6.656  50.598  1.00  0.00     0.131 A 
HETATM   20  C14 UNL     1      23.027   6.989  50.757  1.00  0.00     0.004 A 
HETATM   21  C15 UNL     1      23.294   8.107  50.095  1.00  0.00     0.022 A 
HETATM   22  C16 UNL     1      22.092   8.619  49.450  1.00  0.00     0.032 A 
HETATM   23 CL1  UNL     1      21.906  10.053  48.465  1.00  0.00    -0.085 Cl
HETATM   24  C17 UNL     1      21.106   7.761  49.756  1.00  0.00     0.026 A 
ENDBRANCH  17  19
ENDBRANCH  10  17
BRANCH   1  25
HETATM   25  N1  UNL     1      27.112  -0.329  53.195  1.00  0.00    -0.324 N 
HETATM   26  C3  UNL     1      28.078   0.111  54.106  1.00  0.00     0.244 C 
HETATM   27  O1  UNL     1      27.779   0.958  54.958  1.00  0.00    -0.268 OA
HETATM   28  H4  UNL     1      27.488  -1.043  52.531  1.00  0.00     0.169 HD
BRANCH  26  29
HETATM   29  C2  UNL     1      29.450  -0.375  54.120  1.00  0.00     0.064 C 
HETATM   30  C1  UNL     1      29.793  -1.466  53.458  1.00  0.00     0.017 C 
ENDBRANCH  26  29
ENDBRANCH   1  25
TORSDOF 4
ENDMDL
MODEL 7
REMARK VINA RESULT:      -8.1      5.409      8.549
REMARK  4 active torsions:
REMARK  status: ('A' for Active; 'I' for Inactive)
REMARK    1  A    between atoms: C2_2  and  C3_3 
REMARK       I    between atoms: C3_3  and  N1_5 
REMARK    2  A    between atoms: N1_5  and  C4_6 
REMARK    3  A    between atoms: C12_15  and  N3_16 
REMARK    4  A    between atoms: N3_16  and  C13_17 
ROOT
HETATM    1  C4  UNL     1      26.159   6.381  48.661  1.00  0.00     0.035 A 
HETATM    2  C5  UNL     1      24.989   6.742  49.288  1.00  0.00     0.032 A 
HETATM    3  C6  UNL     1      24.296   5.947  50.175  1.00  0.00     0.040 A 
HETATM    4  C7  UNL     1      24.774   4.700  50.482  1.00  0.00     0.086 A 
HETATM    5  C8  UNL     1      25.946   4.295  49.877  1.00  0.00    -0.004 A 
HETATM    6  C9  UNL     1      26.603   5.128  48.994  1.00  0.00     0.041 A 
HETATM    7  C10 UNL     1      26.700   3.038  49.995  1.00  0.00     0.161 C 
HETATM    8  N2  UNL     1      26.420   2.246  51.145  1.00  0.00    -0.379 N 
HETATM    9  C11 UNL     1      25.197   1.927  51.810  1.00  0.00     0.128 A 
HETATM   10  C12 UNL     1      25.249   0.670  52.356  1.00  0.00     0.156 A 
HETATM   11  N4  UNL     1      24.150   0.271  53.014  1.00  0.00    -0.222 NA
HETATM   12  C18 UNL     1      23.089   1.087  53.105  1.00  0.00     0.238 A 
HETATM   13  N5  UNL     1      23.014   2.322  52.579  1.00  0.00    -0.215 NA
HETATM   14  C19 UNL     1      24.089   2.774  51.908  1.00  0.00     0.202 A 
HETATM   15  O2  UNL     1      23.930   4.073  51.388  1.00  0.00    -0.289 OA
HETATM   16  H10 UNL     1      27.235   1.780  51.645  1.00  0.00     0.160 HD
ENDROOT
BRANCH  10  17
HETATM   17  N3  UNL     1      26.370  -0.201  52.249  1.00  0.00    -0.362 N 
HETATM   18  H11 UNL     1      26.798  -0.731  51.469  1.00  0.00     0.162 HD
BRANCH  17  19
HETATM   19  C13 UNL     1      27.119  -0.447  53.469  1.00  0.00     0.131 A 
HETATM   20  C14 UNL     1      28.418  -1.136  53.150  1.00  0.00     0.004 A 
HETATM   21  C15 UNL     1      29.425  -0.393  53.590  1.00  0.00     0.022 A 
HETATM   22  C16 UNL     1      28.926   0.821  54.224  1.00  0.00     0.032 A 
HETATM   23 CL1  UNL     1      29.835   2.121  54.961  1.00  0.00    -0.085 Cl
HETATM   24  C17 UNL     1      27.588   0.766  54.141  1.00  0.00     0.026 A 
ENDBRANCH  17  19
ENDBRANCH  10  17
BRANCH   1  25
HETATM   25  N1  UNL     1      26.897   7.167  47.744  1.00  0.00    -0.324 N 
HETATM   26  C3  UNL     1      27.853   8.157  47.991  1.00  0.00     0.244 C 
HETATM   27  O1  UNL     1      28.154   8.444  49.157  1.00  0.00    -0.268 OA
HETATM   28  H4  UNL     1      26.733   7.018  46.722  1.00  0.00     0.169 HD
BRANCH  26  29
HETATM   29  C2  UNL     1      28.538   8.893  46.939  1.00  0.00     0.064 C 
HETATM   30  C1  UNL     1      29.396   9.855  47.228  1.00  0.00     0.017 C 
ENDBRANCH  26  29
ENDBRANCH   1  25
TORSDOF 4
ENDMDL
MODEL 8
REMARK VINA RESULT:      -8.0      4.417      6.848
REMARK  4 active torsions:
REMARK  status: ('A' for Active; 'I' for Inactive)
REMARK    1  A    between atoms: C2_2  and  C3_3 
REMARK       I    between atoms: C3_3  and  N1_5 
REMARK    2  A    between atoms: N1_5  and  C4_6 
REMARK    3  A    between atoms: C12_15  and  N3_16 
REMARK    4  A    between atoms: N3_16  and  C13_17 
ROOT
HETATM    1  C4  UNL     1      25.674   6.006  49.145  1.00  0.00     0.035 A 
HETATM    2  C5  UNL     1      26.809   5.288  48.846  1.00  0.00     0.032 A 
HETATM    3  C6  UNL     1      27.108   4.044  49.358  1.00  0.00     0.040 A 
HETATM    4  C7  UNL     1      26.239   3.443  50.229  1.00  0.00     0.086 A 
HETATM    5  C8  UNL     1      25.085   4.126  50.558  1.00  0.00    -0.004 A 
HETATM    6  C9  UNL     1      24.831   5.371  50.020  1.00  0.00     0.041 A 
HETATM    7  C10 UNL     1      23.976   3.757  51.450  1.00  0.00     0.161 C 
HETATM    8  N2  UNL     1      23.853   2.372  51.757  1.00  0.00    -0.379 N 
HETATM    9  C11 UNL     1      24.826   1.371  52.057  1.00  0.00     0.128 A 
HETATM   10  C12 UNL     1      24.324   0.449  52.941  1.00  0.00     0.156 A 
HETATM   11  N4  UNL     1      25.157  -0.544  53.286  1.00  0.00    -0.222 NA
HETATM   12  C18 UNL     1      26.396  -0.591  52.773  1.00  0.00     0.238 A 
HETATM   13  N5  UNL     1      26.910   0.299  51.907  1.00  0.00    -0.215 NA
HETATM   14  C19 UNL     1      26.118   1.317  51.525  1.00  0.00     0.202 A 
HETATM   15  O2  UNL     1      26.729   2.205  50.618  1.00  0.00    -0.289 OA
HETATM   16  H10 UNL     1      22.879   1.947  51.780  1.00  0.00     0.160 HD
ENDROOT
BRANCH  10  17
HETATM   17  N3  UNL     1      23.014   0.506  53.495  1.00  0.00    -0.362 N 
HETATM   18  H11 UNL     1      22.558   1.108  54.203  1.00  0.00     0.162 HD
BRANCH  17  19
HETATM   19  C13 UNL     1      22.061  -0.474  53.006  1.00  0.00     0.131 A 
HETATM   20  C14 UNL     1      20.999  -0.726  54.042  1.00  0.00     0.004 A 
HETATM   21  C15 UNL     1      19.811  -0.442  53.525  1.00  0.00     0.022 A 
HETATM   22  C16 UNL     1      19.946   0.010  52.147  1.00  0.00     0.032 A 
HETATM   23 CL1  UNL     1      18.693   0.502  51.030  1.00  0.00    -0.085 Cl
HETATM   24  C17 UNL     1      21.258  -0.016  51.870  1.00  0.00     0.026 A 
ENDBRANCH  17  19
ENDBRANCH  10  17
BRANCH   1  25
HETATM   25  N1  UNL     1      25.333   7.284  48.645  1.00  0.00    -0.324 N 
HETATM   26  C3  UNL     1      25.791   8.545  49.042  1.00  0.00     0.244 C 
HETATM   27  O1  UNL     1      26.618   8.638  49.958  1.00  0.00    -0.268 OA
HETATM   28  H4  UNL     1      24.641   7.341  47.863  1.00  0.00     0.169 HD
BRANCH  26  29
HETATM   29  C2  UNL     1      25.348   9.790  48.432  1.00  0.00     0.064 C 
HETATM   30  C1  UNL     1      26.108  10.870  48.460  1.00  0.00     0.017 C 
ENDBRANCH  26  29
ENDBRANCH   1  25
TORSDOF 4
ENDMDL
MODEL 9
REMARK VINA RESULT:      -8.0      1.933      2.239
REMARK  4 active torsions:
REMARK  status: ('A' for Active; 'I' for Inactive)
REMARK    1  A    between atoms: C2_2  and  C3_3 
REMARK       I    between atoms: C3_3  and  N1_5 
REMARK    2  A    between atoms: N1_5  and  C4_6 
REMARK    3  A    between atoms: C12_15  and  N3_16 
REMARK    4  A    between atoms: N3_16  and  C13_17 
ROOT
HETATM    1  C4  UNL     1      26.410   1.471  51.908  1.00  0.00     0.035 A 
HETATM    2  C5  UNL     1      26.457   2.451  50.944  1.00  0.00     0.032 A 
HETATM    3  C6  UNL     1      25.351   3.019  50.348  1.00  0.00     0.040 A 
HETATM    4  C7  UNL     1      24.098   2.608  50.716  1.00  0.00     0.086 A 
HETATM    5  C8  UNL     1      24.001   1.626  51.681  1.00  0.00    -0.004 A 
HETATM    6  C9  UNL     1      25.138   1.087  52.247  1.00  0.00     0.041 A 
HETATM    7  C10 UNL     1      22.822   0.982  52.277  1.00  0.00     0.161 C 
HETATM    8  N2  UNL     1      21.588   1.680  52.136  1.00  0.00    -0.379 N 
HETATM    9  C11 UNL     1      21.018   2.399  51.042  1.00  0.00     0.128 A 
HETATM   10  C12 UNL     1      19.651   2.290  51.043  1.00  0.00     0.156 A 
HETATM   11  N4  UNL     1      19.011   2.936  50.057  1.00  0.00    -0.222 NA
HETATM   12  C18 UNL     1      19.709   3.635  49.148  1.00  0.00     0.238 A 
HETATM   13  N5  UNL     1      21.047   3.757  49.126  1.00  0.00    -0.215 NA
HETATM   14  C19 UNL     1      21.741   3.129  50.092  1.00  0.00     0.202 A 
HETATM   15  O2  UNL     1      23.135   3.304  49.999  1.00  0.00    -0.289 OA
HETATM   16  H10 UNL     1      20.928   1.707  52.969  1.00  0.00     0.160 HD
ENDROOT
BRANCH  10  17
HETATM   17  N3  UNL     1      18.911   1.538  51.999  1.00  0.00    -0.362 N 
HETATM   18  H11 UNL     1      18.462   1.767  52.904  1.00  0.00     0.162 HD
BRANCH  17  19
HETATM   19  C13 UNL     1      18.713   0.130  51.703  1.00  0.00     0.131 A 
HETATM   20  C14 UNL     1      18.956  -0.698  52.935  1.00  0.00     0.004 A 
HETATM   21  C15 UNL     1      17.861  -1.390  53.219  1.00  0.00     0.022 A 
HETATM   22  C16 UNL     1      16.812  -1.110  52.247  1.00  0.00     0.032 A 
HETATM   23 CL1  UNL     1      15.190  -1.759  52.172  1.00  0.00    -0.085 Cl
HETATM   24  C17 UNL     1      17.329  -0.226  51.380  1.00  0.00     0.026 A 
ENDBRANCH  17  19
ENDBRANCH  10  17
BRANCH   1  25
HETATM   25  N1  UNL     1      27.519   0.861  52.540  1.00  0.00    -0.324 N 
HETATM   26  C3  UNL     1      28.373   1.372  53.523  1.00  0.00     0.244 C 
HETATM   27  O1  UNL     1      28.195   2.517  53.957  1.00  0.00    -0.268 OA
HETATM   28  H4  UNL     1      27.773  -0.114  52.260  1.00  0.00     0.169 HD
BRANCH  26  29
HETATM   29  C2  UNL     1      29.487   0.625  54.086  1.00  0.00     0.064 C 
HETATM   30  C1  UNL     1      29.864  -0.531  53.568  1.00  0.00     0.017 C 
ENDBRANCH  26  29
ENDBRANCH   1  25
TORSDOF 4
ENDMDL
