MODEL 1
REMARK VINA RESULT:      -7.8      0.000      0.000
REMARK  7 active torsions:
REMARK  status: ('A' for Active; 'I' for Inactive)
REMARK    1  A    between atoms: C2_2  and  C3_3 
REMARK    2  A    between atoms: C8_11  and  N3_12 
REMARK    3  A    between atoms: N3_12  and  C9_13 
REMARK    4  A    between atoms: C16_22  and  O2_23 
REMARK    5  A    between atoms: O2_23  and  C17_24 
REMARK    6  A    between atoms: C17_24  and  C18_25 
REMARK    7  A    between atoms: C18_25  and  O3_26 
ROOT
HETATM    1  C3  UNL     1      21.511   0.648  52.787  1.00  0.00     0.178 C 
HETATM    2  O1  UNL     1      22.404   1.531  53.271  1.00  0.00    -0.375 OA
HETATM    3  C4  UNL     1      23.744   1.328  53.102  1.00  0.00     0.213 C 
HETATM    4  C5  UNL     1      24.134   2.006  51.856  1.00  0.00     0.040 A 
HETATM    5  C6  UNL     1      23.337   2.097  50.707  1.00  0.00     0.072 A 
HETATM    6  N1  UNL     1      23.746   2.755  49.608  1.00  0.00    -0.241 NA
HETATM    7  C7  UNL     1      24.953   3.343  49.609  1.00  0.00     0.235 A 
HETATM    8  N2  UNL     1      25.701   3.245  50.714  1.00  0.00    -0.224 NA
HETATM    9  C8  UNL     1      25.349   2.607  51.830  1.00  0.00     0.140 A 
HETATM   10  C15 UNL     1      21.989   1.528  50.484  1.00  0.00     0.067 C 
HETATM   11  C16 UNL     1      21.164   0.897  51.341  1.00  0.00     0.077 C 
ENDROOT
BRANCH   9  12
HETATM   12  N3  UNL     1      26.226   2.519  52.933  1.00  0.00    -0.340 N 
HETATM   13  H10 UNL     1      26.291   3.144  53.761  1.00  0.00     0.167 HD
BRANCH  12  14
HETATM   14  C9  UNL     1      27.212   1.520  53.151  1.00  0.00     0.035 A 
HETATM   15  C10 UNL     1      28.452   1.876  53.660  1.00  0.00     0.032 A 
HETATM   16  C11 UNL     1      29.473   0.982  53.896  1.00  0.00     0.046 A 
HETATM   17  C12 UNL     1      29.285  -0.355  53.620  1.00  0.00     0.138 A 
HETATM   18  F1  UNL     1      30.206  -1.325  53.810  1.00  0.00    -0.204 F 
HETATM   19  C13 UNL     1      28.074  -0.770  53.113  1.00  0.00     0.074 A 
HETATM   20 CL1  UNL     1      27.719  -2.450  52.723  1.00  0.00    -0.081 Cl
HETATM   21  C14 UNL     1      27.103   0.181  52.904  1.00  0.00     0.056 A 
ENDBRANCH  12  14
ENDBRANCH   9  12
BRANCH   1  22
HETATM   22  C2  UNL     1      21.719  -0.800  53.090  1.00  0.00     0.034 C 
HETATM   23  C1  UNL     1      21.404  -1.152  54.555  1.00  0.00     0.008 C 
ENDBRANCH   1  22
BRANCH  11  24
HETATM   24  O2  UNL     1      20.008   0.541  50.692  1.00  0.00    -0.351 OA
BRANCH  24  25
HETATM   25  C17 UNL     1      18.811   1.295  50.706  1.00  0.00     0.201 C 
BRANCH  25  26
HETATM   26  C18 UNL     1      17.782   0.538  51.503  1.00  0.00     0.193 C 
BRANCH  26  27
HETATM   27  O3  UNL     1      18.138  -0.753  51.818  1.00  0.00    -0.394 OA
HETATM   28  C19 UNL     1      17.935  -1.127  53.123  1.00  0.00     0.201 C 
ENDBRANCH  26  27
ENDBRANCH  25  26
ENDBRANCH  24  25
ENDBRANCH  11  24
TORSDOF 7
ENDMDL
MODEL 2
REMARK VINA RESULT:      -7.7      2.204      3.664
REMARK  7 active torsions:
REMARK  status: ('A' for Active; 'I' for Inactive)
REMARK    1  A    between atoms: C2_2  and  C3_3 
REMARK    2  A    between atoms: C8_11  and  N3_12 
REMARK    3  A    between atoms: N3_12  and  C9_13 
REMARK    4  A    between atoms: C16_22  and  O2_23 
REMARK    5  A    between atoms: O2_23  and  C17_24 
REMARK    6  A    between atoms: C17_24  and  C18_25 
REMARK    7  A    between atoms: C18_25  and  O3_26 
ROOT
HETATM    1  C3  UNL     1      19.790   0.398  51.516  1.00  0.00     0.178 C 
HETATM    2  O1  UNL     1      21.071   0.061  51.277  1.00  0.00    -0.375 OA
HETATM    3  C4  UNL     1      22.090   0.708  51.915  1.00  0.00     0.213 C 
HETATM    4  C5  UNL     1      22.389  -0.051  53.140  1.00  0.00     0.040 A 
HETATM    5  C6  UNL     1      21.437  -0.709  53.930  1.00  0.00     0.072 A 
HETATM    6  N1  UNL     1      21.782  -1.407  55.026  1.00  0.00    -0.241 NA
HETATM    7  C7  UNL     1      23.077  -1.478  55.375  1.00  0.00     0.235 A 
HETATM    8  N2  UNL     1      23.972  -0.843  54.611  1.00  0.00    -0.224 NA
HETATM    9  C8  UNL     1      23.689  -0.136  53.516  1.00  0.00     0.140 A 
HETATM   10  C15 UNL     1      19.971  -0.762  53.736  1.00  0.00     0.067 C 
HETATM   11  C16 UNL     1      19.215  -0.303  52.721  1.00  0.00     0.077 C 
ENDROOT
BRANCH   9  12
HETATM   12  N3  UNL     1      24.699   0.537  52.796  1.00  0.00    -0.340 N 
HETATM   13  H10 UNL     1      24.598   1.190  51.993  1.00  0.00     0.167 HD
BRANCH  12  14
HETATM   14  C9  UNL     1      26.096   0.474  53.041  1.00  0.00     0.035 A 
HETATM   15  C10 UNL     1      26.796   1.630  53.350  1.00  0.00     0.032 A 
HETATM   16  C11 UNL     1      28.151   1.670  53.593  1.00  0.00     0.046 A 
HETATM   17  C12 UNL     1      28.888   0.507  53.534  1.00  0.00     0.138 A 
HETATM   18  F1  UNL     1      30.218   0.418  53.754  1.00  0.00    -0.204 F 
HETATM   19  C13 UNL     1      28.249  -0.675  53.232  1.00  0.00     0.074 A 
HETATM   20 CL1  UNL     1      29.086  -2.221  53.129  1.00  0.00    -0.081 Cl
HETATM   21  C14 UNL     1      26.894  -0.635  53.002  1.00  0.00     0.056 A 
ENDBRANCH  12  14
ENDBRANCH   9  12
BRANCH   1  22
HETATM   22  C2  UNL     1      19.420   1.844  51.459  1.00  0.00     0.034 C 
HETATM   23  C1  UNL     1      18.767   2.238  50.122  1.00  0.00     0.008 C 
ENDBRANCH   1  22
BRANCH  11  24
HETATM   24  O2  UNL     1      17.892  -0.577  52.969  1.00  0.00    -0.351 OA
BRANCH  24  25
HETATM   25  C17 UNL     1      16.942  -0.924  51.981  1.00  0.00     0.201 C 
BRANCH  25  26
HETATM   26  C18 UNL     1      15.819   0.078  52.029  1.00  0.00     0.193 C 
BRANCH  26  27
HETATM   27  O3  UNL     1      15.281   0.275  53.280  1.00  0.00    -0.394 OA
HETATM   28  C19 UNL     1      13.916   0.418  53.327  1.00  0.00     0.201 C 
ENDBRANCH  26  27
ENDBRANCH  25  26
ENDBRANCH  24  25
ENDBRANCH  11  24
TORSDOF 7
ENDMDL
MODEL 3
REMARK VINA RESULT:      -7.4      4.409      8.431
REMARK  7 active torsions:
REMARK  status: ('A' for Active; 'I' for Inactive)
REMARK    1  A    between atoms: C2_2  and  C3_3 
REMARK    2  A    between atoms: C8_11  and  N3_12 
REMARK    3  A    between atoms: N3_12  and  C9_13 
REMARK    4  A    between atoms: C16_22  and  O2_23 
REMARK    5  A    between atoms: O2_23  and  C17_24 
REMARK    6  A    between atoms: C17_24  and  C18_25 
REMARK    7  A    between atoms: C18_25  and  O3_26 
ROOT
HETATM    1  C3  UNL     1      25.214   2.710  52.075  1.00  0.00     0.178 C 
HETATM    2  O1  UNL     1      24.032   2.923  52.683  1.00  0.00    -0.375 OA
HETATM    3  C4  UNL     1      22.916   2.241  52.292  1.00  0.00     0.213 C 
HETATM    4  C5  UNL     1      22.833   1.029  53.123  1.00  0.00     0.040 A 
HETATM    5  C6  UNL     1      23.932   0.284  53.570  1.00  0.00     0.072 A 
HETATM    6  N1  UNL     1      23.786  -0.802  54.349  1.00  0.00    -0.241 NA
HETATM    7  C7  UNL     1      22.551  -1.184  54.713  1.00  0.00     0.235 A 
HETATM    8  N2  UNL     1      21.513  -0.462  54.277  1.00  0.00    -0.224 NA
HETATM    9  C8  UNL     1      21.597   0.620  53.503  1.00  0.00     0.140 A 
HETATM   10  C15 UNL     1      25.367   0.518  53.291  1.00  0.00     0.067 C 
HETATM   11  C16 UNL     1      25.969   1.541  52.656  1.00  0.00     0.077 C 
ENDROOT
BRANCH   9  12
HETATM   12  N3  UNL     1      20.441   1.294  53.055  1.00  0.00    -0.340 N 
HETATM   13  H10 UNL     1      20.159   2.280  53.223  1.00  0.00     0.167 HD
BRANCH  12  14
HETATM   14  C9  UNL     1      19.407   0.751  52.246  1.00  0.00     0.035 A 
HETATM   15  C10 UNL     1      19.236   1.207  50.948  1.00  0.00     0.032 A 
HETATM   16  C11 UNL     1      18.258   0.750  50.092  1.00  0.00     0.046 A 
HETATM   17  C12 UNL     1      17.378  -0.220  50.521  1.00  0.00     0.138 A 
HETATM   18  F1  UNL     1      16.381  -0.748  49.777  1.00  0.00    -0.204 F 
HETATM   19  C13 UNL     1      17.497  -0.713  51.801  1.00  0.00     0.074 A 
HETATM   20 CL1  UNL     1      16.432  -1.952  52.457  1.00  0.00    -0.081 Cl
HETATM   21  C14 UNL     1      18.498  -0.207  52.596  1.00  0.00     0.056 A 
ENDBRANCH  12  14
ENDBRANCH   9  12
BRANCH   1  22
HETATM   22  C2  UNL     1      25.253   2.738  50.582  1.00  0.00     0.034 C 
HETATM   23  C1  UNL     1      26.457   3.523  50.033  1.00  0.00     0.008 C 
ENDBRANCH   1  22
BRANCH  11  24
HETATM   24  O2  UNL     1      27.327   1.336  52.634  1.00  0.00    -0.351 OA
BRANCH  24  25
HETATM   25  C17 UNL     1      28.264   2.071  53.396  1.00  0.00     0.201 C 
BRANCH  25  26
HETATM   26  C18 UNL     1      29.116   1.099  54.167  1.00  0.00     0.193 C 
BRANCH  26  27
HETATM   27  O3  UNL     1      29.901   0.281  53.387  1.00  0.00    -0.394 OA
HETATM   28  C19 UNL     1      29.857  -1.057  53.690  1.00  0.00     0.201 C 
ENDBRANCH  26  27
ENDBRANCH  25  26
ENDBRANCH  24  25
ENDBRANCH  11  24
TORSDOF 7
ENDMDL
MODEL 4
REMARK VINA RESULT:      -7.3      4.587      8.589
REMARK  7 active torsions:
REMARK  status: ('A' for Active; 'I' for Inactive)
REMARK    1  A    between atoms: C2_2  and  C3_3 
REMARK    2  A    between atoms: C8_11  and  N3_12 
REMARK    3  A    between atoms: N3_12  and  C9_13 
REMARK    4  A    between atoms: C16_22  and  O2_23 
REMARK    5  A    between atoms: O2_23  and  C17_24 
REMARK    6  A    between atoms: C17_24  and  C18_25 
REMARK    7  A    between atoms: C18_25  and  O3_26 
ROOT
HETATM    1  C3  UNL     1      25.677   2.145  52.591  1.00  0.00     0.178 C 
HETATM    2  O1  UNL     1      24.345   2.285  52.459  1.00  0.00    -0.375 OA
HETATM    3  C4  UNL     1      23.614   1.360  51.770  1.00  0.00     0.213 C 
HETATM    4  C5  UNL     1      23.153   0.357  52.743  1.00  0.00     0.040 A 
HETATM    5  C6  UNL     1      23.886  -0.084  53.852  1.00  0.00     0.072 A 
HETATM    6  N1  UNL     1      23.394  -0.988  54.717  1.00  0.00    -0.241 NA
HETATM    7  C7  UNL     1      22.162  -1.482  54.515  1.00  0.00     0.235 A 
HETATM    8  N2  UNL     1      21.475  -1.050  53.452  1.00  0.00    -0.224 NA
HETATM    9  C8  UNL     1      21.912  -0.160  52.561  1.00  0.00     0.140 A 
HETATM   10  C15 UNL     1      25.250   0.318  54.261  1.00  0.00     0.067 C 
HETATM   11  C16 UNL     1      26.061   1.267  53.756  1.00  0.00     0.077 C 
ENDROOT
BRANCH   9  12
HETATM   12  N3  UNL     1      21.132   0.203  51.443  1.00  0.00    -0.340 N 
HETATM   13  H10 UNL     1      21.388   0.176  50.436  1.00  0.00     0.167 HD
BRANCH  12  14
HETATM   14  C9  UNL     1      19.792   0.676  51.465  1.00  0.00     0.035 A 
HETATM   15  C10 UNL     1      18.744  -0.227  51.561  1.00  0.00     0.032 A 
HETATM   16  C11 UNL     1      17.415   0.133  51.579  1.00  0.00     0.046 A 
HETATM   17  C12 UNL     1      17.070   1.465  51.499  1.00  0.00     0.138 A 
HETATM   18  F1  UNL     1      15.806   1.942  51.510  1.00  0.00    -0.204 F 
HETATM   19  C13 UNL     1      18.067   2.410  51.404  1.00  0.00     0.074 A 
HETATM   20 CL1  UNL     1      17.747   4.139  51.297  1.00  0.00    -0.081 Cl
HETATM   21  C14 UNL     1      19.370   1.973  51.391  1.00  0.00     0.056 A 
ENDBRANCH  12  14
ENDBRANCH   9  12
BRANCH   1  22
HETATM   22  C2  UNL     1      26.480   1.859  51.364  1.00  0.00     0.034 C 
HETATM   23  C1  UNL     1      26.520   3.050  50.390  1.00  0.00     0.008 C 
ENDBRANCH   1  22
BRANCH  11  24
HETATM   24  O2  UNL     1      27.241   1.289  54.458  1.00  0.00    -0.351 OA
BRANCH  24  25
HETATM   25  C17 UNL     1      28.122   0.191  54.588  1.00  0.00     0.201 C 
BRANCH  25  26
HETATM   26  C18 UNL     1      29.391   0.509  53.844  1.00  0.00     0.193 C 
BRANCH  26  27
HETATM   27  O3  UNL     1      30.070  -0.592  53.373  1.00  0.00    -0.394 OA
HETATM   28  C19 UNL     1      29.361  -1.768  53.353  1.00  0.00     0.201 C 
ENDBRANCH  26  27
ENDBRANCH  25  26
ENDBRANCH  24  25
ENDBRANCH  11  24
TORSDOF 7
ENDMDL
MODEL 5
REMARK VINA RESULT:      -7.2      4.217      7.652
REMARK  7 active torsions:
REMARK  status: ('A' for Active; 'I' for Inactive)
REMARK    1  A    between atoms: C2_2  and  C3_3 
REMARK    2  A    between atoms: C8_11  and  N3_12 
REMARK    3  A    between atoms: N3_12  and  C9_13 
REMARK    4  A    between atoms: C16_22  and  O2_23 
REMARK    5  A    between atoms: O2_23  and  C17_24 
REMARK    6  A    between atoms: C17_24  and  C18_25 
REMARK    7  A    between atoms: C18_25  and  O3_26 
ROOT
HETATM    1  C3  UNL     1      26.315   1.889  53.670  1.00  0.00     0.178 C 
HETATM    2  O1  UNL     1      25.107   2.482  53.657  1.00  0.00    -0.375 OA
HETATM    3  C4  UNL     1      24.252   2.293  52.608  1.00  0.00     0.213 C 
HETATM    4  C5  UNL     1      23.398   1.143  52.944  1.00  0.00     0.040 A 
HETATM    5  C6  UNL     1      23.817   0.012  53.657  1.00  0.00     0.072 A 
HETATM    6  N1  UNL     1      22.977  -0.995  53.952  1.00  0.00    -0.241 NA
HETATM    7  C7  UNL     1      21.697  -0.916  53.553  1.00  0.00     0.235 A 
HETATM    8  N2  UNL     1      21.314   0.170  52.873  1.00  0.00    -0.224 NA
HETATM    9  C8  UNL     1      22.102   1.196  52.551  1.00  0.00     0.140 A 
HETATM   10  C15 UNL     1      25.168  -0.284  54.185  1.00  0.00     0.067 C 
HETATM   11  C16 UNL     1      26.273   0.484  54.216  1.00  0.00     0.077 C 
ENDROOT
BRANCH   9  12
HETATM   12  N3  UNL     1      21.618   2.282  51.791  1.00  0.00    -0.340 N 
HETATM   13  H10 UNL     1      21.079   3.111  52.113  1.00  0.00     0.167 HD
BRANCH  12  14
HETATM   14  C9  UNL     1      21.791   2.479  50.395  1.00  0.00     0.035 A 
HETATM   15  C10 UNL     1      21.597   1.421  49.520  1.00  0.00     0.032 A 
HETATM   16  C11 UNL     1      21.750   1.512  48.154  1.00  0.00     0.046 A 
HETATM   17  C12 UNL     1      22.117   2.715  47.589  1.00  0.00     0.138 A 
HETATM   18  F1  UNL     1      22.296   2.929  46.267  1.00  0.00    -0.204 F 
HETATM   19  C13 UNL     1      22.323   3.803  48.406  1.00  0.00     0.074 A 
HETATM   20 CL1  UNL     1      22.793   5.387  47.798  1.00  0.00    -0.081 Cl
HETATM   21  C14 UNL     1      22.151   3.634  49.760  1.00  0.00     0.056 A 
ENDBRANCH  12  14
ENDBRANCH   9  12
BRANCH   1  22
HETATM   22  C2  UNL     1      27.172   2.009  52.452  1.00  0.00     0.034 C 
HETATM   23  C1  UNL     1      26.837   0.951  51.384  1.00  0.00     0.008 C 
ENDBRANCH   1  22
BRANCH  11  24
HETATM   24  O2  UNL     1      27.301  -0.208  54.806  1.00  0.00    -0.351 OA
BRANCH  24  25
HETATM   25  C17 UNL     1      28.612   0.292  54.984  1.00  0.00     0.201 C 
BRANCH  25  26
HETATM   26  C18 UNL     1      29.471  -0.215  53.857  1.00  0.00     0.193 C 
BRANCH  26  27
HETATM   27  O3  UNL     1      28.890  -1.201  53.093  1.00  0.00    -0.394 OA
HETATM   28  C19 UNL     1      29.297  -2.484  53.362  1.00  0.00     0.201 C 
ENDBRANCH  26  27
ENDBRANCH  25  26
ENDBRANCH  24  25
ENDBRANCH  11  24
TORSDOF 7
ENDMDL
MODEL 6
REMARK VINA RESULT:      -6.9      4.280      5.862
REMARK  7 active torsions:
REMARK  status: ('A' for Active; 'I' for Inactive)
REMARK    1  A    between atoms: C2_2  and  C3_3 
REMARK    2  A    between atoms: C8_11  and  N3_12 
REMARK    3  A    between atoms: N3_12  and  C9_13 
REMARK    4  A    between atoms: C16_22  and  O2_23 
REMARK    5  A    between atoms: O2_23  and  C17_24 
REMARK    6  A    between atoms: C17_24  and  C18_25 
REMARK    7  A    between atoms: C18_25  and  O3_26 
ROOT
HETATM    1  C3  UNL     1      24.239   1.119  53.053  1.00  0.00     0.178 C 
HETATM    2  O1  UNL     1      24.735   2.345  52.805  1.00  0.00    -0.375 OA
HETATM    3  C4  UNL     1      25.479   2.580  51.684  1.00  0.00     0.213 C 
HETATM    4  C5  UNL     1      24.552   3.024  50.631  1.00  0.00     0.040 A 
HETATM    5  C6  UNL     1      23.244   2.551  50.460  1.00  0.00     0.072 A 
HETATM    6  N1  UNL     1      22.439   3.019  49.490  1.00  0.00    -0.241 NA
HETATM    7  C7  UNL     1      22.900   3.967  48.659  1.00  0.00     0.235 A 
HETATM    8  N2  UNL     1      24.151   4.407  48.836  1.00  0.00    -0.224 NA
HETATM    9  C8  UNL     1      24.993   3.980  49.777  1.00  0.00     0.140 A 
HETATM   10  C15 UNL     1      22.538   1.517  51.249  1.00  0.00     0.067 C 
HETATM   11  C16 UNL     1      22.919   0.871  52.367  1.00  0.00     0.077 C 
ENDROOT
BRANCH   9  12
HETATM   12  N3  UNL     1      26.313   4.473  49.859  1.00  0.00    -0.340 N 
HETATM   13  H10 UNL     1      27.127   4.067  50.361  1.00  0.00     0.167 HD
BRANCH  12  14
HETATM   14  C9  UNL     1      26.817   5.647  49.238  1.00  0.00     0.035 A 
HETATM   15  C10 UNL     1      27.942   5.572  48.432  1.00  0.00     0.032 A 
HETATM   16  C11 UNL     1      28.509   6.655  47.796  1.00  0.00     0.046 A 
HETATM   17  C12 UNL     1      27.948   7.904  47.950  1.00  0.00     0.138 A 
HETATM   18  F1  UNL     1      28.410   9.038  47.378  1.00  0.00    -0.204 F 
HETATM   19  C13 UNL     1      26.828   8.043  48.738  1.00  0.00     0.074 A 
HETATM   20 CL1  UNL     1      26.025   9.587  49.006  1.00  0.00    -0.081 Cl
HETATM   21  C14 UNL     1      26.320   6.916  49.340  1.00  0.00     0.056 A 
ENDBRANCH  12  14
ENDBRANCH   9  12
BRANCH   1  22
HETATM   22  C2  UNL     1      25.167  -0.048  52.958  1.00  0.00     0.034 C 
HETATM   23  C1  UNL     1      26.161  -0.114  54.131  1.00  0.00     0.008 C 
ENDBRANCH   1  22
BRANCH  11  24
HETATM   24  O2  UNL     1      21.937  -0.009  52.751  1.00  0.00    -0.351 OA
BRANCH  24  25
HETATM   25  C17 UNL     1      21.402  -0.100  54.057  1.00  0.00     0.201 C 
BRANCH  25  26
HETATM   26  C18 UNL     1      21.087  -1.543  54.342  1.00  0.00     0.193 C 
BRANCH  26  27
HETATM   27  O3  UNL     1      22.065  -2.217  55.036  1.00  0.00    -0.394 OA
HETATM   28  C19 UNL     1      23.059  -1.439  55.575  1.00  0.00     0.201 C 
ENDBRANCH  26  27
ENDBRANCH  25  26
ENDBRANCH  24  25
ENDBRANCH  11  24
TORSDOF 7
ENDMDL
MODEL 7
REMARK VINA RESULT:      -6.9      4.700      7.844
REMARK  7 active torsions:
REMARK  status: ('A' for Active; 'I' for Inactive)
REMARK    1  A    between atoms: C2_2  and  C3_3 
REMARK    2  A    between atoms: C8_11  and  N3_12 
REMARK    3  A    between atoms: N3_12  and  C9_13 
REMARK    4  A    between atoms: C16_22  and  O2_23 
REMARK    5  A    between atoms: O2_23  and  C17_24 
REMARK    6  A    between atoms: C17_24  and  C18_25 
REMARK    7  A    between atoms: C18_25  and  O3_26 
ROOT
HETATM    1  C3  UNL     1      26.224   1.407  53.750  1.00  0.00     0.178 C 
HETATM    2  O1  UNL     1      25.264   2.320  53.986  1.00  0.00    -0.375 OA
HETATM    3  C4  UNL     1      24.628   2.944  52.951  1.00  0.00     0.213 C 
HETATM    4  C5  UNL     1      23.432   2.148  52.632  1.00  0.00     0.040 A 
HETATM    5  C6  UNL     1      23.355   0.751  52.700  1.00  0.00     0.072 A 
HETATM    6  N1  UNL     1      22.221   0.087  52.417  1.00  0.00    -0.241 NA
HETATM    7  C7  UNL     1      21.128   0.781  52.060  1.00  0.00     0.235 A 
HETATM    8  N2  UNL     1      21.220   2.114  52.000  1.00  0.00    -0.224 NA
HETATM    9  C8  UNL     1      22.316   2.825  52.267  1.00  0.00     0.140 A 
HETATM   10  C15 UNL     1      24.425  -0.205  53.062  1.00  0.00     0.067 C 
HETATM   11  C16 UNL     1      25.671   0.023  53.518  1.00  0.00     0.077 C 
ENDROOT
BRANCH   9  12
HETATM   12  N3  UNL     1      22.329   4.230  52.133  1.00  0.00    -0.340 N 
HETATM   13  H10 UNL     1      22.488   4.950  52.866  1.00  0.00     0.167 HD
BRANCH  12  14
HETATM   14  C9  UNL     1      22.144   4.966  50.932  1.00  0.00     0.035 A 
HETATM   15  C10 UNL     1      23.169   5.036  50.001  1.00  0.00     0.032 A 
HETATM   16  C11 UNL     1      23.087   5.732  48.815  1.00  0.00     0.046 A 
HETATM   17  C12 UNL     1      21.928   6.411  48.504  1.00  0.00     0.138 A 
HETATM   18  F1  UNL     1      21.727   7.125  47.374  1.00  0.00    -0.204 F 
HETATM   19  C13 UNL     1      20.874   6.378  49.388  1.00  0.00     0.074 A 
HETATM   20 CL1  UNL     1      19.347   7.206  49.097  1.00  0.00    -0.081 Cl
HETATM   21  C14 UNL     1      21.032   5.662  50.552  1.00  0.00     0.056 A 
ENDBRANCH  12  14
ENDBRANCH   9  12
BRANCH   1  22
HETATM   22  C2  UNL     1      27.313   1.762  52.790  1.00  0.00     0.034 C 
HETATM   23  C1  UNL     1      28.506   2.451  53.475  1.00  0.00     0.008 C 
ENDBRANCH   1  22
BRANCH  11  24
HETATM   24  O2  UNL     1      26.315  -1.173  53.723  1.00  0.00    -0.351 OA
BRANCH  24  25
HETATM   25  C17 UNL     1      26.843  -1.990  52.697  1.00  0.00     0.201 C 
BRANCH  25  26
HETATM   26  C18 UNL     1      28.305  -2.215  52.974  1.00  0.00     0.193 C 
BRANCH  26  27
HETATM   27  O3  UNL     1      28.844  -1.376  53.922  1.00  0.00    -0.394 OA
HETATM   28  C19 UNL     1      30.067  -0.834  53.615  1.00  0.00     0.201 C 
ENDBRANCH  26  27
ENDBRANCH  25  26
ENDBRANCH  24  25
ENDBRANCH  11  24
TORSDOF 7
ENDMDL
MODEL 8
REMARK VINA RESULT:      -6.8      4.614      8.216
REMARK  7 active torsions:
REMARK  status: ('A' for Active; 'I' for Inactive)
REMARK    1  A    between atoms: C2_2  and  C3_3 
REMARK    2  A    between atoms: C8_11  and  N3_12 
REMARK    3  A    between atoms: N3_12  and  C9_13 
REMARK    4  A    between atoms: C16_22  and  O2_23 
REMARK    5  A    between atoms: O2_23  and  C17_24 
REMARK    6  A    between atoms: C17_24  and  C18_25 
REMARK    7  A    between atoms: C18_25  and  O3_26 
ROOT
HETATM    1  C3  UNL     1      25.273   6.002  49.437  1.00  0.00     0.178 C 
HETATM    2  O1  UNL     1      24.854   5.693  50.678  1.00  0.00    -0.375 OA
HETATM    3  C4  UNL     1      24.022   4.630  50.886  1.00  0.00     0.213 C 
HETATM    4  C5  UNL     1      24.872   3.460  51.160  1.00  0.00     0.040 A 
HETATM    5  C6  UNL     1      26.114   3.211  50.563  1.00  0.00     0.072 A 
HETATM    6  N1  UNL     1      26.851   2.132  50.878  1.00  0.00    -0.241 NA
HETATM    7  C7  UNL     1      26.386   1.267  51.793  1.00  0.00     0.235 A 
HETATM    8  N2  UNL     1      25.198   1.520  52.353  1.00  0.00    -0.224 NA
HETATM    9  C8  UNL     1      24.424   2.570  52.079  1.00  0.00     0.140 A 
HETATM   10  C15 UNL     1      26.811   4.019  49.537  1.00  0.00     0.067 C 
HETATM   11  C16 UNL     1      26.494   5.221  49.020  1.00  0.00     0.077 C 
ENDROOT
BRANCH   9  12
HETATM   12  N3  UNL     1      23.162   2.730  52.691  1.00  0.00    -0.340 N 
HETATM   13  H10 UNL     1      22.813   3.527  53.259  1.00  0.00     0.167 HD
BRANCH  12  14
HETATM   14  C9  UNL     1      22.074   1.818  52.635  1.00  0.00     0.035 A 
HETATM   15  C10 UNL     1      20.998   2.078  51.801  1.00  0.00     0.032 A 
HETATM   16  C11 UNL     1      19.896   1.260  51.686  1.00  0.00     0.046 A 
HETATM   17  C12 UNL     1      19.826   0.104  52.433  1.00  0.00     0.138 A 
HETATM   18  F1  UNL     1      18.802  -0.777  52.407  1.00  0.00    -0.204 F 
HETATM   19  C13 UNL     1      20.865  -0.209  53.280  1.00  0.00     0.074 A 
HETATM   20 CL1  UNL     1      20.886  -1.658  54.282  1.00  0.00    -0.081 Cl
HETATM   21  C14 UNL     1      21.931   0.657  53.340  1.00  0.00     0.056 A 
ENDBRANCH  12  14
ENDBRANCH   9  12
BRANCH   1  22
HETATM   22  C2  UNL     1      24.251   6.098  48.352  1.00  0.00     0.034 C 
HETATM   23  C1  UNL     1      23.440   7.405  48.414  1.00  0.00     0.008 C 
ENDBRANCH   1  22
BRANCH  11  24
HETATM   24  O2  UNL     1      27.437   5.588  48.092  1.00  0.00    -0.351 OA
BRANCH  24  25
HETATM   25  C17 UNL     1      28.595   6.347  48.376  1.00  0.00     0.201 C 
BRANCH  25  26
HETATM   26  C18 UNL     1      29.804   5.525  48.015  1.00  0.00     0.193 C 
BRANCH  26  27
HETATM   27  O3  UNL     1      30.797   5.518  48.968  1.00  0.00    -0.394 OA
HETATM   28  C19 UNL     1      31.400   6.726  49.212  1.00  0.00     0.201 C 
ENDBRANCH  26  27
ENDBRANCH  25  26
ENDBRANCH  24  25
ENDBRANCH  11  24
TORSDOF 7
ENDMDL
MODEL 9
REMARK VINA RESULT:      -6.8      4.461      7.304
REMARK  7 active torsions:
REMARK  status: ('A' for Active; 'I' for Inactive)
REMARK    1  A    between atoms: C2_2  and  C3_3 
REMARK    2  A    between atoms: C8_11  and  N3_12 
REMARK    3  A    between atoms: N3_12  and  C9_13 
REMARK    4  A    between atoms: C16_22  and  O2_23 
REMARK    5  A    between atoms: O2_23  and  C17_24 
REMARK    6  A    between atoms: C17_24  and  C18_25 
REMARK    7  A    between atoms: C18_25  and  O3_26 
ROOT
HETATM    1  C3  UNL     1      26.259   5.894  48.560  1.00  0.00     0.178 C 
HETATM    2  O1  UNL     1      25.702   4.675  48.681  1.00  0.00    -0.375 OA
HETATM    3  C4  UNL     1      26.049   3.853  49.715  1.00  0.00     0.213 C 
HETATM    4  C5  UNL     1      25.105   4.111  50.813  1.00  0.00     0.040 A 
HETATM    5  C6  UNL     1      24.562   5.363  51.129  1.00  0.00     0.072 A 
HETATM    6  N1  UNL     1      23.682   5.525  52.133  1.00  0.00    -0.241 NA
HETATM    7  C7  UNL     1      23.311   4.455  52.855  1.00  0.00     0.235 A 
HETATM    8  N2  UNL     1      23.839   3.268  52.541  1.00  0.00    -0.224 NA
HETATM    9  C8  UNL     1      24.715   3.048  51.560  1.00  0.00     0.140 A 
HETATM   10  C15 UNL     1      24.829   6.664  50.475  1.00  0.00     0.067 C 
HETATM   11  C16 UNL     1      25.549   6.947  49.373  1.00  0.00     0.077 C 
ENDROOT
BRANCH   9  12
HETATM   12  N3  UNL     1      25.252   1.764  51.330  1.00  0.00    -0.340 N 
HETATM   13  H10 UNL     1      24.994   1.074  50.597  1.00  0.00     0.167 HD
BRANCH  12  14
HETATM   14  C9  UNL     1      26.299   1.143  52.063  1.00  0.00     0.035 A 
HETATM   15  C10 UNL     1      27.180   1.919  52.800  1.00  0.00     0.032 A 
HETATM   16  C11 UNL     1      28.229   1.410  53.533  1.00  0.00     0.046 A 
HETATM   17  C12 UNL     1      28.445   0.049  53.557  1.00  0.00     0.138 A 
HETATM   18  F1  UNL     1      29.436  -0.568  54.238  1.00  0.00    -0.204 F 
HETATM   19  C13 UNL     1      27.603  -0.775  52.845  1.00  0.00     0.074 A 
HETATM   20 CL1  UNL     1      27.781  -2.526  52.802  1.00  0.00    -0.081 Cl
HETATM   21  C14 UNL     1      26.578  -0.193  52.137  1.00  0.00     0.056 A 
ENDBRANCH  12  14
ENDBRANCH   9  12
BRANCH   1  22
HETATM   22  C2  UNL     1      27.747   6.001  48.651  1.00  0.00     0.034 C 
HETATM   23  C1  UNL     1      28.337   6.970  47.610  1.00  0.00     0.008 C 
ENDBRANCH   1  22
BRANCH  11  24
HETATM   24  O2  UNL     1      25.520   8.299  49.137  1.00  0.00    -0.351 OA
BRANCH  24  25
HETATM   25  C17 UNL     1      26.297   9.256  49.830  1.00  0.00     0.201 C 
BRANCH  25  26
HETATM   26  C18 UNL     1      26.894  10.203  48.824  1.00  0.00     0.193 C 
BRANCH  26  27
HETATM   27  O3  UNL     1      26.369  11.475  48.853  1.00  0.00    -0.394 OA
HETATM   28  C19 UNL     1      25.657  11.853  47.742  1.00  0.00     0.201 C 
ENDBRANCH  26  27
ENDBRANCH  25  26
ENDBRANCH  24  25
ENDBRANCH  11  24
TORSDOF 7
ENDMDL
