MODEL 1
REMARK VINA RESULT:      -8.8      0.000      0.000
REMARK  7 active torsions:
REMARK  status: ('A' for Active; 'I' for Inactive)
REMARK    1  A    between atoms: O1_2  and  C2_3 
REMARK    2  A    between atoms: N3_11  and  C8_12 
REMARK    3  A    between atoms: C17_22  and  N4_23 
REMARK       I    between atoms: N4_23  and  C18_24 
REMARK    4  A    between atoms: C18_24  and  C19_26 
REMARK    5  A    between atoms: C19_26  and  C20_27 
REMARK    6  A    between atoms: C20_27  and  C21_28 
REMARK    7  A    between atoms: C21_28  and  N5_29 
ROOT
HETATM    1  C2  UNL     1      22.378   2.851  52.279  1.00  0.00     0.096 A 
HETATM    2  C3  UNL     1      21.703   1.765  52.615  1.00  0.00     0.068 A 
HETATM    3  C4  UNL     1      22.378   0.497  52.851  1.00  0.00     0.060 A 
HETATM    4  N1  UNL     1      21.413  -0.307  53.226  1.00  0.00    -0.270 NA
HETATM    5  C5  UNL     1      21.363  -1.726  53.621  1.00  0.00     0.298 C 
HETATM    6  N2  UNL     1      21.830  -1.877  54.991  1.00  0.00    -0.265 NA
HETATM    7  C6  UNL     1      22.750  -1.177  55.579  1.00  0.00     0.098 C 
HETATM    8  C7  UNL     1      23.883  -0.947  54.934  1.00  0.00     0.126 C 
HETATM    9  N3  UNL     1      24.466  -0.379  53.746  1.00  0.00    -0.340 N 
HETATM   10  C15 UNL     1      23.827   0.312  52.685  1.00  0.00     0.166 A 
HETATM   11  C16 UNL     1      24.394   1.627  52.324  1.00  0.00     0.037 A 
HETATM   12  C17 UNL     1      23.823   2.797  52.122  1.00  0.00     0.067 A 
ENDROOT
BRANCH  12  13
HETATM   13  N4  UNL     1      24.437   4.021  51.771  1.00  0.00    -0.321 N 
HETATM   14  C18 UNL     1      24.682   4.517  50.472  1.00  0.00     0.245 C 
HETATM   15  O2  UNL     1      24.360   3.882  49.446  1.00  0.00    -0.268 OA
HETATM   16  H16 UNL     1      24.773   4.687  52.477  1.00  0.00     0.169 HD
BRANCH  14  17
HETATM   17  C19 UNL     1      25.308   5.764  50.151  1.00  0.00     0.072 C 
BRANCH  17  18
HETATM   18  C20 UNL     1      26.117   6.546  49.494  1.00  0.00     0.008 C 
BRANCH  18  19
HETATM   19  C21 UNL     1      27.127   7.472  48.956  1.00  0.00     0.299 C 
BRANCH  19  20
HETATM   20  N5  UNL     1      27.221   8.646  49.815  1.00  0.00     0.083 N 
HETATM   21  C22 UNL     1      26.040   9.422  49.585  1.00  0.00     0.309 C 
HETATM   22  C23 UNL     1      28.452   9.353  49.546  1.00  0.00     0.309 C 
ENDBRANCH  19  20
ENDBRANCH  18  19
ENDBRANCH  17  18
ENDBRANCH  14  17
ENDBRANCH  12  13
BRANCH   1  23
HETATM   23  O1  UNL     1      21.638   3.998  52.086  1.00  0.00    -0.354 OA
HETATM   24  C1  UNL     1      20.851   4.264  50.955  1.00  0.00     0.210 C 
ENDBRANCH   1  23
BRANCH   9  25
HETATM   25  C8  UNL     1      25.872  -0.545  53.662  1.00  0.00     0.038 A 
HETATM   26  C9  UNL     1      26.547  -1.341  52.762  1.00  0.00     0.030 A 
HETATM   27  C10 UNL     1      27.919  -1.437  52.723  1.00  0.00     0.012 A 
HETATM   28  C11 UNL     1      28.708  -0.729  53.598  1.00  0.00    -0.023 A 
HETATM   29  C12 UNL     1      30.183  -0.850  53.540  1.00  0.00     0.051 C 
HETATM   30  C13 UNL     1      28.085   0.081  54.518  1.00  0.00     0.124 A 
HETATM   31  F1  UNL     1      28.894   0.761  55.364  1.00  0.00    -0.205 F 
HETATM   32  C14 UNL     1      26.703   0.149  54.523  1.00  0.00     0.072 A 
ENDBRANCH   9  25
TORSDOF 7
ENDMDL
MODEL 2
REMARK VINA RESULT:      -7.8      3.278      7.238
REMARK  7 active torsions:
REMARK  status: ('A' for Active; 'I' for Inactive)
REMARK    1  A    between atoms: O1_2  and  C2_3 
REMARK    2  A    between atoms: N3_11  and  C8_12 
REMARK    3  A    between atoms: C17_22  and  N4_23 
REMARK       I    between atoms: N4_23  and  C18_24 
REMARK    4  A    between atoms: C18_24  and  C19_26 
REMARK    5  A    between atoms: C19_26  and  C20_27 
REMARK    6  A    between atoms: C20_27  and  C21_28 
REMARK    7  A    between atoms: C21_28  and  N5_29 
ROOT
HETATM    1  C2  UNL     1      21.722   0.064  52.767  1.00  0.00     0.096 A 
HETATM    2  C3  UNL     1      22.855  -0.471  53.187  1.00  0.00     0.068 A 
HETATM    3  C4  UNL     1      24.144   0.025  52.723  1.00  0.00     0.060 A 
HETATM    4  N1  UNL     1      25.015  -0.686  53.398  1.00  0.00    -0.270 NA
HETATM    5  C5  UNL     1      26.487  -0.724  53.440  1.00  0.00     0.298 C 
HETATM    6  N2  UNL     1      26.990   0.387  54.233  1.00  0.00    -0.265 NA
HETATM    7  C6  UNL     1      26.471   1.572  54.327  1.00  0.00     0.098 C 
HETATM    8  C7  UNL     1      26.085   2.186  53.219  1.00  0.00     0.126 C 
HETATM    9  N3  UNL     1      25.230   2.102  52.064  1.00  0.00    -0.340 N 
HETATM   10  C15 UNL     1      24.284   1.099  51.729  1.00  0.00     0.166 A 
HETATM   11  C16 UNL     1      22.922   1.566  51.399  1.00  0.00     0.037 A 
HETATM   12  C17 UNL     1      21.739   1.161  51.810  1.00  0.00     0.067 A 
ENDROOT
BRANCH  12  13
HETATM   13  N4  UNL     1      20.467   1.659  51.443  1.00  0.00    -0.321 N 
HETATM   14  C18 UNL     1      19.837   2.833  51.911  1.00  0.00     0.245 C 
HETATM   15  O2  UNL     1      20.376   3.590  52.746  1.00  0.00    -0.268 OA
HETATM   16  H16 UNL     1      19.866   1.177  50.765  1.00  0.00     0.169 HD
BRANCH  14  17
HETATM   17  C19 UNL     1      18.546   3.309  51.518  1.00  0.00     0.072 C 
BRANCH  17  18
HETATM   18  C20 UNL     1      17.267   3.516  51.663  1.00  0.00     0.008 C 
BRANCH  18  19
HETATM   19  C21 UNL     1      15.839   3.869  51.630  1.00  0.00     0.299 C 
BRANCH  19  20
HETATM   20  N5  UNL     1      15.179   3.351  52.823  1.00  0.00     0.083 N 
HETATM   21  C22 UNL     1      14.850   1.984  52.552  1.00  0.00     0.309 C 
HETATM   22  C23 UNL     1      14.041   4.177  53.152  1.00  0.00     0.309 C 
ENDBRANCH  19  20
ENDBRANCH  18  19
ENDBRANCH  17  18
ENDBRANCH  14  17
ENDBRANCH  12  13
BRANCH   1  23
HETATM   23  O1  UNL     1      20.562  -0.478  53.276  1.00  0.00    -0.354 OA
HETATM   24  C1  UNL     1      20.509  -1.526  54.210  1.00  0.00     0.210 C 
ENDBRANCH   1  23
BRANCH   9  25
HETATM   25  C8  UNL     1      25.373   3.189  51.164  1.00  0.00     0.038 A 
HETATM   26  C9  UNL     1      24.561   4.300  51.092  1.00  0.00     0.030 A 
HETATM   27  C10 UNL     1      24.773   5.330  50.207  1.00  0.00     0.012 A 
HETATM   28  C11 UNL     1      25.829   5.309  49.327  1.00  0.00    -0.023 A 
HETATM   29  C12 UNL     1      26.037   6.429  48.381  1.00  0.00     0.051 C 
HETATM   30  C13 UNL     1      26.672   4.223  49.357  1.00  0.00     0.124 A 
HETATM   31  F1  UNL     1      27.700   4.236  48.476  1.00  0.00    -0.205 F 
HETATM   32  C14 UNL     1      26.422   3.207  50.264  1.00  0.00     0.072 A 
ENDBRANCH   9  25
TORSDOF 7
ENDMDL
MODEL 3
REMARK VINA RESULT:      -7.7      2.359      3.073
REMARK  7 active torsions:
REMARK  status: ('A' for Active; 'I' for Inactive)
REMARK    1  A    between atoms: O1_2  and  C2_3 
REMARK    2  A    between atoms: N3_11  and  C8_12 
REMARK    3  A    between atoms: C17_22  and  N4_23 
REMARK       I    between atoms: N4_23  and  C18_24 
REMARK    4  A    between atoms: C18_24  and  C19_26 
REMARK    5  A    between atoms: C19_26  and  C20_27 
REMARK    6  A    between atoms: C20_27  and  C21_28 
REMARK    7  A    between atoms: C21_28  and  N5_29 
ROOT
HETATM    1  C2  UNL     1      23.187   4.277  49.303  1.00  0.00     0.096 A 
HETATM    2  C3  UNL     1      22.280   3.370  49.620  1.00  0.00     0.068 A 
HETATM    3  C4  UNL     1      22.646   2.148  50.324  1.00  0.00     0.060 A 
HETATM    4  N1  UNL     1      21.498   1.546  50.523  1.00  0.00    -0.270 NA
HETATM    5  C5  UNL     1      21.109   0.279  51.168  1.00  0.00     0.298 C 
HETATM    6  N2  UNL     1      21.119   0.435  52.615  1.00  0.00    -0.265 NA
HETATM    7  C6  UNL     1      21.921   1.179  53.310  1.00  0.00     0.098 C 
HETATM    8  C7  UNL     1      23.216   1.146  53.036  1.00  0.00     0.126 C 
HETATM    9  N3  UNL     1      24.208   1.350  52.012  1.00  0.00    -0.340 N 
HETATM   10  C15 UNL     1      24.030   1.807  50.681  1.00  0.00     0.166 A 
HETATM   11  C16 UNL     1      24.879   2.940  50.257  1.00  0.00     0.037 A 
HETATM   12  C17 UNL     1      24.586   4.066  49.641  1.00  0.00     0.067 A 
ENDROOT
BRANCH  12  13
HETATM   13  N4  UNL     1      25.462   5.109  49.261  1.00  0.00    -0.321 N 
HETATM   14  C18 UNL     1      26.822   4.998  48.898  1.00  0.00     0.245 C 
HETATM   15  O2  UNL     1      27.418   3.900  48.877  1.00  0.00    -0.268 OA
HETATM   16  H16 UNL     1      25.159   6.088  49.216  1.00  0.00     0.169 HD
BRANCH  14  17
HETATM   17  C19 UNL     1      27.683   6.077  48.519  1.00  0.00     0.072 C 
BRANCH  17  18
HETATM   18  C20 UNL     1      28.780   6.609  48.057  1.00  0.00     0.008 C 
BRANCH  18  19
HETATM   19  C21 UNL     1      30.123   7.022  47.620  1.00  0.00     0.299 C 
BRANCH  19  20
HETATM   20  N5  UNL     1      30.962   7.271  48.785  1.00  0.00     0.083 N 
HETATM   21  C22 UNL     1      31.958   8.218  48.383  1.00  0.00     0.309 C 
HETATM   22  C23 UNL     1      31.499   6.023  49.277  1.00  0.00     0.309 C 
ENDBRANCH  19  20
ENDBRANCH  18  19
ENDBRANCH  17  18
ENDBRANCH  14  17
ENDBRANCH  12  13
BRANCH   1  23
HETATM   23  O1  UNL     1      22.728   5.398  48.644  1.00  0.00    -0.354 OA
HETATM   24  C1  UNL     1      21.631   6.174  49.050  1.00  0.00     0.210 C 
ENDBRANCH   1  23
BRANCH   9  25
HETATM   25  C8  UNL     1      25.531   1.052  52.427  1.00  0.00     0.038 A 
HETATM   26  C9  UNL     1      26.159  -0.170  52.332  1.00  0.00     0.030 A 
HETATM   27  C10 UNL     1      27.456  -0.383  52.736  1.00  0.00     0.012 A 
HETATM   28  C11 UNL     1      28.213   0.634  53.267  1.00  0.00    -0.023 A 
HETATM   29  C12 UNL     1      29.608   0.381  53.698  1.00  0.00     0.051 C 
HETATM   30  C13 UNL     1      27.635   1.875  53.385  1.00  0.00     0.124 A 
HETATM   31  F1  UNL     1      28.410   2.851  53.915  1.00  0.00    -0.205 F 
HETATM   32  C14 UNL     1      26.326   2.046  52.967  1.00  0.00     0.072 A 
ENDBRANCH   9  25
TORSDOF 7
ENDMDL
MODEL 4
REMARK VINA RESULT:      -7.7      1.770      2.533
REMARK  7 active torsions:
REMARK  status: ('A' for Active; 'I' for Inactive)
REMARK    1  A    between atoms: O1_2  and  C2_3 
REMARK    2  A    between atoms: N3_11  and  C8_12 
REMARK    3  A    between atoms: C17_22  and  N4_23 
REMARK       I    between atoms: N4_23  and  C18_24 
REMARK    4  A    between atoms: C18_24  and  C19_26 
REMARK    5  A    between atoms: C19_26  and  C20_27 
REMARK    6  A    between atoms: C20_27  and  C21_28 
REMARK    7  A    between atoms: C21_28  and  N5_29 
ROOT
HETATM    1  C2  UNL     1      22.486   4.894  51.092  1.00  0.00     0.096 A 
HETATM    2  C3  UNL     1      21.725   3.815  51.052  1.00  0.00     0.068 A 
HETATM    3  C4  UNL     1      22.284   2.486  51.259  1.00  0.00     0.060 A 
HETATM    4  N1  UNL     1      21.237   1.697  51.220  1.00  0.00    -0.270 NA
HETATM    5  C5  UNL     1      21.053   0.241  51.355  1.00  0.00     0.298 C 
HETATM    6  N2  UNL     1      21.113  -0.140  52.758  1.00  0.00    -0.265 NA
HETATM    7  C6  UNL     1      21.843   0.406  53.680  1.00  0.00     0.098 C 
HETATM    8  C7  UNL     1      23.116   0.658  53.417  1.00  0.00     0.126 C 
HETATM    9  N3  UNL     1      24.019   1.359  52.542  1.00  0.00    -0.340 N 
HETATM   10  C15 UNL     1      23.717   2.239  51.471  1.00  0.00     0.166 A 
HETATM   11  C16 UNL     1      24.386   3.555  51.494  1.00  0.00     0.037 A 
HETATM   12  C17 UNL     1      23.916   4.775  51.333  1.00  0.00     0.067 A 
ENDROOT
BRANCH  12  13
HETATM   13  N4  UNL     1      24.626   5.998  51.365  1.00  0.00    -0.321 N 
HETATM   14  C18 UNL     1      25.278   6.640  50.289  1.00  0.00     0.245 C 
HETATM   15  O2  UNL     1      25.291   6.159  49.137  1.00  0.00    -0.268 OA
HETATM   16  H16 UNL     1      24.728   6.548  52.225  1.00  0.00     0.169 HD
BRANCH  14  17
HETATM   17  C19 UNL     1      25.990   7.880  50.356  1.00  0.00     0.072 C 
BRANCH  17  18
HETATM   18  C20 UNL     1      26.914   8.733  50.015  1.00  0.00     0.008 C 
BRANCH  18  19
HETATM   19  C21 UNL     1      28.104   9.519  49.652  1.00  0.00     0.299 C 
BRANCH  19  20
HETATM   20  N5  UNL     1      29.148   8.627  49.162  1.00  0.00     0.083 N 
HETATM   21  C22 UNL     1      30.387   9.337  49.280  1.00  0.00     0.309 C 
HETATM   22  C23 UNL     1      28.839   8.202  47.817  1.00  0.00     0.309 C 
ENDBRANCH  19  20
ENDBRANCH  18  19
ENDBRANCH  17  18
ENDBRANCH  14  17
ENDBRANCH  12  13
BRANCH   1  23
HETATM   23  O1  UNL     1      21.851   6.101  50.889  1.00  0.00    -0.354 OA
HETATM   24  C1  UNL     1      20.866   6.335  49.917  1.00  0.00     0.210 C 
ENDBRANCH   1  23
BRANCH   9  25
HETATM   25  C8  UNL     1      25.389   1.121  52.823  1.00  0.00     0.038 A 
HETATM   26  C9  UNL     1      26.278   2.022  53.366  1.00  0.00     0.030 A 
HETATM   27  C10 UNL     1      27.592   1.714  53.634  1.00  0.00     0.012 A 
HETATM   28  C11 UNL     1      28.100   0.465  53.368  1.00  0.00    -0.023 A 
HETATM   29  C12 UNL     1      29.519   0.157  53.662  1.00  0.00     0.051 C 
HETATM   30  C13 UNL     1      27.255  -0.473  52.825  1.00  0.00     0.124 A 
HETATM   31  F1  UNL     1      27.790  -1.691  52.576  1.00  0.00    -0.205 F 
HETATM   32  C14 UNL     1      25.940  -0.122  52.571  1.00  0.00     0.072 A 
ENDBRANCH   9  25
TORSDOF 7
ENDMDL
MODEL 5
REMARK VINA RESULT:      -7.5      3.817      6.323
REMARK  7 active torsions:
REMARK  status: ('A' for Active; 'I' for Inactive)
REMARK    1  A    between atoms: O1_2  and  C2_3 
REMARK    2  A    between atoms: N3_11  and  C8_12 
REMARK    3  A    between atoms: C17_22  and  N4_23 
REMARK       I    between atoms: N4_23  and  C18_24 
REMARK    4  A    between atoms: C18_24  and  C19_26 
REMARK    5  A    between atoms: C19_26  and  C20_27 
REMARK    6  A    between atoms: C20_27  and  C21_28 
REMARK    7  A    between atoms: C21_28  and  N5_29 
ROOT
HETATM    1  C2  UNL     1      25.930   3.132  50.188  1.00  0.00     0.096 A 
HETATM    2  C3  UNL     1      26.716   2.682  51.151  1.00  0.00     0.068 A 
HETATM    3  C4  UNL     1      26.174   1.957  52.292  1.00  0.00     0.060 A 
HETATM    4  N1  UNL     1      27.238   1.617  52.980  1.00  0.00    -0.270 NA
HETATM    5  C5  UNL     1      27.446   0.873  54.236  1.00  0.00     0.298 C 
HETATM    6  N2  UNL     1      27.317  -0.556  53.994  1.00  0.00    -0.265 NA
HETATM    7  C6  UNL     1      26.525  -1.131  53.143  1.00  0.00     0.098 C 
HETATM    8  C7  UNL     1      25.264  -0.734  53.079  1.00  0.00     0.126 C 
HETATM    9  N3  UNL     1      24.395   0.392  52.849  1.00  0.00    -0.340 N 
HETATM   10  C15 UNL     1      24.737   1.720  52.489  1.00  0.00     0.166 A 
HETATM   11  C16 UNL     1      24.040   2.281  51.314  1.00  0.00     0.037 A 
HETATM   12  C17 UNL     1      24.492   2.922  50.256  1.00  0.00     0.067 A 
ENDROOT
BRANCH  12  13
HETATM   13  N4  UNL     1      23.756   3.438  49.164  1.00  0.00    -0.321 N 
HETATM   14  C18 UNL     1      22.733   2.790  48.437  1.00  0.00     0.245 C 
HETATM   15  O2  UNL     1      22.360   1.628  48.704  1.00  0.00    -0.268 OA
HETATM   16  H16 UNL     1      23.916   4.381  48.793  1.00  0.00     0.169 HD
BRANCH  14  17
HETATM   17  C19 UNL     1      22.007   3.341  47.333  1.00  0.00     0.072 C 
BRANCH  17  18
HETATM   18  C20 UNL     1      21.878   3.941  46.184  1.00  0.00     0.008 C 
BRANCH  18  19
HETATM   19  C21 UNL     1      21.530   4.510  44.872  1.00  0.00     0.299 C 
BRANCH  19  20
HETATM   20  N5  UNL     1      20.490   3.701  44.248  1.00  0.00     0.083 N 
HETATM   21  C22 UNL     1      20.442   4.081  42.868  1.00  0.00     0.309 C 
HETATM   22  C23 UNL     1      19.241   3.881  44.952  1.00  0.00     0.309 C 
ENDBRANCH  19  20
ENDBRANCH  18  19
ENDBRANCH  17  18
ENDBRANCH  14  17
ENDBRANCH  12  13
BRANCH   1  23
HETATM   23  O1  UNL     1      26.550   3.798  49.153  1.00  0.00    -0.354 OA
HETATM   24  C1  UNL     1      26.686   5.193  49.064  1.00  0.00     0.210 C 
ENDBRANCH   1  23
BRANCH   9  25
HETATM   25  C8  UNL     1      23.018   0.093  53.005  1.00  0.00     0.038 A 
HETATM   26  C9  UNL     1      22.402  -0.334  54.162  1.00  0.00     0.030 A 
HETATM   27  C10 UNL     1      21.053  -0.585  54.247  1.00  0.00     0.012 A 
HETATM   28  C11 UNL     1      20.226  -0.419  53.162  1.00  0.00    -0.023 A 
HETATM   29  C12 UNL     1      18.776  -0.696  53.277  1.00  0.00     0.051 C 
HETATM   30  C13 UNL     1      20.789   0.007  51.982  1.00  0.00     0.124 A 
HETATM   31  F1  UNL     1      19.945   0.158  50.934  1.00  0.00    -0.205 F 
HETATM   32  C14 UNL     1      22.151   0.247  51.938  1.00  0.00     0.072 A 
ENDBRANCH   9  25
TORSDOF 7
ENDMDL
MODEL 6
REMARK VINA RESULT:      -7.3      3.952      6.746
REMARK  7 active torsions:
REMARK  status: ('A' for Active; 'I' for Inactive)
REMARK    1  A    between atoms: O1_2  and  C2_3 
REMARK    2  A    between atoms: N3_11  and  C8_12 
REMARK    3  A    between atoms: C17_22  and  N4_23 
REMARK       I    between atoms: N4_23  and  C18_24 
REMARK    4  A    between atoms: C18_24  and  C19_26 
REMARK    5  A    between atoms: C19_26  and  C20_27 
REMARK    6  A    between atoms: C20_27  and  C21_28 
REMARK    7  A    between atoms: C21_28  and  N5_29 
ROOT
HETATM    1  C2  UNL     1      26.208   2.547  51.575  1.00  0.00     0.096 A 
HETATM    2  C3  UNL     1      25.227   1.993  52.266  1.00  0.00     0.068 A 
HETATM    3  C4  UNL     1      23.832   2.239  51.928  1.00  0.00     0.060 A 
HETATM    4  N1  UNL     1      23.168   1.481  52.768  1.00  0.00    -0.270 NA
HETATM    5  C5  UNL     1      21.735   1.226  52.998  1.00  0.00     0.298 C 
HETATM    6  N2  UNL     1      21.224   0.314  51.987  1.00  0.00    -0.265 NA
HETATM    7  C6  UNL     1      21.600   0.237  50.749  1.00  0.00     0.098 C 
HETATM    8  C7  UNL     1      21.734   1.357  50.055  1.00  0.00     0.126 C 
HETATM    9  N3  UNL     1      22.409   2.627  49.991  1.00  0.00    -0.340 N 
HETATM   10  C15 UNL     1      23.410   3.147  50.851  1.00  0.00     0.166 A 
HETATM   11  C16 UNL     1      24.638   3.648  50.201  1.00  0.00     0.037 A 
HETATM   12  C17 UNL     1      25.912   3.434  50.460  1.00  0.00     0.067 A 
ENDROOT
BRANCH  12  13
HETATM   13  N4  UNL     1      27.041   3.957  49.790  1.00  0.00    -0.321 N 
HETATM   14  C18 UNL     1      27.089   5.087  48.943  1.00  0.00     0.245 C 
HETATM   15  O2  UNL     1      26.077   5.774  48.691  1.00  0.00    -0.268 OA
HETATM   16  H16 UNL     1      27.971   3.532  49.871  1.00  0.00     0.169 HD
BRANCH  14  17
HETATM   17  C19 UNL     1      28.252   5.591  48.278  1.00  0.00     0.072 C 
BRANCH  17  18
HETATM   18  C20 UNL     1      29.509   5.924  48.181  1.00  0.00     0.008 C 
BRANCH  18  19
HETATM   19  C21 UNL     1      30.894   6.413  48.270  1.00  0.00     0.299 C 
BRANCH  19  20
HETATM   20  N5  UNL     1      31.795   5.289  48.493  1.00  0.00     0.083 N 
HETATM   21  C22 UNL     1      33.077   5.844  48.809  1.00  0.00     0.309 C 
HETATM   22  C23 UNL     1      31.797   4.423  47.337  1.00  0.00     0.309 C 
ENDBRANCH  19  20
ENDBRANCH  18  19
ENDBRANCH  17  18
ENDBRANCH  14  17
ENDBRANCH  12  13
BRANCH   1  23
HETATM   23  O1  UNL     1      27.491   2.239  51.977  1.00  0.00    -0.354 OA
HETATM   24  C1  UNL     1      27.932   2.229  53.309  1.00  0.00     0.210 C 
ENDBRANCH   1  23
BRANCH   9  25
HETATM   25  C8  UNL     1      21.998   3.440  48.904  1.00  0.00     0.038 A 
HETATM   26  C9  UNL     1      21.389   4.673  48.993  1.00  0.00     0.030 A 
HETATM   27  C10 UNL     1      21.036   5.419  47.893  1.00  0.00     0.012 A 
HETATM   28  C11 UNL     1      21.277   4.967  46.618  1.00  0.00    -0.023 A 
HETATM   29  C12 UNL     1      20.886   5.787  45.448  1.00  0.00     0.051 C 
HETATM   30  C13 UNL     1      21.883   3.742  46.472  1.00  0.00     0.124 A 
HETATM   31  F1  UNL     1      22.103   3.329  45.201  1.00  0.00    -0.205 F 
HETATM   32  C14 UNL     1      22.222   3.023  47.605  1.00  0.00     0.072 A 
ENDBRANCH   9  25
TORSDOF 7
ENDMDL
MODEL 7
REMARK VINA RESULT:      -7.2      3.057      5.913
REMARK  7 active torsions:
REMARK  status: ('A' for Active; 'I' for Inactive)
REMARK    1  A    between atoms: O1_2  and  C2_3 
REMARK    2  A    between atoms: N3_11  and  C8_12 
REMARK    3  A    between atoms: C17_22  and  N4_23 
REMARK       I    between atoms: N4_23  and  C18_24 
REMARK    4  A    between atoms: C18_24  and  C19_26 
REMARK    5  A    between atoms: C19_26  and  C20_27 
REMARK    6  A    between atoms: C20_27  and  C21_28 
REMARK    7  A    between atoms: C21_28  and  N5_29 
ROOT
HETATM    1  C2  UNL     1      25.974   3.098  50.288  1.00  0.00     0.096 A 
HETATM    2  C3  UNL     1      26.792   2.646  51.223  1.00  0.00     0.068 A 
HETATM    3  C4  UNL     1      26.292   1.891  52.364  1.00  0.00     0.060 A 
HETATM    4  N1  UNL     1      27.379   1.557  53.019  1.00  0.00    -0.270 NA
HETATM    5  C5  UNL     1      27.631   0.795  54.255  1.00  0.00     0.298 C 
HETATM    6  N2  UNL     1      27.520  -0.631  53.990  1.00  0.00    -0.265 NA
HETATM    7  C6  UNL     1      26.718  -1.205  53.149  1.00  0.00     0.098 C 
HETATM    8  C7  UNL     1      25.448  -0.829  53.124  1.00  0.00     0.126 C 
HETATM    9  N3  UNL     1      24.555   0.284  52.937  1.00  0.00    -0.340 N 
HETATM   10  C15 UNL     1      24.864   1.625  52.593  1.00  0.00     0.166 A 
HETATM   11  C16 UNL     1      24.128   2.194  51.446  1.00  0.00     0.037 A 
HETATM   12  C17 UNL     1      24.542   2.862  50.389  1.00  0.00     0.067 A 
ENDROOT
BRANCH  12  13
HETATM   13  N4  UNL     1      23.769   3.384  49.326  1.00  0.00    -0.321 N 
HETATM   14  C18 UNL     1      23.001   4.569  49.325  1.00  0.00     0.245 C 
HETATM   15  O2  UNL     1      22.925   5.314  50.324  1.00  0.00    -0.268 OA
HETATM   16  H16 UNL     1      23.704   2.914  48.416  1.00  0.00     0.169 HD
BRANCH  14  17
HETATM   17  C19 UNL     1      22.227   5.069  48.229  1.00  0.00     0.072 C 
BRANCH  17  18
HETATM   18  C20 UNL     1      21.152   5.526  47.651  1.00  0.00     0.008 C 
BRANCH  18  19
HETATM   19  C21 UNL     1      19.867   6.093  47.212  1.00  0.00     0.299 C 
BRANCH  19  20
HETATM   20  N5  UNL     1      19.029   6.362  48.373  1.00  0.00     0.083 N 
HETATM   21  C22 UNL     1      19.739   7.302  49.187  1.00  0.00     0.309 C 
HETATM   22  C23 UNL     1      18.710   5.123  49.046  1.00  0.00     0.309 C 
ENDBRANCH  19  20
ENDBRANCH  18  19
ENDBRANCH  17  18
ENDBRANCH  14  17
ENDBRANCH  12  13
BRANCH   1  23
HETATM   23  O1  UNL     1      26.556   3.794  49.250  1.00  0.00    -0.354 OA
HETATM   24  C1  UNL     1      26.650   5.193  49.175  1.00  0.00     0.210 C 
ENDBRANCH   1  23
BRANCH   9  25
HETATM   25  C8  UNL     1      23.187  -0.042  53.122  1.00  0.00     0.038 A 
HETATM   26  C9  UNL     1      22.622  -0.571  54.262  1.00  0.00     0.030 A 
HETATM   27  C10 UNL     1      21.279  -0.842  54.380  1.00  0.00     0.012 A 
HETATM   28  C11 UNL     1      20.408  -0.594  53.346  1.00  0.00    -0.023 A 
HETATM   29  C12 UNL     1      18.966  -0.897  53.495  1.00  0.00     0.051 C 
HETATM   30  C13 UNL     1      20.919  -0.065  52.185  1.00  0.00     0.124 A 
HETATM   31  F1  UNL     1      20.032   0.164  51.188  1.00  0.00    -0.205 F 
HETATM   32  C14 UNL     1      22.277   0.193  52.107  1.00  0.00     0.072 A 
ENDBRANCH   9  25
TORSDOF 7
ENDMDL
MODEL 8
REMARK VINA RESULT:      -7.2      5.060     11.079
REMARK  7 active torsions:
REMARK  status: ('A' for Active; 'I' for Inactive)
REMARK    1  A    between atoms: O1_2  and  C2_3 
REMARK    2  A    between atoms: N3_11  and  C8_12 
REMARK    3  A    between atoms: C17_22  and  N4_23 
REMARK       I    between atoms: N4_23  and  C18_24 
REMARK    4  A    between atoms: C18_24  and  C19_26 
REMARK    5  A    between atoms: C19_26  and  C20_27 
REMARK    6  A    between atoms: C20_27  and  C21_28 
REMARK    7  A    between atoms: C21_28  and  N5_29 
ROOT
HETATM    1  C2  UNL     1      28.410   9.117  48.299  1.00  0.00     0.096 A 
HETATM    2  C3  UNL     1      29.202  10.127  47.984  1.00  0.00     0.068 A 
HETATM    3  C4  UNL     1      30.643   9.950  47.865  1.00  0.00     0.060 A 
HETATM    4  N1  UNL     1      31.072  11.128  47.478  1.00  0.00    -0.270 NA
HETATM    5  C5  UNL     1      32.403  11.675  47.163  1.00  0.00     0.298 C 
HETATM    6  N2  UNL     1      32.817  11.243  45.837  1.00  0.00    -0.265 NA
HETATM    7  C6  UNL     1      32.543  10.110  45.268  1.00  0.00     0.098 C 
HETATM    8  C7  UNL     1      32.688   8.996  45.970  1.00  0.00     0.126 C 
HETATM    9  N3  UNL     1      32.278   8.292  47.157  1.00  0.00    -0.340 N 
HETATM   10  C15 UNL     1      31.323   8.675  48.133  1.00  0.00     0.166 A 
HETATM   11  C16 UNL     1      30.277   7.683  48.453  1.00  0.00     0.037 A 
HETATM   12  C17 UNL     1      28.968   7.797  48.549  1.00  0.00     0.067 A 
ENDROOT
BRANCH  12  13
HETATM   13  N4  UNL     1      28.024   6.793  48.866  1.00  0.00    -0.321 N 
HETATM   14  C18 UNL     1      28.134   5.406  48.628  1.00  0.00     0.245 C 
HETATM   15  O2  UNL     1      29.137   4.901  48.081  1.00  0.00    -0.268 OA
HETATM   16  H16 UNL     1      27.130   7.008  49.322  1.00  0.00     0.169 HD
BRANCH  14  17
HETATM   17  C19 UNL     1      27.156   4.414  48.962  1.00  0.00     0.072 C 
BRANCH  17  18
HETATM   18  C20 UNL     1      26.477   3.647  49.767  1.00  0.00     0.008 C 
BRANCH  18  19
HETATM   19  C21 UNL     1      25.892   2.796  50.815  1.00  0.00     0.299 C 
BRANCH  19  20
HETATM   20  N5  UNL     1      24.439   2.892  50.770  1.00  0.00     0.083 N 
HETATM   21  C22 UNL     1      24.086   4.124  51.409  1.00  0.00     0.309 C 
HETATM   22  C23 UNL     1      23.850   1.722  51.379  1.00  0.00     0.309 C 
ENDBRANCH  19  20
ENDBRANCH  18  19
ENDBRANCH  17  18
ENDBRANCH  14  17
ENDBRANCH  12  13
BRANCH   1  23
HETATM   23  O1  UNL     1      27.062   9.396  48.377  1.00  0.00    -0.354 OA
HETATM   24  C1  UNL     1      26.515  10.683  48.501  1.00  0.00     0.210 C 
ENDBRANCH   1  23
BRANCH   9  25
HETATM   25  C8  UNL     1      32.932   7.046  47.339  1.00  0.00     0.038 A 
HETATM   26  C9  UNL     1      33.851   6.744  48.320  1.00  0.00     0.030 A 
HETATM   27  C10 UNL     1      34.431   5.504  48.451  1.00  0.00     0.012 A 
HETATM   28  C11 UNL     1      34.118   4.476  47.593  1.00  0.00    -0.023 A 
HETATM   29  C12 UNL     1      34.757   3.149  47.752  1.00  0.00     0.051 C 
HETATM   30  C13 UNL     1      33.206   4.724  46.595  1.00  0.00     0.124 A 
HETATM   31  F1  UNL     1      32.924   3.689  45.769  1.00  0.00    -0.205 F 
HETATM   32  C14 UNL     1      32.646   5.986  46.498  1.00  0.00     0.072 A 
ENDBRANCH   9  25
TORSDOF 7
ENDMDL
MODEL 9
REMARK VINA RESULT:      -7.1      2.836      5.672
REMARK  7 active torsions:
REMARK  status: ('A' for Active; 'I' for Inactive)
REMARK    1  A    between atoms: O1_2  and  C2_3 
REMARK    2  A    between atoms: N3_11  and  C8_12 
REMARK    3  A    between atoms: C17_22  and  N4_23 
REMARK       I    between atoms: N4_23  and  C18_24 
REMARK    4  A    between atoms: C18_24  and  C19_26 
REMARK    5  A    between atoms: C19_26  and  C20_27 
REMARK    6  A    between atoms: C20_27  and  C21_28 
REMARK    7  A    between atoms: C21_28  and  N5_29 
ROOT
HETATM    1  C2  UNL     1      26.576   1.249  52.661  1.00  0.00     0.096 A 
HETATM    2  C3  UNL     1      25.905   0.438  53.460  1.00  0.00     0.068 A 
HETATM    3  C4  UNL     1      24.465   0.570  53.637  1.00  0.00     0.060 A 
HETATM    4  N1  UNL     1      24.153  -0.431  54.425  1.00  0.00    -0.270 NA
HETATM    5  C5  UNL     1      22.890  -0.911  55.012  1.00  0.00     0.298 C 
HETATM    6  N2  UNL     1      22.124  -1.642  54.014  1.00  0.00    -0.265 NA
HETATM    7  C6  UNL     1      22.078  -1.399  52.741  1.00  0.00     0.098 C 
HETATM    8  C7  UNL     1      21.920  -0.149  52.337  1.00  0.00     0.126 C 
HETATM    9  N3  UNL     1      22.469   1.182  52.384  1.00  0.00    -0.340 N 
HETATM   10  C15 UNL     1      23.668   1.627  52.998  1.00  0.00     0.166 A 
HETATM   11  C16 UNL     1      24.588   2.410  52.147  1.00  0.00     0.037 A 
HETATM   12  C17 UNL     1      25.885   2.310  51.945  1.00  0.00     0.067 A 
ENDROOT
BRANCH  12  13
HETATM   13  N4  UNL     1      26.705   3.107  51.112  1.00  0.00    -0.321 N 
HETATM   14  C18 UNL     1      26.401   3.591  49.820  1.00  0.00     0.245 C 
HETATM   15  O2  UNL     1      25.314   3.346  49.256  1.00  0.00    -0.268 OA
HETATM   16  H16 UNL     1      27.640   3.415  51.398  1.00  0.00     0.169 HD
BRANCH  14  17
HETATM   17  C19 UNL     1      27.256   4.397  49.001  1.00  0.00     0.072 C 
BRANCH  17  18
HETATM   18  C20 UNL     1      27.761   5.514  48.560  1.00  0.00     0.008 C 
BRANCH  18  19
HETATM   19  C21 UNL     1      28.238   6.717  47.860  1.00  0.00     0.299 C 
BRANCH  19  20
HETATM   20  N5  UNL     1      29.553   7.089  48.367  1.00  0.00     0.083 N 
HETATM   21  C22 UNL     1      29.465   8.458  48.779  1.00  0.00     0.309 C 
HETATM   22  C23 UNL     1      30.557   6.840  47.359  1.00  0.00     0.309 C 
ENDBRANCH  19  20
ENDBRANCH  18  19
ENDBRANCH  17  18
ENDBRANCH  14  17
ENDBRANCH  12  13
BRANCH   1  23
HETATM   23  O1  UNL     1      27.934   1.029  52.564  1.00  0.00    -0.354 OA
HETATM   24  C1  UNL     1      28.808   0.918  53.656  1.00  0.00     0.210 C 
ENDBRANCH   1  23
BRANCH   9  25
HETATM   25  C8  UNL     1      21.683   2.151  51.711  1.00  0.00     0.038 A 
HETATM   26  C9  UNL     1      21.138   3.288  52.266  1.00  0.00     0.030 A 
HETATM   27  C10 UNL     1      20.403   4.199  51.545  1.00  0.00     0.012 A 
HETATM   28  C11 UNL     1      20.166   4.022  50.202  1.00  0.00    -0.023 A 
HETATM   29  C12 UNL     1      19.369   5.015  49.446  1.00  0.00     0.051 C 
HETATM   30  C13 UNL     1      20.688   2.903  49.598  1.00  0.00     0.124 A 
HETATM   31  F1  UNL     1      20.433   2.761  48.275  1.00  0.00    -0.205 F 
HETATM   32  C14 UNL     1      21.422   2.011  50.360  1.00  0.00     0.072 A 
ENDBRANCH   9  25
TORSDOF 7
ENDMDL
