MODEL 1
REMARK VINA RESULT:      -7.3      0.000      0.000
REMARK  4 active torsions:
REMARK  status: ('A' for Active; 'I' for Inactive)
REMARK    1  A    between atoms: C7_7  and  N1_8 
REMARK    2  A    between atoms: N1_8  and  C8_9 
REMARK    3  A    between atoms: C14_16  and  O1_17 
REMARK    4  A    between atoms: C16_19  and  O2_20 
ROOT
HETATM    1  C1  UNL     1      29.506   0.226  53.576  1.00  0.00     0.018 C 
HETATM    2  C2  UNL     1      28.318   0.432  53.437  1.00  0.00    -0.078 C 
HETATM    3  C3  UNL     1      26.910   0.667  53.295  1.00  0.00     0.019 A 
HETATM    4  C4  UNL     1      26.021  -0.393  53.220  1.00  0.00     0.021 A 
HETATM    5  C5  UNL     1      24.668  -0.138  53.083  1.00  0.00     0.004 A 
HETATM    6  C6  UNL     1      24.184   1.151  53.020  1.00  0.00     0.029 A 
HETATM    7  C7  UNL     1      25.067   2.213  53.094  1.00  0.00     0.033 A 
HETATM    8  C18 UNL     1      26.434   1.962  53.233  1.00  0.00     0.050 A 
ENDROOT
BRANCH   7   9
HETATM    9  N1  UNL     1      24.630   3.567  53.036  1.00  0.00    -0.357 N 
HETATM   10  H5  UNL     1      25.208   4.054  53.771  1.00  0.00     0.166 HD
BRANCH   9  11
HETATM   11  C8  UNL     1      23.643   4.112  52.175  1.00  0.00     0.052 A 
HETATM   12  C9  UNL     1      22.440   4.280  52.705  1.00  0.00     0.047 A 
HETATM   13  C10 UNL     1      21.688   4.840  51.589  1.00  0.00     0.114 A 
HETATM   14  N2  UNL     1      22.351   4.998  50.498  1.00  0.00    -0.273 NA
HETATM   15  C11 UNL     1      23.707   4.531  50.786  1.00  0.00     0.164 A 
HETATM   16  C12 UNL     1      24.118   3.464  49.844  1.00  0.00     0.022 A 
HETATM   17  C16 UNL     1      24.699   5.594  50.497  1.00  0.00     0.119 A 
HETATM   18  C13 UNL     1      25.170   3.845  49.131  1.00  0.00     0.038 A 
HETATM   19  C14 UNL     1      25.538   5.203  49.548  1.00  0.00     0.100 A 
BRANCH  19  20
HETATM   20  O1  UNL     1      26.630   5.749  48.890  1.00  0.00    -0.353 OA
HETATM   21  C15 UNL     1      27.810   5.046  48.583  1.00  0.00     0.210 C 
ENDBRANCH  19  20
BRANCH  17  22
HETATM   22  O2  UNL     1      24.920   6.867  50.996  1.00  0.00    -0.354 OA
HETATM   23  C17 UNL     1      24.344   8.028  50.429  1.00  0.00     0.209 C 
ENDBRANCH  17  22
ENDBRANCH   9  11
ENDBRANCH   7   9
TORSDOF 4
ENDMDL
MODEL 2
REMARK VINA RESULT:      -7.3      2.497      4.494
REMARK  4 active torsions:
REMARK  status: ('A' for Active; 'I' for Inactive)
REMARK    1  A    between atoms: C7_7  and  N1_8 
REMARK    2  A    between atoms: N1_8  and  C8_9 
REMARK    3  A    between atoms: C14_16  and  O1_17 
REMARK    4  A    between atoms: C16_19  and  O2_20 
ROOT
HETATM    1  C1  UNL     1      22.655  -1.240  54.837  1.00  0.00     0.018 C 
HETATM    2  C2  UNL     1      23.535  -0.713  54.186  1.00  0.00    -0.078 C 
HETATM    3  C3  UNL     1      24.569  -0.105  53.399  1.00  0.00     0.019 A 
HETATM    4  C4  UNL     1      25.645  -0.851  52.947  1.00  0.00     0.021 A 
HETATM    5  C5  UNL     1      26.628  -0.240  52.189  1.00  0.00     0.004 A 
HETATM    6  C6  UNL     1      26.559   1.100  51.873  1.00  0.00     0.029 A 
HETATM    7  C7  UNL     1      25.487   1.850  52.321  1.00  0.00     0.033 A 
HETATM    8  C18 UNL     1      24.491   1.238  53.086  1.00  0.00     0.050 A 
ENDROOT
BRANCH   7   9
HETATM    9  N1  UNL     1      25.357   3.237  52.027  1.00  0.00    -0.357 N 
HETATM   10  H5  UNL     1      25.875   3.714  52.812  1.00  0.00     0.166 HD
BRANCH   9  11
HETATM   11  C8  UNL     1      24.681   3.820  50.924  1.00  0.00     0.052 A 
HETATM   12  C9  UNL     1      25.450   4.253  49.936  1.00  0.00     0.047 A 
HETATM   13  C10 UNL     1      24.471   4.779  48.992  1.00  0.00     0.114 A 
HETATM   14  N2  UNL     1      23.241   4.680  49.358  1.00  0.00    -0.273 NA
HETATM   15  C11 UNL     1      23.267   4.035  50.671  1.00  0.00     0.164 A 
HETATM   16  C12 UNL     1      22.584   4.865  51.690  1.00  0.00     0.022 A 
HETATM   17  C16 UNL     1      22.436   2.807  50.667  1.00  0.00     0.119 A 
HETATM   18  C13 UNL     1      21.535   4.226  52.190  1.00  0.00     0.038 A 
HETATM   19  C14 UNL     1      21.443   2.915  51.538  1.00  0.00     0.100 A 
BRANCH  19  20
HETATM   20  O1  UNL     1      20.388   2.118  51.956  1.00  0.00    -0.353 OA
HETATM   21  C15 UNL     1      20.475   1.151  52.975  1.00  0.00     0.210 C 
ENDBRANCH  19  20
BRANCH  17  22
HETATM   22  O2  UNL     1      22.484   1.615  49.965  1.00  0.00    -0.354 OA
HETATM   23  C17 UNL     1      21.745   1.387  48.781  1.00  0.00     0.209 C 
ENDBRANCH  17  22
ENDBRANCH   9  11
ENDBRANCH   7   9
TORSDOF 4
ENDMDL
MODEL 3
REMARK VINA RESULT:      -7.1      3.563      4.740
REMARK  4 active torsions:
REMARK  status: ('A' for Active; 'I' for Inactive)
REMARK    1  A    between atoms: C7_7  and  N1_8 
REMARK    2  A    between atoms: N1_8  and  C8_9 
REMARK    3  A    between atoms: C14_16  and  O1_17 
REMARK    4  A    between atoms: C16_19  and  O2_20 
ROOT
HETATM    1  C1  UNL     1      26.994  -1.820  52.591  1.00  0.00     0.018 C 
HETATM    2  C2  UNL     1      26.202  -0.904  52.676  1.00  0.00    -0.078 C 
HETATM    3  C3  UNL     1      25.266   0.181  52.753  1.00  0.00     0.019 A 
HETATM    4  C4  UNL     1      25.645   1.467  52.402  1.00  0.00     0.021 A 
HETATM    5  C5  UNL     1      24.723   2.495  52.485  1.00  0.00     0.004 A 
HETATM    6  C6  UNL     1      23.432   2.266  52.912  1.00  0.00     0.029 A 
HETATM    7  C7  UNL     1      23.048   0.986  53.262  1.00  0.00     0.033 A 
HETATM    8  C18 UNL     1      23.975  -0.057  53.180  1.00  0.00     0.050 A 
ENDROOT
BRANCH   7   9
HETATM    9  N1  UNL     1      21.730   0.685  53.709  1.00  0.00    -0.357 N 
HETATM   10  H5  UNL     1      21.794   0.753  54.759  1.00  0.00     0.166 HD
BRANCH   9  11
HETATM   11  C8  UNL     1      20.605   0.369  52.905  1.00  0.00     0.052 A 
HETATM   12  C9  UNL     1      19.720  -0.457  53.444  1.00  0.00     0.047 A 
HETATM   13  C10 UNL     1      18.721  -0.570  52.388  1.00  0.00     0.114 A 
HETATM   14  N2  UNL     1      18.964   0.109  51.322  1.00  0.00    -0.273 NA
HETATM   15  C11 UNL     1      20.233   0.793  51.566  1.00  0.00     0.164 A 
HETATM   16  C12 UNL     1      21.230   0.462  50.521  1.00  0.00     0.022 A 
HETATM   17  C16 UNL     1      20.080   2.257  51.392  1.00  0.00     0.119 A 
HETATM   18  C13 UNL     1      21.592   1.551  49.856  1.00  0.00     0.038 A 
HETATM   19  C14 UNL     1      20.859   2.693  50.412  1.00  0.00     0.100 A 
BRANCH  19  20
HETATM   20  O1  UNL     1      21.129   3.917  49.817  1.00  0.00    -0.353 OA
HETATM   21  C15 UNL     1      22.306   4.661  50.025  1.00  0.00     0.210 C 
ENDBRANCH  19  20
BRANCH  17  22
HETATM   22  O2  UNL     1      19.318   3.227  52.021  1.00  0.00    -0.354 OA
HETATM   23  C17 UNL     1      18.066   3.664  51.527  1.00  0.00     0.209 C 
ENDBRANCH  17  22
ENDBRANCH   9  11
ENDBRANCH   7   9
TORSDOF 4
ENDMDL
MODEL 4
REMARK VINA RESULT:      -7.1      2.744      3.907
REMARK  4 active torsions:
REMARK  status: ('A' for Active; 'I' for Inactive)
REMARK    1  A    between atoms: C7_7  and  N1_8 
REMARK    2  A    between atoms: N1_8  and  C8_9 
REMARK    3  A    between atoms: C14_16  and  O1_17 
REMARK    4  A    between atoms: C16_19  and  O2_20 
ROOT
HETATM    1  C1  UNL     1      29.618  -1.572  53.426  1.00  0.00     0.018 C 
HETATM    2  C2  UNL     1      28.625  -0.874  53.439  1.00  0.00    -0.078 C 
HETATM    3  C3  UNL     1      27.459  -0.037  53.434  1.00  0.00     0.019 A 
HETATM    4  C4  UNL     1      27.559   1.314  53.727  1.00  0.00     0.021 A 
HETATM    5  C5  UNL     1      26.419   2.098  53.716  1.00  0.00     0.004 A 
HETATM    6  C6  UNL     1      25.184   1.563  53.418  1.00  0.00     0.029 A 
HETATM    7  C7  UNL     1      25.079   0.217  53.124  1.00  0.00     0.033 A 
HETATM    8  C18 UNL     1      26.226  -0.581  53.134  1.00  0.00     0.050 A 
ENDROOT
BRANCH   7   9
HETATM    9  N1  UNL     1      23.833  -0.395  52.808  1.00  0.00    -0.357 N 
HETATM   10  H5  UNL     1      24.104  -1.296  52.332  1.00  0.00     0.166 HD
BRANCH   9  11
HETATM   11  C8  UNL     1      22.536   0.111  53.082  1.00  0.00     0.052 A 
HETATM   12  C9  UNL     1      22.073  -0.111  54.303  1.00  0.00     0.047 A 
HETATM   13  C10 UNL     1      20.758   0.518  54.252  1.00  0.00     0.114 A 
HETATM   14  N2  UNL     1      20.450   1.064  53.129  1.00  0.00    -0.273 NA
HETATM   15  C11 UNL     1      21.598   0.845  52.251  1.00  0.00     0.164 A 
HETATM   16  C12 UNL     1      21.199   0.139  51.011  1.00  0.00     0.022 A 
HETATM   17  C16 UNL     1      22.105   2.133  51.721  1.00  0.00     0.119 A 
HETATM   18  C13 UNL     1      21.434   0.893  49.944  1.00  0.00     0.038 A 
HETATM   19  C14 UNL     1      22.012   2.162  50.399  1.00  0.00     0.100 A 
BRANCH  19  20
HETATM   20  O1  UNL     1      22.317   3.068  49.393  1.00  0.00    -0.353 OA
HETATM   21  C15 UNL     1      23.624   3.421  49.009  1.00  0.00     0.210 C 
ENDBRANCH  19  20
BRANCH  17  22
HETATM   22  O2  UNL     1      22.636   3.272  52.304  1.00  0.00    -0.354 OA
HETATM   23  C17 UNL     1      21.953   4.509  52.341  1.00  0.00     0.209 C 
ENDBRANCH  17  22
ENDBRANCH   9  11
ENDBRANCH   7   9
TORSDOF 4
ENDMDL
MODEL 5
REMARK VINA RESULT:      -6.9      3.448      4.830
REMARK  4 active torsions:
REMARK  status: ('A' for Active; 'I' for Inactive)
REMARK    1  A    between atoms: C7_7  and  N1_8 
REMARK    2  A    between atoms: N1_8  and  C8_9 
REMARK    3  A    between atoms: C14_16  and  O1_17 
REMARK    4  A    between atoms: C16_19  and  O2_20 
ROOT
HETATM    1  C1  UNL     1      26.601   3.564  49.807  1.00  0.00     0.018 C 
HETATM    2  C2  UNL     1      26.147   2.746  50.582  1.00  0.00    -0.078 C 
HETATM    3  C3  UNL     1      25.628   1.786  51.513  1.00  0.00     0.019 A 
HETATM    4  C4  UNL     1      26.375   0.676  51.873  1.00  0.00     0.021 A 
HETATM    5  C5  UNL     1      25.850  -0.235  52.773  1.00  0.00     0.004 A 
HETATM    6  C6  UNL     1      24.597  -0.060  53.320  1.00  0.00     0.029 A 
HETATM    7  C7  UNL     1      23.848   1.046  52.965  1.00  0.00     0.033 A 
HETATM    8  C18 UNL     1      24.372   1.969  52.057  1.00  0.00     0.050 A 
ENDROOT
BRANCH   7   9
HETATM    9  N1  UNL     1      22.548   1.283  53.496  1.00  0.00    -0.357 N 
HETATM   10  H5  UNL     1      22.710   1.985  54.265  1.00  0.00     0.166 HD
BRANCH   9  11
HETATM   11  C8  UNL     1      21.328   0.697  53.069  1.00  0.00     0.052 A 
HETATM   12  C9  UNL     1      20.716  -0.076  53.954  1.00  0.00     0.047 A 
HETATM   13  C10 UNL     1      19.532  -0.507  53.218  1.00  0.00     0.114 A 
HETATM   14  N2  UNL     1      19.429  -0.050  52.020  1.00  0.00    -0.273 NA
HETATM   15  C11 UNL     1      20.609   0.789  51.811  1.00  0.00     0.164 A 
HETATM   16  C12 UNL     1      21.383   0.341  50.630  1.00  0.00     0.022 A 
HETATM   17  C16 UNL     1      20.211   2.161  51.414  1.00  0.00     0.119 A 
HETATM   18  C13 UNL     1      21.426   1.293  49.707  1.00  0.00     0.038 A 
HETATM   19  C14 UNL     1      20.679   2.451  50.208  1.00  0.00     0.100 A 
BRANCH  19  20
HETATM   20  O1  UNL     1      20.630   3.541  49.352  1.00  0.00    -0.353 OA
HETATM   21  C15 UNL     1      21.358   4.731  49.533  1.00  0.00     0.210 C 
ENDBRANCH  19  20
BRANCH  17  22
HETATM   22  O2  UNL     1      19.478   3.165  52.024  1.00  0.00    -0.354 OA
HETATM   23  C17 UNL     1      18.133   3.449  51.689  1.00  0.00     0.209 C 
ENDBRANCH  17  22
ENDBRANCH   9  11
ENDBRANCH   7   9
TORSDOF 4
ENDMDL
MODEL 6
REMARK VINA RESULT:      -6.9      2.322      3.997
REMARK  4 active torsions:
REMARK  status: ('A' for Active; 'I' for Inactive)
REMARK    1  A    between atoms: C7_7  and  N1_8 
REMARK    2  A    between atoms: N1_8  and  C8_9 
REMARK    3  A    between atoms: C14_16  and  O1_17 
REMARK    4  A    between atoms: C16_19  and  O2_20 
ROOT
HETATM    1  C1  UNL     1      29.529  -0.828  53.759  1.00  0.00     0.018 C 
HETATM    2  C2  UNL     1      28.382  -0.473  53.577  1.00  0.00    -0.078 C 
HETATM    3  C3  UNL     1      27.022  -0.057  53.384  1.00  0.00     0.019 A 
HETATM    4  C4  UNL     1      25.981  -0.961  53.522  1.00  0.00     0.021 A 
HETATM    5  C5  UNL     1      24.679  -0.534  53.332  1.00  0.00     0.004 A 
HETATM    6  C6  UNL     1      24.395   0.775  53.006  1.00  0.00     0.029 A 
HETATM    7  C7  UNL     1      25.430   1.681  52.868  1.00  0.00     0.033 A 
HETATM    8  C18 UNL     1      26.747   1.256  53.059  1.00  0.00     0.050 A 
ENDROOT
BRANCH   7   9
HETATM    9  N1  UNL     1      25.202   3.046  52.534  1.00  0.00    -0.357 N 
HETATM   10  H5  UNL     1      25.434   3.568  53.420  1.00  0.00     0.166 HD
BRANCH   9  11
HETATM   11  C8  UNL     1      24.764   3.562  51.287  1.00  0.00     0.052 A 
HETATM   12  C9  UNL     1      25.701   3.726  50.365  1.00  0.00     0.047 A 
HETATM   13  C10 UNL     1      24.937   4.255  49.241  1.00  0.00     0.114 A 
HETATM   14  N2  UNL     1      23.676   4.400  49.449  1.00  0.00    -0.273 NA
HETATM   15  C11 UNL     1      23.444   3.954  50.822  1.00  0.00     0.164 A 
HETATM   16  C12 UNL     1      22.803   5.017  51.630  1.00  0.00     0.022 A 
HETATM   17  C16 UNL     1      22.422   2.882  50.859  1.00  0.00     0.119 A 
HETATM   18  C13 UNL     1      21.611   4.626  52.061  1.00  0.00     0.038 A 
HETATM   19  C14 UNL     1      21.370   3.265  51.569  1.00  0.00     0.100 A 
BRANCH  19  20
HETATM   20  O1  UNL     1      20.154   2.708  51.937  1.00  0.00    -0.353 OA
HETATM   21  C15 UNL     1      18.900   3.162  51.487  1.00  0.00     0.210 C 
ENDBRANCH  19  20
BRANCH  17  22
HETATM   22  O2  UNL     1      22.343   1.607  50.322  1.00  0.00    -0.354 OA
HETATM   23  C17 UNL     1      21.700   1.326  49.095  1.00  0.00     0.209 C 
ENDBRANCH  17  22
ENDBRANCH   9  11
ENDBRANCH   7   9
TORSDOF 4
ENDMDL
MODEL 7
REMARK VINA RESULT:      -6.8      2.574      3.261
REMARK  4 active torsions:
REMARK  status: ('A' for Active; 'I' for Inactive)
REMARK    1  A    between atoms: C7_7  and  N1_8 
REMARK    2  A    between atoms: N1_8  and  C8_9 
REMARK    3  A    between atoms: C14_16  and  O1_17 
REMARK    4  A    between atoms: C16_19  and  O2_20 
ROOT
HETATM    1  C1  UNL     1      27.168   0.144  54.448  1.00  0.00     0.018 C 
HETATM    2  C2  UNL     1      25.993  -0.150  54.374  1.00  0.00    -0.078 C 
HETATM    3  C3  UNL     1      24.599  -0.483  54.305  1.00  0.00     0.019 A 
HETATM    4  C4  UNL     1      23.992  -1.198  55.325  1.00  0.00     0.021 A 
HETATM    5  C5  UNL     1      22.646  -1.506  55.234  1.00  0.00     0.004 A 
HETATM    6  C6  UNL     1      21.895  -1.116  54.147  1.00  0.00     0.029 A 
HETATM    7  C7  UNL     1      22.494  -0.402  53.126  1.00  0.00     0.033 A 
HETATM    8  C18 UNL     1      23.853  -0.087  53.213  1.00  0.00     0.050 A 
ENDROOT
BRANCH   7   9
HETATM    9  N1  UNL     1      21.772   0.031  51.978  1.00  0.00    -0.357 N 
HETATM   10  H5  UNL     1      21.757  -0.817  51.351  1.00  0.00     0.166 HD
BRANCH   9  11
HETATM   11  C8  UNL     1      21.211   1.314  51.752  1.00  0.00     0.052 A 
HETATM   12  C9  UNL     1      20.041   1.546  52.329  1.00  0.00     0.047 A 
HETATM   13  C10 UNL     1      19.755   2.912  51.907  1.00  0.00     0.114 A 
HETATM   14  N2  UNL     1      20.647   3.458  51.158  1.00  0.00    -0.273 NA
HETATM   15  C11 UNL     1      21.693   2.450  50.986  1.00  0.00     0.164 A 
HETATM   16  C12 UNL     1      21.931   2.163  49.552  1.00  0.00     0.022 A 
HETATM   17  C16 UNL     1      23.008   2.984  51.414  1.00  0.00     0.119 A 
HETATM   18  C13 UNL     1      23.174   2.478  49.209  1.00  0.00     0.038 A 
HETATM   19  C14 UNL     1      23.858   3.000  50.397  1.00  0.00     0.100 A 
BRANCH  19  20
HETATM   20  O1  UNL     1      25.179   3.377  50.202  1.00  0.00    -0.353 OA
HETATM   21  C15 UNL     1      26.290   2.681  50.714  1.00  0.00     0.210 C 
ENDBRANCH  19  20
BRANCH  17  22
HETATM   22  O2  UNL     1      23.512   3.452  52.616  1.00  0.00    -0.354 OA
HETATM   23  C17 UNL     1      23.522   4.822  52.967  1.00  0.00     0.209 C 
ENDBRANCH  17  22
ENDBRANCH   9  11
ENDBRANCH   7   9
TORSDOF 4
ENDMDL
MODEL 8
REMARK VINA RESULT:      -6.7      2.078      2.941
REMARK  4 active torsions:
REMARK  status: ('A' for Active; 'I' for Inactive)
REMARK    1  A    between atoms: C7_7  and  N1_8 
REMARK    2  A    between atoms: N1_8  and  C8_9 
REMARK    3  A    between atoms: C14_16  and  O1_17 
REMARK    4  A    between atoms: C16_19  and  O2_20 
ROOT
HETATM    1  C1  UNL     1      27.285  -0.859  52.927  1.00  0.00     0.018 C 
HETATM    2  C2  UNL     1      26.116  -0.547  53.030  1.00  0.00    -0.078 C 
HETATM    3  C3  UNL     1      24.739  -0.170  53.173  1.00  0.00     0.019 A 
HETATM    4  C4  UNL     1      23.931  -0.790  54.112  1.00  0.00     0.021 A 
HETATM    5  C5  UNL     1      22.607  -0.407  54.230  1.00  0.00     0.004 A 
HETATM    6  C6  UNL     1      22.073   0.581  53.430  1.00  0.00     0.029 A 
HETATM    7  C7  UNL     1      22.875   1.203  52.491  1.00  0.00     0.033 A 
HETATM    8  C18 UNL     1      24.213   0.821  52.368  1.00  0.00     0.050 A 
ENDROOT
BRANCH   7   9
HETATM    9  N1  UNL     1      22.384   2.230  51.636  1.00  0.00    -0.357 N 
HETATM   10  H5  UNL     1      22.022   2.965  52.300  1.00  0.00     0.166 HD
BRANCH   9  11
HETATM   11  C8  UNL     1      22.392   2.241  50.217  1.00  0.00     0.052 A 
HETATM   12  C9  UNL     1      21.658   1.309  49.626  1.00  0.00     0.047 A 
HETATM   13  C10 UNL     1      21.882   1.592  48.213  1.00  0.00     0.114 A 
HETATM   14  N2  UNL     1      22.663   2.584  47.965  1.00  0.00    -0.273 NA
HETATM   15  C11 UNL     1      23.073   3.105  49.269  1.00  0.00     0.164 A 
HETATM   16  C12 UNL     1      24.548   3.117  49.403  1.00  0.00     0.022 A 
HETATM   17  C16 UNL     1      22.742   4.546  49.384  1.00  0.00     0.119 A 
HETATM   18  C13 UNL     1      24.995   4.355  49.567  1.00  0.00     0.038 A 
HETATM   19  C14 UNL     1      23.844   5.263  49.554  1.00  0.00     0.100 A 
BRANCH  19  20
HETATM   20  O1  UNL     1      24.147   6.607  49.716  1.00  0.00    -0.353 OA
HETATM   21  C15 UNL     1      25.247   7.094  50.446  1.00  0.00     0.210 C 
ENDBRANCH  19  20
BRANCH  17  22
HETATM   22  O2  UNL     1      21.562   5.268  49.349  1.00  0.00    -0.354 OA
HETATM   23  C17 UNL     1      20.763   5.495  50.494  1.00  0.00     0.209 C 
ENDBRANCH  17  22
ENDBRANCH   9  11
ENDBRANCH   7   9
TORSDOF 4
ENDMDL
MODEL 9
REMARK VINA RESULT:      -6.7      1.450      1.708
REMARK  4 active torsions:
REMARK  status: ('A' for Active; 'I' for Inactive)
REMARK    1  A    between atoms: C7_7  and  N1_8 
REMARK    2  A    between atoms: N1_8  and  C8_9 
REMARK    3  A    between atoms: C14_16  and  O1_17 
REMARK    4  A    between atoms: C16_19  and  O2_20 
ROOT
HETATM    1  C1  UNL     1      29.699  -0.382  53.466  1.00  0.00     0.018 C 
HETATM    2  C2  UNL     1      28.515  -0.123  53.390  1.00  0.00    -0.078 C 
HETATM    3  C3  UNL     1      27.115   0.185  53.324  1.00  0.00     0.019 A 
HETATM    4  C4  UNL     1      26.172  -0.711  53.803  1.00  0.00     0.021 A 
HETATM    5  C5  UNL     1      24.828  -0.390  53.728  1.00  0.00     0.004 A 
HETATM    6  C6  UNL     1      24.407   0.805  53.184  1.00  0.00     0.029 A 
HETATM    7  C7  UNL     1      25.343   1.702  52.705  1.00  0.00     0.033 A 
HETATM    8  C18 UNL     1      26.701   1.384  52.779  1.00  0.00     0.050 A 
ENDROOT
BRANCH   7   9
HETATM    9  N1  UNL     1      24.972   2.952  52.133  1.00  0.00    -0.357 N 
HETATM   10  H5  UNL     1      25.282   3.662  52.848  1.00  0.00     0.166 HD
BRANCH   9  11
HETATM   11  C8  UNL     1      24.333   3.167  50.885  1.00  0.00     0.052 A 
HETATM   12  C9  UNL     1      23.296   2.387  50.622  1.00  0.00     0.047 A 
HETATM   13  C10 UNL     1      22.885   2.855  49.303  1.00  0.00     0.114 A 
HETATM   14  N2  UNL     1      23.589   3.813  48.812  1.00  0.00    -0.273 NA
HETATM   15  C11 UNL     1      24.613   4.108  49.814  1.00  0.00     0.164 A 
HETATM   16  C12 UNL     1      25.974   3.994  49.240  1.00  0.00     0.022 A 
HETATM   17  C16 UNL     1      24.564   5.537  50.206  1.00  0.00     0.119 A 
HETATM   18  C13 UNL     1      26.605   5.160  49.292  1.00  0.00     0.038 A 
HETATM   19  C14 UNL     1      25.705   6.141  49.907  1.00  0.00     0.100 A 
BRANCH  19  20
HETATM   20  O1  UNL     1      26.223   7.422  50.034  1.00  0.00    -0.353 OA
HETATM   21  C15 UNL     1      27.136   8.006  49.136  1.00  0.00     0.210 C 
ENDBRANCH  19  20
BRANCH  17  22
HETATM   22  O2  UNL     1      23.604   6.341  50.799  1.00  0.00    -0.354 OA
HETATM   23  C17 UNL     1      22.534   6.922  50.079  1.00  0.00     0.209 C 
ENDBRANCH  17  22
ENDBRANCH   9  11
ENDBRANCH   7   9
TORSDOF 4
ENDMDL
