MODEL 1
REMARK VINA RESULT:      -7.2      0.000      0.000
REMARK  2 active torsions:
REMARK  status: ('A' for Active; 'I' for Inactive)
REMARK    1  A    between atoms: C2_2  and  C3_3 
REMARK    2  A    between atoms: C12_16  and  N3_17 
ROOT
HETATM    1  C3  UNL     1      22.959   3.508  50.588  1.00  0.00     0.091 C 
HETATM    2  C4  UNL     1      21.939   2.957  51.680  1.00  0.00     0.069 C 
HETATM    3  C5  UNL     1      20.663   3.692  51.507  1.00  0.00     0.206 C 
HETATM    4  O1  UNL     1      19.664   3.410  52.516  1.00  0.00    -0.259 OA
HETATM    5  N1  UNL     1      18.350   3.399  52.019  1.00  0.00    -0.151 NA
HETATM    6  C6  UNL     1      18.112   4.054  50.909  1.00  0.00     0.264 A 
HETATM    7  C7  UNL     1      17.974   4.837  49.643  1.00  0.00     0.036 A 
HETATM    8 CL1  UNL     1      16.352   4.159  49.916  1.00  0.00    -0.149 Cl
HETATM    9  C8  UNL     1      18.453   5.640  48.636  1.00  0.00     0.004 C 
HETATM   10  C9  UNL     1      19.818   5.789  49.071  1.00  0.00     0.045 C 
HETATM   11  C10 UNL     1      20.931   6.364  48.710  1.00  0.00     0.010 C 
HETATM   12  C11 UNL     1      22.245   6.397  49.313  1.00  0.00     0.041 C 
HETATM   13  N2  UNL     1      22.416   7.381  50.288  1.00  0.00    -0.268 NA
HETATM   14  C12 UNL     1      23.970   7.660  50.239  1.00  0.00     0.211 C 
HETATM   15  C13 UNL     1      24.402   6.294  49.824  1.00  0.00     0.043 A 
HETATM   16  C14 UNL     1      24.829   5.402  48.963  1.00  0.00     0.026 A 
HETATM   17  C15 UNL     1      23.341   5.532  48.747  1.00  0.00     0.059 A 
HETATM   18  C16 UNL     1      22.675   4.433  48.240  1.00  0.00     0.139 C 
HETATM   19  O2  UNL     1      22.356   4.269  46.907  1.00  0.00    -0.371 OA
HETATM   20  C17 UNL     1      22.006   2.987  46.422  1.00  0.00     0.195 C 
HETATM   21  C18 UNL     1      21.991   1.934  47.478  1.00  0.00     0.194 C 
HETATM   22  O3  UNL     1      22.742   2.176  48.597  1.00  0.00    -0.378 OA
HETATM   23  C19 UNL     1      22.282   3.340  49.273  1.00  0.00     0.195 C 
HETATM   24  C20 UNL     1      24.065   5.624  51.227  1.00  0.00     0.184 C 
HETATM   25  O4  UNL     1      23.151   4.721  51.039  1.00  0.00    -0.376 OA
ENDROOT
BRANCH  14  26
HETATM   26  N3  UNL     1      24.263   8.117  51.501  1.00  0.00    -0.408 N 
HETATM   27  H15 UNL     1      23.712   7.774  52.313  1.00  0.00     0.152 HD
HETATM   28  H16 UNL     1      25.262   8.137  51.796  1.00  0.00     0.152 HD
ENDBRANCH  14  26
BRANCH   1  29
HETATM   29  C2  UNL     1      24.008   2.433  50.745  1.00  0.00     0.036 C 
HETATM   30  C1  UNL     1      24.015   1.525  51.885  1.00  0.00     0.008 C 
ENDBRANCH   1  29
TORSDOF 2
ENDMDL
MODEL 2
REMARK VINA RESULT:      -7.0     10.034     12.328
REMARK  2 active torsions:
REMARK  status: ('A' for Active; 'I' for Inactive)
REMARK    1  A    between atoms: C2_2  and  C3_3 
REMARK    2  A    between atoms: C12_16  and  N3_17 
ROOT
HETATM    1  C3  UNL     1      33.175   6.721  44.958  1.00  0.00     0.091 C 
HETATM    2  C4  UNL     1      32.018   7.535  44.225  1.00  0.00     0.069 C 
HETATM    3  C5  UNL     1      30.976   7.835  45.236  1.00  0.00     0.206 C 
HETATM    4  O1  UNL     1      29.781   8.455  44.704  1.00  0.00    -0.259 OA
HETATM    5  N1  UNL     1      29.207   9.404  45.566  1.00  0.00    -0.151 NA
HETATM    6  C6  UNL     1      29.483   9.313  46.844  1.00  0.00     0.264 A 
HETATM    7  C7  UNL     1      29.875   9.097  48.271  1.00  0.00     0.036 A 
HETATM    8 CL1  UNL     1      28.873  10.568  48.310  1.00  0.00    -0.149 Cl
HETATM    9  C8  UNL     1      30.513   8.420  49.282  1.00  0.00     0.004 C 
HETATM   10  C9  UNL     1      31.106   7.349  48.522  1.00  0.00     0.045 C 
HETATM   11  C10 UNL     1      31.859   6.297  48.684  1.00  0.00     0.010 C 
HETATM   12  C11 UNL     1      32.357   5.309  47.755  1.00  0.00     0.041 C 
HETATM   13  N2  UNL     1      31.479   4.255  47.495  1.00  0.00    -0.268 NA
HETATM   14  C12 UNL     1      32.451   3.075  47.097  1.00  0.00     0.211 C 
HETATM   15  C13 UNL     1      33.537   3.907  46.501  1.00  0.00     0.043 A 
HETATM   16  C14 UNL     1      34.712   4.488  46.500  1.00  0.00     0.026 A 
HETATM   17  C15 UNL     1      33.790   5.381  47.295  1.00  0.00     0.059 A 
HETATM   18  C16 UNL     1      34.086   6.731  47.328  1.00  0.00     0.139 C 
HETATM   19  O2  UNL     1      34.767   7.348  48.358  1.00  0.00    -0.371 OA
HETATM   20  C17 UNL     1      35.335   8.628  48.156  1.00  0.00     0.195 C 
HETATM   21  C18 UNL     1      35.078   9.186  46.798  1.00  0.00     0.194 C 
HETATM   22  O3  UNL     1      34.792   8.285  45.808  1.00  0.00    -0.378 OA
HETATM   23  C19 UNL     1      33.604   7.563  46.108  1.00  0.00     0.195 C 
HETATM   24  C20 UNL     1      32.695   4.310  45.213  1.00  0.00     0.184 C 
HETATM   25  O4  UNL     1      32.547   5.599  45.208  1.00  0.00    -0.376 OA
ENDROOT
BRANCH  14  26
HETATM   26  N3  UNL     1      31.681   2.273  46.289  1.00  0.00    -0.408 N 
HETATM   27  H15 UNL     1      31.556   1.270  46.530  1.00  0.00     0.152 HD
HETATM   28  H16 UNL     1      30.753   2.632  45.983  1.00  0.00     0.152 HD
ENDBRANCH  14  26
BRANCH   1  29
HETATM   29  C2  UNL     1      34.206   6.820  43.860  1.00  0.00     0.036 C 
HETATM   30  C1  UNL     1      33.838   6.752  42.451  1.00  0.00     0.008 C 
ENDBRANCH   1  29
TORSDOF 2
ENDMDL
MODEL 3
REMARK VINA RESULT:      -7.0      9.809     12.224
REMARK  2 active torsions:
REMARK  status: ('A' for Active; 'I' for Inactive)
REMARK    1  A    between atoms: C2_2  and  C3_3 
REMARK    2  A    between atoms: C12_16  and  N3_17 
ROOT
HETATM    1  C3  UNL     1      33.085   9.266  47.108  1.00  0.00     0.091 C 
HETATM    2  C4  UNL     1      34.386   8.774  47.886  1.00  0.00     0.069 C 
HETATM    3  C5  UNL     1      34.175   7.353  48.251  1.00  0.00     0.206 C 
HETATM    4  O1  UNL     1      35.210   6.787  49.090  1.00  0.00    -0.259 OA
HETATM    5  N1  UNL     1      35.488   5.439  48.808  1.00  0.00    -0.151 NA
HETATM    6  C6  UNL     1      34.556   4.736  48.211  1.00  0.00     0.264 A 
HETATM    7  C7  UNL     1      33.415   4.048  47.532  1.00  0.00     0.036 A 
HETATM    8 CL1  UNL     1      34.688   2.807  47.611  1.00  0.00    -0.149 Cl
HETATM    9  C8  UNL     1      32.143   3.996  47.015  1.00  0.00     0.004 C 
HETATM   10  C9  UNL     1      31.706   5.338  47.307  1.00  0.00     0.045 C 
HETATM   11  C10 UNL     1      30.667   6.112  47.159  1.00  0.00     0.010 C 
HETATM   12  C11 UNL     1      30.418   7.483  47.543  1.00  0.00     0.041 C 
HETATM   13  N2  UNL     1      29.965   7.650  48.852  1.00  0.00    -0.268 NA
HETATM   14  C12 UNL     1      29.142   8.996  48.773  1.00  0.00     0.211 C 
HETATM   15  C13 UNL     1      29.930   9.644  47.684  1.00  0.00     0.043 A 
HETATM   16  C14 UNL     1      30.136  10.036  46.449  1.00  0.00     0.026 A 
HETATM   17  C15 UNL     1      30.482   8.568  46.499  1.00  0.00     0.059 A 
HETATM   18  C16 UNL     1      31.415   8.105  45.590  1.00  0.00     0.139 C 
HETATM   19  O2  UNL     1      31.092   7.483  44.400  1.00  0.00    -0.371 OA
HETATM   20  C17 UNL     1      32.067   7.367  43.382  1.00  0.00     0.195 C 
HETATM   21  C18 UNL     1      33.395   7.927  43.763  1.00  0.00     0.194 C 
HETATM   22  O3  UNL     1      33.402   8.866  44.758  1.00  0.00    -0.378 OA
HETATM   23  C19 UNL     1      32.904   8.320  45.973  1.00  0.00     0.195 C 
HETATM   24  C20 UNL     1      31.211   9.901  48.590  1.00  0.00     0.184 C 
HETATM   25  O4  UNL     1      32.210   9.246  48.082  1.00  0.00    -0.376 OA
ENDROOT
BRANCH  14  26
HETATM   26  N3  UNL     1      29.203   9.496  50.052  1.00  0.00    -0.408 N 
HETATM   27  H15 UNL     1      29.983   9.213  50.678  1.00  0.00     0.152 HD
HETATM   28  H16 UNL     1      29.060  10.519  50.186  1.00  0.00     0.152 HD
ENDBRANCH  14  26
BRANCH   1  29
HETATM   29  C2  UNL     1      33.652  10.564  46.586  1.00  0.00     0.036 C 
HETATM   30  C1  UNL     1      32.812  11.731  46.348  1.00  0.00     0.008 C 
ENDBRANCH   1  29
TORSDOF 2
ENDMDL
MODEL 4
REMARK VINA RESULT:      -7.0      2.868      5.388
REMARK  2 active torsions:
REMARK  status: ('A' for Active; 'I' for Inactive)
REMARK    1  A    between atoms: C2_2  and  C3_3 
REMARK    2  A    between atoms: C12_16  and  N3_17 
ROOT
HETATM    1  C3  UNL     1      20.926   4.090  50.345  1.00  0.00     0.091 C 
HETATM    2  C4  UNL     1      21.108   5.577  50.888  1.00  0.00     0.069 C 
HETATM    3  C5  UNL     1      22.562   5.866  50.913  1.00  0.00     0.206 C 
HETATM    4  O1  UNL     1      22.914   7.135  51.515  1.00  0.00    -0.259 OA
HETATM    5  N1  UNL     1      24.005   7.768  50.897  1.00  0.00    -0.151 NA
HETATM    6  C6  UNL     1      24.837   7.021  50.215  1.00  0.00     0.264 A 
HETATM    7  C7  UNL     1      25.709   6.059  49.472  1.00  0.00     0.036 A 
HETATM    8 CL1  UNL     1      26.446   7.648  49.159  1.00  0.00    -0.149 Cl
HETATM    9  C8  UNL     1      26.072   4.803  49.048  1.00  0.00     0.004 C 
HETATM   10  C9  UNL     1      25.041   4.024  49.685  1.00  0.00     0.045 C 
HETATM   11  C10 UNL     1      24.642   2.788  49.802  1.00  0.00     0.010 C 
HETATM   12  C11 UNL     1      23.541   2.189  50.522  1.00  0.00     0.041 C 
HETATM   13  N2  UNL     1      23.807   1.901  51.862  1.00  0.00    -0.268 NA
HETATM   14  C12 UNL     1      22.823   0.704  52.168  1.00  0.00     0.211 C 
HETATM   15  C13 UNL     1      21.741   1.089  51.215  1.00  0.00     0.043 A 
HETATM   16  C14 UNL     1      21.059   0.984  50.101  1.00  0.00     0.026 A 
HETATM   17  C15 UNL     1      22.306   1.766  49.770  1.00  0.00     0.059 A 
HETATM   18  C16 UNL     1      22.237   2.654  48.712  1.00  0.00     0.139 C 
HETATM   19  O2  UNL     1      22.671   2.368  47.433  1.00  0.00    -0.371 OA
HETATM   20  C17 UNL     1      22.246   3.174  46.351  1.00  0.00     0.195 C 
HETATM   21  C18 UNL     1      21.368   4.308  46.762  1.00  0.00     0.194 C 
HETATM   22  O3  UNL     1      20.706   4.171  47.952  1.00  0.00    -0.378 OA
HETATM   23  C19 UNL     1      21.624   4.045  49.031  1.00  0.00     0.195 C 
HETATM   24  C20 UNL     1      21.268   2.347  52.064  1.00  0.00     0.184 C 
HETATM   25  O4  UNL     1      21.435   3.414  51.344  1.00  0.00    -0.376 OA
ENDROOT
BRANCH  14  26
HETATM   26  N3  UNL     1      22.606   0.793  53.522  1.00  0.00    -0.408 N 
HETATM   27  H15 UNL     1      23.412   0.928  54.164  1.00  0.00     0.152 HD
HETATM   28  H16 UNL     1      21.842   1.417  53.856  1.00  0.00     0.152 HD
ENDBRANCH  14  26
BRANCH   1  29
HETATM   29  C2  UNL     1      19.435   4.151  50.113  1.00  0.00     0.036 C 
HETATM   30  C1  UNL     1      18.480   3.952  51.195  1.00  0.00     0.008 C 
ENDBRANCH   1  29
TORSDOF 2
ENDMDL
MODEL 5
REMARK VINA RESULT:      -7.0      2.714      4.951
REMARK  2 active torsions:
REMARK  status: ('A' for Active; 'I' for Inactive)
REMARK    1  A    between atoms: C2_2  and  C3_3 
REMARK    2  A    between atoms: C12_16  and  N3_17 
ROOT
HETATM    1  C3  UNL     1      21.093   6.241  49.406  1.00  0.00     0.091 C 
HETATM    2  C4  UNL     1      20.060   5.817  50.542  1.00  0.00     0.069 C 
HETATM    3  C5  UNL     1      20.335   4.402  50.889  1.00  0.00     0.206 C 
HETATM    4  O1  UNL     1      19.389   3.814  51.813  1.00  0.00    -0.259 OA
HETATM    5  N1  UNL     1      19.972   2.908  52.716  1.00  0.00    -0.151 NA
HETATM    6  C6  UNL     1      21.110   2.355  52.374  1.00  0.00     0.264 A 
HETATM    7  C7  UNL     1      22.401   1.796  51.866  1.00  0.00     0.036 A 
HETATM    8 CL1  UNL     1      22.222   1.081  53.486  1.00  0.00    -0.149 Cl
HETATM    9  C8  UNL     1      23.392   1.650  50.926  1.00  0.00     0.004 C 
HETATM   10  C9  UNL     1      22.870   2.501  49.887  1.00  0.00     0.045 C 
HETATM   11  C10 UNL     1      23.168   2.927  48.691  1.00  0.00     0.010 C 
HETATM   12  C11 UNL     1      22.480   3.810  47.777  1.00  0.00     0.041 C 
HETATM   13  N2  UNL     1      21.519   3.190  46.977  1.00  0.00    -0.268 NA
HETATM   14  C12 UNL     1      21.470   4.117  45.700  1.00  0.00     0.211 C 
HETATM   15  C13 UNL     1      21.822   5.400  46.375  1.00  0.00     0.043 A 
HETATM   16  C14 UNL     1      22.632   6.380  46.698  1.00  0.00     0.026 A 
HETATM   17  C15 UNL     1      22.951   5.233  47.626  1.00  0.00     0.059 A 
HETATM   18  C16 UNL     1      23.475   5.547  48.866  1.00  0.00     0.139 C 
HETATM   19  O2  UNL     1      24.822   5.517  49.165  1.00  0.00    -0.371 OA
HETATM   20  C17 UNL     1      25.300   6.183  50.318  1.00  0.00     0.195 C 
HETATM   21  C18 UNL     1      24.223   6.833  51.120  1.00  0.00     0.194 C 
HETATM   22  O3  UNL     1      23.063   7.133  50.459  1.00  0.00    -0.378 OA
HETATM   23  C19 UNL     1      22.447   5.954  49.957  1.00  0.00     0.195 C 
HETATM   24  C20 UNL     1      20.431   5.530  47.134  1.00  0.00     0.184 C 
HETATM   25  O4  UNL     1      20.658   5.510  48.411  1.00  0.00    -0.376 OA
ENDROOT
BRANCH  14  26
HETATM   26  N3  UNL     1      20.201   3.930  45.205  1.00  0.00    -0.408 N 
HETATM   27  H15 UNL     1      19.737   4.696  44.679  1.00  0.00     0.152 HD
HETATM   28  H16 UNL     1      19.999   3.044  44.697  1.00  0.00     0.152 HD
ENDBRANCH  14  26
BRANCH   1  29
HETATM   29  C2  UNL     1      20.841   7.728  49.461  1.00  0.00     0.036 C 
HETATM   30  C1  UNL     1      19.500   8.286  49.344  1.00  0.00     0.008 C 
ENDBRANCH   1  29
TORSDOF 2
ENDMDL
MODEL 6
REMARK VINA RESULT:      -6.8     25.550     28.316
REMARK  2 active torsions:
REMARK  status: ('A' for Active; 'I' for Inactive)
REMARK    1  A    between atoms: C2_2  and  C3_3 
REMARK    2  A    between atoms: C12_16  and  N3_17 
ROOT
HETATM    1  C3  UNL     1      41.025   1.782  70.771  1.00  0.00     0.091 C 
HETATM    2  C4  UNL     1      39.529   2.059  70.298  1.00  0.00     0.069 C 
HETATM    3  C5  UNL     1      39.260   1.180  69.135  1.00  0.00     0.206 C 
HETATM    4  O1  UNL     1      37.983   1.406  68.492  1.00  0.00    -0.259 OA
HETATM    5  N1  UNL     1      37.379   0.232  68.010  1.00  0.00    -0.151 NA
HETATM    6  C6  UNL     1      38.155  -0.797  67.768  1.00  0.00     0.264 A 
HETATM    7  C7  UNL     1      39.146  -1.892  67.533  1.00  0.00     0.036 A 
HETATM    8 CL1  UNL     1      37.575  -2.633  67.146  1.00  0.00    -0.149 Cl
HETATM    9  C8  UNL     1      40.416  -2.415  67.502  1.00  0.00     0.004 C 
HETATM   10  C9  UNL     1      41.166  -1.258  67.924  1.00  0.00     0.045 C 
HETATM   11  C10 UNL     1      42.393  -0.888  68.164  1.00  0.00     0.010 C 
HETATM   12  C11 UNL     1      42.959   0.371  68.591  1.00  0.00     0.041 C 
HETATM   13  N2  UNL     1      43.220   1.274  67.559  1.00  0.00    -0.268 NA
HETATM   14  C12 UNL     1      44.395   2.151  68.145  1.00  0.00     0.211 C 
HETATM   15  C13 UNL     1      44.016   2.051  69.585  1.00  0.00     0.043 A 
HETATM   16  C14 UNL     1      44.137   1.592  70.807  1.00  0.00     0.026 A 
HETATM   17  C15 UNL     1      43.381   0.545  70.027  1.00  0.00     0.059 A 
HETATM   18  C16 UNL     1      42.517  -0.272  70.732  1.00  0.00     0.139 C 
HETATM   19  O2  UNL     1      42.838  -1.540  71.172  1.00  0.00    -0.371 OA
HETATM   20  C17 UNL     1      42.052  -2.156  72.173  1.00  0.00     0.195 C 
HETATM   21  C18 UNL     1      40.896  -1.325  72.618  1.00  0.00     0.194 C 
HETATM   22  O3  UNL     1      40.996   0.025  72.412  1.00  0.00    -0.378 OA
HETATM   23  C19 UNL     1      41.110   0.318  71.025  1.00  0.00     0.195 C 
HETATM   24  C20 UNL     1      42.733   2.978  69.442  1.00  0.00     0.184 C 
HETATM   25  O4  UNL     1      41.685   2.277  69.755  1.00  0.00    -0.376 OA
ENDROOT
BRANCH  14  26
HETATM   26  N3  UNL     1      44.272   3.351  67.487  1.00  0.00    -0.408 N 
HETATM   27  H15 UNL     1      43.994   4.202  68.016  1.00  0.00     0.152 HD
HETATM   28  H16 UNL     1      45.032   3.633  66.833  1.00  0.00     0.152 HD
ENDBRANCH  14  26
BRANCH   1  29
HETATM   29  C2  UNL     1      40.948   2.511  72.091  1.00  0.00     0.036 C 
HETATM   30  C1  UNL     1      40.272   3.795  72.223  1.00  0.00     0.008 C 
ENDBRANCH   1  29
TORSDOF 2
ENDMDL
MODEL 7
REMARK VINA RESULT:      -6.6      7.535     10.421
REMARK  2 active torsions:
REMARK  status: ('A' for Active; 'I' for Inactive)
REMARK    1  A    between atoms: C2_2  and  C3_3 
REMARK    2  A    between atoms: C12_16  and  N3_17 
ROOT
HETATM    1  C3  UNL     1      28.063   9.387  46.051  1.00  0.00     0.091 C 
HETATM    2  C4  UNL     1      29.015   8.581  45.060  1.00  0.00     0.069 C 
HETATM    3  C5  UNL     1      30.251   8.245  45.806  1.00  0.00     0.206 C 
HETATM    4  O1  UNL     1      31.288   7.628  45.006  1.00  0.00    -0.259 OA
HETATM    5  N1  UNL     1      32.026   6.651  45.696  1.00  0.00    -0.151 NA
HETATM    6  C6  UNL     1      32.043   6.713  47.005  1.00  0.00     0.264 A 
HETATM    7  C7  UNL     1      31.982   6.895  48.488  1.00  0.00     0.036 A 
HETATM    8 CL1  UNL     1      32.945   5.415  48.269  1.00  0.00    -0.149 Cl
HETATM    9  C8  UNL     1      31.595   7.552  49.632  1.00  0.00     0.004 C 
HETATM   10  C9  UNL     1      30.863   8.647  49.047  1.00  0.00     0.045 C 
HETATM   11  C10 UNL     1      30.182   9.702  49.398  1.00  0.00     0.010 C 
HETATM   12  C11 UNL     1      29.503  10.719  48.626  1.00  0.00     0.041 C 
HETATM   13  N2  UNL     1      30.317  11.770  48.202  1.00  0.00    -0.268 NA
HETATM   14  C12 UNL     1      29.299  12.969  48.058  1.00  0.00     0.211 C 
HETATM   15  C13 UNL     1      28.095  12.163  47.700  1.00  0.00     0.043 A 
HETATM   16  C14 UNL     1      26.941  11.593  47.948  1.00  0.00     0.026 A 
HETATM   17  C15 UNL     1      28.003  10.671  48.496  1.00  0.00     0.059 A 
HETATM   18  C16 UNL     1      27.702   9.324  48.563  1.00  0.00     0.139 C 
HETATM   19  O2  UNL     1      27.258   8.687  49.705  1.00  0.00    -0.371 OA
HETATM   20  C17 UNL     1      26.641   7.418  49.605  1.00  0.00     0.195 C 
HETATM   21  C18 UNL     1      26.581   6.892  48.211  1.00  0.00     0.194 C 
HETATM   22  O3  UNL     1      26.652   7.816  47.203  1.00  0.00    -0.378 OA
HETATM   23  C19 UNL     1      27.888   8.519  47.248  1.00  0.00     0.195 C 
HETATM   24  C20 UNL     1      28.623  11.786  46.248  1.00  0.00     0.184 C 
HETATM   25  O4  UNL     1      28.746  10.496  46.180  1.00  0.00    -0.376 OA
ENDROOT
BRANCH  14  26
HETATM   26  N3  UNL     1      29.881  13.784  47.117  1.00  0.00    -0.408 N 
HETATM   27  H15 UNL     1      30.914  13.789  47.010  1.00  0.00     0.152 HD
HETATM   28  H16 UNL     1      29.474  13.795  46.158  1.00  0.00     0.152 HD
ENDBRANCH  14  26
BRANCH   1  29
HETATM   29  C2  UNL     1      26.811   9.326  45.208  1.00  0.00     0.036 C 
HETATM   30  C1  UNL     1      26.824   8.801  43.848  1.00  0.00     0.008 C 
ENDBRANCH   1  29
TORSDOF 2
ENDMDL
MODEL 8
REMARK VINA RESULT:      -6.6      6.429      8.861
REMARK  2 active torsions:
REMARK  status: ('A' for Active; 'I' for Inactive)
REMARK    1  A    between atoms: C2_2  and  C3_3 
REMARK    2  A    between atoms: C12_16  and  N3_17 
ROOT
HETATM    1  C3  UNL     1      29.151   9.326  45.805  1.00  0.00     0.091 C 
HETATM    2  C4  UNL     1      29.989   8.004  46.100  1.00  0.00     0.069 C 
HETATM    3  C5  UNL     1      29.342   7.313  47.241  1.00  0.00     0.206 C 
HETATM    4  O1  UNL     1      30.062   6.157  47.731  1.00  0.00    -0.259 OA
HETATM    5  N1  UNL     1      29.226   5.113  48.162  1.00  0.00    -0.151 NA
HETATM    6  C6  UNL     1      27.999   5.419  48.508  1.00  0.00     0.264 A 
HETATM    7  C7  UNL     1      26.631   5.899  48.873  1.00  0.00     0.036 A 
HETATM    8 CL1  UNL     1      26.548   4.135  49.093  1.00  0.00    -0.149 Cl
HETATM    9  C8  UNL     1      25.677   6.871  49.056  1.00  0.00     0.004 C 
HETATM   10  C9  UNL     1      26.446   8.037  48.702  1.00  0.00     0.045 C 
HETATM   11  C10 UNL     1      26.321   9.330  48.595  1.00  0.00     0.010 C 
HETATM   12  C11 UNL     1      27.253  10.367  48.213  1.00  0.00     0.041 C 
HETATM   13  N2  UNL     1      28.054  10.844  49.252  1.00  0.00    -0.268 NA
HETATM   14  C12 UNL     1      28.397  12.314  48.788  1.00  0.00     0.211 C 
HETATM   15  C13 UNL     1      28.360  12.068  47.316  1.00  0.00     0.043 A 
HETATM   16  C14 UNL     1      27.819  12.128  46.124  1.00  0.00     0.026 A 
HETATM   17  C15 UNL     1      27.175  10.961  46.831  1.00  0.00     0.059 A 
HETATM   18  C16 UNL     1      26.696   9.929  46.047  1.00  0.00     0.139 C 
HETATM   19  O2  UNL     1      25.376   9.793  45.669  1.00  0.00    -0.371 OA
HETATM   20  C17 UNL     1      25.038   8.935  44.596  1.00  0.00     0.195 C 
HETATM   21  C18 UNL     1      26.211   8.225  44.009  1.00  0.00     0.194 C 
HETATM   22  O3  UNL     1      27.437   8.803  44.202  1.00  0.00    -0.378 OA
HETATM   23  C19 UNL     1      27.747   8.881  45.587  1.00  0.00     0.195 C 
HETATM   24  C20 UNL     1      29.704  11.218  47.297  1.00  0.00     0.184 C 
HETATM   25  O4  UNL     1      29.424  10.021  46.881  1.00  0.00    -0.376 OA
ENDROOT
BRANCH  14  26
HETATM   26  N3  UNL     1      29.593  12.584  49.407  1.00  0.00    -0.408 N 
HETATM   27  H15 UNL     1      30.454  12.085  49.105  1.00  0.00     0.152 HD
HETATM   28  H16 UNL     1      29.855  13.582  49.553  1.00  0.00     0.152 HD
ENDBRANCH  14  26
BRANCH   1  29
HETATM   29  C2  UNL     1      29.778   9.658  44.472  1.00  0.00     0.036 C 
HETATM   30  C1  UNL     1      31.032   9.054  44.040  1.00  0.00     0.008 C 
ENDBRANCH   1  29
TORSDOF 2
ENDMDL
MODEL 9
REMARK VINA RESULT:      -6.5      9.366     12.100
REMARK  2 active torsions:
REMARK  status: ('A' for Active; 'I' for Inactive)
REMARK    1  A    between atoms: C2_2  and  C3_3 
REMARK    2  A    between atoms: C12_16  and  N3_17 
ROOT
HETATM    1  C3  UNL     1      29.850   8.501  46.719  1.00  0.00     0.091 C 
HETATM    2  C4  UNL     1      29.153   8.633  45.292  1.00  0.00     0.069 C 
HETATM    3  C5  UNL     1      29.950   9.596  44.495  1.00  0.00     0.206 C 
HETATM    4  O1  UNL     1      29.373   9.939  43.212  1.00  0.00    -0.259 OA
HETATM    5  N1  UNL     1      30.327  10.133  42.200  1.00  0.00    -0.151 NA
HETATM    6  C6  UNL     1      31.549  10.438  42.564  1.00  0.00     0.264 A 
HETATM    7  C7  UNL     1      32.898  10.782  43.110  1.00  0.00     0.036 A 
HETATM    8 CL1  UNL     1      33.147  10.702  41.349  1.00  0.00    -0.149 Cl
HETATM    9  C8  UNL     1      33.779  11.056  44.129  1.00  0.00     0.004 C 
HETATM   10  C9  UNL     1      32.887  10.952  45.256  1.00  0.00     0.045 C 
HETATM   11  C10 UNL     1      32.894  11.051  46.556  1.00  0.00     0.010 C 
HETATM   12  C11 UNL     1      31.849  10.911  47.545  1.00  0.00     0.041 C 
HETATM   13  N2  UNL     1      31.101  12.067  47.773  1.00  0.00    -0.268 NA
HETATM   14  C12 UNL     1      30.598  11.875  49.257  1.00  0.00     0.211 C 
HETATM   15  C13 UNL     1      30.532  10.384  49.252  1.00  0.00     0.043 A 
HETATM   16  C14 UNL     1      30.964   9.183  49.550  1.00  0.00     0.026 A 
HETATM   17  C15 UNL     1      31.761   9.643  48.355  1.00  0.00     0.059 A 
HETATM   18  C16 UNL     1      32.257   8.669  47.509  1.00  0.00     0.139 C 
HETATM   19  O2  UNL     1      33.548   8.183  47.562  1.00  0.00    -0.371 OA
HETATM   20  C17 UNL     1      33.865   6.962  46.921  1.00  0.00     0.195 C 
HETATM   21  C18 UNL     1      32.711   6.349  46.203  1.00  0.00     0.194 C 
HETATM   22  O3  UNL     1      31.461   6.719  46.622  1.00  0.00    -0.378 OA
HETATM   23  C19 UNL     1      31.263   8.117  46.451  1.00  0.00     0.195 C 
HETATM   24  C20 UNL     1      29.267  10.319  48.289  1.00  0.00     0.184 C 
HETATM   25  O4  UNL     1      29.611   9.693  47.205  1.00  0.00    -0.376 OA
ENDROOT
BRANCH  14  26
HETATM   26  N3  UNL     1      29.439  12.612  49.311  1.00  0.00    -0.408 N 
HETATM   27  H15 UNL     1      28.732  12.406  50.044  1.00  0.00     0.152 HD
HETATM   28  H16 UNL     1      29.513  13.649  49.241  1.00  0.00     0.152 HD
ENDBRANCH  14  26
BRANCH   1  29
HETATM   29  C2  UNL     1      29.088   7.288  47.194  1.00  0.00     0.036 C 
HETATM   30  C1  UNL     1      27.666   7.346  47.507  1.00  0.00     0.008 C 
ENDBRANCH   1  29
TORSDOF 2
ENDMDL
