MODEL 1
REMARK VINA RESULT:      -9.2      0.000      0.000
REMARK  5 active torsions:
REMARK  status: ('A' for Active; 'I' for Inactive)
REMARK    1  A    between atoms: C3_3  and  C4_4 
REMARK    2  A    between atoms: C4_4  and  C5_5 
REMARK    3  A    between atoms: C5_5  and  C6_6 
REMARK    4  A    between atoms: C6_6  and  O2_8 
REMARK    5  A    between atoms: C9_11  and  C10_12 
ROOT
HETATM    1  C1  UNL     1      28.723   2.323  53.699  1.00  0.00     0.070 C 
HETATM    2  C2  UNL     1      27.386   1.691  53.746  1.00  0.00     0.031 C 
HETATM    3  C3  UNL     1      27.421   0.374  54.017  1.00  0.00    -0.052 C 
HETATM    4  C7  UNL     1      26.290  -0.560  54.138  1.00  0.00     0.066 C 
HETATM    5  C8  UNL     1      25.054  -0.188  53.471  1.00  0.00     0.017 C 
HETATM    6  C9  UNL     1      24.403   0.951  53.225  1.00  0.00     0.096 C 
HETATM    7  O4  UNL     1      24.971   2.128  53.686  1.00  0.00    -0.238 OA
HETATM    8  N2  UNL     1      26.257   2.554  53.498  1.00  0.00    -0.265 N 
HETATM    9  H18 UNL     1      26.594   3.503  53.171  1.00  0.00     0.194 HD
ENDROOT
BRANCH   6  10
HETATM   10  C10 UNL     1      23.141   0.909  52.496  1.00  0.00     0.057 C 
HETATM   11  C11 UNL     1      21.995   0.421  52.858  1.00  0.00     0.047 A 
HETATM   12  C12 UNL     1      21.538  -0.236  54.062  1.00  0.00     0.257 A 
HETATM   13  C18 UNL     1      20.789   0.448  52.007  1.00  0.00     0.006 A 
HETATM   14  O3  UNL     1      22.217  -0.485  55.074  1.00  0.00    -0.267 OA
HETATM   15  N1  UNL     1      20.159  -0.602  53.994  1.00  0.00    -0.322 N 
HETATM   16  C13 UNL     1      19.772  -0.150  52.706  1.00  0.00     0.046 A 
HETATM   17  H13 UNL     1      19.563  -1.080  54.694  1.00  0.00     0.169 HD
HETATM   18  C14 UNL     1      18.525  -0.230  52.075  1.00  0.00     0.030 A 
HETATM   19  C15 UNL     1      18.285   0.247  50.825  1.00  0.00     0.002 A 
HETATM   20  C16 UNL     1      19.298   0.843  50.125  1.00  0.00     0.001 A 
HETATM   21  C17 UNL     1      20.530   0.930  50.733  1.00  0.00     0.015 A 
ENDBRANCH   6  10
BRANCH   3  22
HETATM   22  C4  UNL     1      28.756  -0.245  54.227  1.00  0.00     0.047 C 
BRANCH  22  23
HETATM   23  C5  UNL     1      29.286  -0.966  53.014  1.00  0.00     0.114 C 
BRANCH  23  24
HETATM   24  C6  UNL     1      29.085  -2.434  53.290  1.00  0.00     0.139 C 
HETATM   25  O1  UNL     1      29.814  -3.073  54.089  1.00  0.00    -0.650 OA
BRANCH  24  26
HETATM   26  O2  UNL     1      28.122  -3.273  52.743  1.00  0.00    -0.776 OA
HETATM   27  H8  UNL     1      27.347  -2.930  52.164  1.00  0.00     0.167 HD
ENDBRANCH  24  26
ENDBRANCH  23  24
ENDBRANCH  22  23
ENDBRANCH   3  22
TORSDOF 5
ENDMDL
MODEL 2
REMARK VINA RESULT:      -9.1      2.310      8.384
REMARK  5 active torsions:
REMARK  status: ('A' for Active; 'I' for Inactive)
REMARK    1  A    between atoms: C3_3  and  C4_4 
REMARK    2  A    between atoms: C4_4  and  C5_5 
REMARK    3  A    between atoms: C5_5  and  C6_6 
REMARK    4  A    between atoms: C6_6  and  O2_8 
REMARK    5  A    between atoms: C9_11  and  C10_12 
ROOT
HETATM    1  C1  UNL     1      18.895  -0.981  53.442  1.00  0.00     0.070 C 
HETATM    2  C2  UNL     1      20.222  -0.382  53.181  1.00  0.00     0.031 C 
HETATM    3  C3  UNL     1      20.295   0.283  52.015  1.00  0.00    -0.052 C 
HETATM    4  C7  UNL     1      21.450   0.994  51.442  1.00  0.00     0.066 C 
HETATM    5  C8  UNL     1      22.766   0.593  51.907  1.00  0.00     0.017 C 
HETATM    6  C9  UNL     1      23.288   0.171  53.061  1.00  0.00     0.096 C 
HETATM    7  O4  UNL     1      22.436   0.058  54.148  1.00  0.00    -0.238 OA
HETATM    8  N2  UNL     1      21.232  -0.590  54.191  1.00  0.00    -0.265 N 
HETATM    9  H18 UNL     1      20.884  -1.283  54.911  1.00  0.00     0.194 HD
ENDROOT
BRANCH   6  10
HETATM   10  C10 UNL     1      24.709  -0.146  53.128  1.00  0.00     0.057 C 
HETATM   11  C11 UNL     1      25.718   0.634  53.368  1.00  0.00     0.047 A 
HETATM   12  C12 UNL     1      25.827   2.048  53.648  1.00  0.00     0.257 A 
HETATM   13  C18 UNL     1      27.120   0.171  53.406  1.00  0.00     0.006 A 
HETATM   14  O3  UNL     1      24.891   2.864  53.720  1.00  0.00    -0.267 OA
HETATM   15  N1  UNL     1      27.179   2.461  53.849  1.00  0.00    -0.322 N 
HETATM   16  C13 UNL     1      27.910   1.257  53.683  1.00  0.00     0.046 A 
HETATM   17  H13 UNL     1      27.563   3.400  54.062  1.00  0.00     0.169 HD
HETATM   18  C14 UNL     1      29.290   1.036  53.766  1.00  0.00     0.030 A 
HETATM   19  C15 UNL     1      29.868  -0.181  53.585  1.00  0.00     0.002 A 
HETATM   20  C16 UNL     1      29.081  -1.265  53.307  1.00  0.00     0.001 A 
HETATM   21  C17 UNL     1      27.722  -1.064  53.223  1.00  0.00     0.015 A 
ENDBRANCH   6  10
BRANCH   3  22
HETATM   22  C4  UNL     1      19.069   0.324  51.173  1.00  0.00     0.047 C 
BRANCH  22  23
HETATM   23  C5  UNL     1      18.881   1.628  50.441  1.00  0.00     0.114 C 
BRANCH  23  24
HETATM   24  C6  UNL     1      18.141   2.529  51.394  1.00  0.00     0.139 C 
HETATM   25  O1  UNL     1      16.923   2.370  51.661  1.00  0.00    -0.650 OA
BRANCH  24  26
HETATM   26  O2  UNL     1      18.648   3.618  52.094  1.00  0.00    -0.776 OA
HETATM   27  H8  UNL     1      18.371   3.840  53.056  1.00  0.00     0.167 HD
ENDBRANCH  24  26
ENDBRANCH  23  24
ENDBRANCH  22  23
ENDBRANCH   3  22
TORSDOF 5
ENDMDL
MODEL 3
REMARK VINA RESULT:      -8.9      2.049      2.829
REMARK  5 active torsions:
REMARK  status: ('A' for Active; 'I' for Inactive)
REMARK    1  A    between atoms: C3_3  and  C4_4 
REMARK    2  A    between atoms: C4_4  and  C5_5 
REMARK    3  A    between atoms: C5_5  and  C6_6 
REMARK    4  A    between atoms: C6_6  and  O2_8 
REMARK    5  A    between atoms: C9_11  and  C10_12 
ROOT
HETATM    1  C1  UNL     1      26.454   1.919  51.398  1.00  0.00     0.070 C 
HETATM    2  C2  UNL     1      25.289   1.335  52.097  1.00  0.00     0.031 C 
HETATM    3  C3  UNL     1      25.572   0.204  52.766  1.00  0.00    -0.052 C 
HETATM    4  C7  UNL     1      24.661  -0.635  53.563  1.00  0.00     0.066 C 
HETATM    5  C8  UNL     1      23.243  -0.536  53.263  1.00  0.00     0.017 C 
HETATM    6  C9  UNL     1      22.409   0.434  52.882  1.00  0.00     0.096 C 
HETATM    7  O4  UNL     1      22.939   1.703  52.704  1.00  0.00    -0.238 OA
HETATM    8  N2  UNL     1      24.039   2.044  51.966  1.00  0.00    -0.265 N 
HETATM    9  H18 UNL     1      24.135   2.815  51.248  1.00  0.00     0.194 HD
ENDROOT
BRANCH   6  10
HETATM   10  C10 UNL     1      21.000   0.124  52.674  1.00  0.00     0.057 C 
HETATM   11  C11 UNL     1      20.248   0.355  51.642  1.00  0.00     0.047 A 
HETATM   12  C12 UNL     1      20.496   0.978  50.361  1.00  0.00     0.257 A 
HETATM   13  C18 UNL     1      18.822  -0.018  51.569  1.00  0.00     0.006 A 
HETATM   14  O3  UNL     1      21.573   1.455  49.964  1.00  0.00    -0.267 OA
HETATM   15  N1  UNL     1      19.332   1.003  49.534  1.00  0.00    -0.322 N 
HETATM   16  C13 UNL     1      18.350   0.377  50.343  1.00  0.00     0.046 A 
HETATM   17  H13 UNL     1      19.204   1.380  48.577  1.00  0.00     0.169 HD
HETATM   18  C14 UNL     1      17.004   0.114  50.064  1.00  0.00     0.030 A 
HETATM   19  C15 UNL     1      16.162  -0.501  50.937  1.00  0.00     0.002 A 
HETATM   20  C16 UNL     1      16.630  -0.895  52.161  1.00  0.00     0.001 A 
HETATM   21  C17 UNL     1      17.953  -0.644  52.450  1.00  0.00     0.015 A 
ENDBRANCH   6  10
BRANCH   3  22
HETATM   22  C4  UNL     1      26.974  -0.290  52.714  1.00  0.00     0.047 C 
BRANCH  22  23
HETATM   23  C5  UNL     1      27.089  -1.746  52.344  1.00  0.00     0.114 C 
BRANCH  23  24
HETATM   24  C6  UNL     1      28.331  -2.247  53.035  1.00  0.00     0.139 C 
HETATM   25  O1  UNL     1      29.277  -1.483  53.351  1.00  0.00    -0.650 OA
BRANCH  24  26
HETATM   26  O2  UNL     1      28.620  -3.552  53.413  1.00  0.00    -0.776 OA
HETATM   27  H8  UNL     1      28.253  -3.978  54.271  1.00  0.00     0.167 HD
ENDBRANCH  24  26
ENDBRANCH  23  24
ENDBRANCH  22  23
ENDBRANCH   3  22
TORSDOF 5
ENDMDL
MODEL 4
REMARK VINA RESULT:      -8.8      4.815      6.939
REMARK  5 active torsions:
REMARK  status: ('A' for Active; 'I' for Inactive)
REMARK    1  A    between atoms: C3_3  and  C4_4 
REMARK    2  A    between atoms: C4_4  and  C5_5 
REMARK    3  A    between atoms: C5_5  and  C6_6 
REMARK    4  A    between atoms: C6_6  and  O2_8 
REMARK    5  A    between atoms: C9_11  and  C10_12 
ROOT
HETATM    1  C1  UNL     1      28.144   5.177  48.610  1.00  0.00     0.070 C 
HETATM    2  C2  UNL     1      26.770   4.775  48.985  1.00  0.00     0.031 C 
HETATM    3  C3  UNL     1      25.900   5.799  49.026  1.00  0.00    -0.052 C 
HETATM    4  C7  UNL     1      24.466   5.763  49.359  1.00  0.00     0.066 C 
HETATM    5  C8  UNL     1      24.004   4.641  50.156  1.00  0.00     0.017 C 
HETATM    6  C9  UNL     1      24.309   3.345  50.256  1.00  0.00     0.096 C 
HETATM    7  O4  UNL     1      25.307   2.855  49.428  1.00  0.00    -0.238 OA
HETATM    8  N2  UNL     1      26.560   3.372  49.248  1.00  0.00    -0.265 N 
HETATM    9  H18 UNL     1      27.489   2.866  49.268  1.00  0.00     0.194 HD
ENDROOT
BRANCH   6  10
HETATM   10  C10 UNL     1      23.592   2.514  51.216  1.00  0.00     0.057 C 
HETATM   11  C11 UNL     1      24.038   1.568  51.984  1.00  0.00     0.047 A 
HETATM   12  C12 UNL     1      25.350   0.995  52.181  1.00  0.00     0.257 A 
HETATM   13  C18 UNL     1      23.188   0.802  52.916  1.00  0.00     0.006 A 
HETATM   14  O3  UNL     1      26.400   1.326  51.603  1.00  0.00    -0.267 OA
HETATM   15  N1  UNL     1      25.347  -0.049  53.156  1.00  0.00    -0.322 N 
HETATM   16  C13 UNL     1      23.988  -0.108  53.558  1.00  0.00     0.046 A 
HETATM   17  H13 UNL     1      26.127  -0.637  53.503  1.00  0.00     0.169 HD
HETATM   18  C14 UNL     1      23.375  -0.945  54.498  1.00  0.00     0.030 A 
HETATM   19  C15 UNL     1      22.049  -0.897  54.794  1.00  0.00     0.002 A 
HETATM   20  C16 UNL     1      21.248   0.009  54.154  1.00  0.00     0.001 A 
HETATM   21  C17 UNL     1      21.837   0.840  53.227  1.00  0.00     0.015 A 
ENDBRANCH   6  10
BRANCH   3  22
HETATM   22  C4  UNL     1      26.422   7.153  48.701  1.00  0.00     0.047 C 
BRANCH  22  23
HETATM   23  C5  UNL     1      26.072   8.199  49.728  1.00  0.00     0.114 C 
BRANCH  23  24
HETATM   24  C6  UNL     1      27.371   8.877  50.081  1.00  0.00     0.139 C 
HETATM   25  O1  UNL     1      28.365   8.863  49.313  1.00  0.00    -0.650 OA
BRANCH  24  26
HETATM   26  O2  UNL     1      27.668   9.585  51.239  1.00  0.00    -0.776 OA
HETATM   27  H8  UNL     1      28.309   9.234  51.959  1.00  0.00     0.167 HD
ENDBRANCH  24  26
ENDBRANCH  23  24
ENDBRANCH  22  23
ENDBRANCH   3  22
TORSDOF 5
ENDMDL
MODEL 5
REMARK VINA RESULT:      -8.5      4.713      7.782
REMARK  5 active torsions:
REMARK  status: ('A' for Active; 'I' for Inactive)
REMARK    1  A    between atoms: C3_3  and  C4_4 
REMARK    2  A    between atoms: C4_4  and  C5_5 
REMARK    3  A    between atoms: C5_5  and  C6_6 
REMARK    4  A    between atoms: C6_6  and  O2_8 
REMARK    5  A    between atoms: C9_11  and  C10_12 
ROOT
HETATM    1  C1  UNL     1      20.515   2.277  52.700  1.00  0.00     0.070 C 
HETATM    2  C2  UNL     1      21.792   2.279  51.954  1.00  0.00     0.031 C 
HETATM    3  C3  UNL     1      22.695   1.402  52.426  1.00  0.00    -0.052 C 
HETATM    4  C7  UNL     1      24.057   1.141  51.930  1.00  0.00     0.066 C 
HETATM    5  C8  UNL     1      24.695   2.201  51.170  1.00  0.00     0.017 C 
HETATM    6  C9  UNL     1      24.294   3.132  50.301  1.00  0.00     0.096 C 
HETATM    7  O4  UNL     1      22.947   3.174  49.981  1.00  0.00    -0.238 OA
HETATM    8  N2  UNL     1      21.890   3.203  50.850  1.00  0.00    -0.265 N 
HETATM    9  H18 UNL     1      21.053   3.849  50.845  1.00  0.00     0.194 HD
ENDROOT
BRANCH   6  10
HETATM   10  C10 UNL     1      25.276   4.050  49.735  1.00  0.00     0.057 C 
HETATM   11  C11 UNL     1      25.416   5.326  49.921  1.00  0.00     0.047 A 
HETATM   12  C12 UNL     1      24.695   6.291  50.721  1.00  0.00     0.257 A 
HETATM   13  C18 UNL     1      26.466   6.137  49.275  1.00  0.00     0.006 A 
HETATM   14  O3  UNL     1      23.713   6.065  51.450  1.00  0.00    -0.267 OA
HETATM   15  N1  UNL     1      25.232   7.609  50.601  1.00  0.00    -0.322 N 
HETATM   16  C13 UNL     1      26.313   7.432  49.699  1.00  0.00     0.046 A 
HETATM   17  H13 UNL     1      24.930   8.493  51.047  1.00  0.00     0.169 HD
HETATM   18  C14 UNL     1      27.218   8.377  49.201  1.00  0.00     0.030 A 
HETATM   19  C15 UNL     1      28.219   8.073  48.333  1.00  0.00     0.002 A 
HETATM   20  C16 UNL     1      28.373   6.782  47.907  1.00  0.00     0.001 A 
HETATM   21  C17 UNL     1      27.491   5.841  48.389  1.00  0.00     0.015 A 
ENDBRANCH   6  10
BRANCH   3  22
HETATM   22  C4  UNL     1      22.298   0.575  53.596  1.00  0.00     0.047 C 
BRANCH  22  23
HETATM   23  C5  UNL     1      23.059  -0.721  53.708  1.00  0.00     0.114 C 
BRANCH  23  24
HETATM   24  C6  UNL     1      22.482  -1.434  54.903  1.00  0.00     0.139 C 
HETATM   25  O1  UNL     1      21.261  -1.721  54.989  1.00  0.00    -0.650 OA
BRANCH  24  26
HETATM   26  O2  UNL     1      23.158  -1.865  56.038  1.00  0.00    -0.776 OA
HETATM   27  H8  UNL     1      23.537  -2.813  56.134  1.00  0.00     0.167 HD
ENDBRANCH  24  26
ENDBRANCH  23  24
ENDBRANCH  22  23
ENDBRANCH   3  22
TORSDOF 5
ENDMDL
MODEL 6
REMARK VINA RESULT:      -8.4      4.658      6.335
REMARK  5 active torsions:
REMARK  status: ('A' for Active; 'I' for Inactive)
REMARK    1  A    between atoms: C3_3  and  C4_4 
REMARK    2  A    between atoms: C4_4  and  C5_5 
REMARK    3  A    between atoms: C5_5  and  C6_6 
REMARK    4  A    between atoms: C6_6  and  O2_8 
REMARK    5  A    between atoms: C9_11  and  C10_12 
ROOT
HETATM    1  C1  UNL     1      24.622   7.899  50.406  1.00  0.00     0.070 C 
HETATM    2  C2  UNL     1      24.608   6.453  50.719  1.00  0.00     0.031 C 
HETATM    3  C3  UNL     1      25.222   5.694  49.795  1.00  0.00    -0.052 C 
HETATM    4  C7  UNL     1      25.392   4.231  49.786  1.00  0.00     0.066 C 
HETATM    5  C8  UNL     1      24.451   3.454  50.573  1.00  0.00     0.017 C 
HETATM    6  C9  UNL     1      23.805   3.615  51.729  1.00  0.00     0.096 C 
HETATM    7  O4  UNL     1      24.026   4.790  52.429  1.00  0.00    -0.238 OA
HETATM    8  N2  UNL     1      23.952   6.068  51.945  1.00  0.00    -0.265 N 
HETATM    9  H18 UNL     1      23.447   6.900  52.361  1.00  0.00     0.194 HD
ENDROOT
BRANCH   6  10
HETATM   10  C10 UNL     1      22.910   2.565  52.200  1.00  0.00     0.057 C 
HETATM   11  C11 UNL     1      23.188   1.461  52.823  1.00  0.00     0.047 A 
HETATM   12  C12 UNL     1      24.428   0.868  53.272  1.00  0.00     0.257 A 
HETATM   13  C18 UNL     1      22.169   0.480  53.243  1.00  0.00     0.006 A 
HETATM   14  O3  UNL     1      25.569   1.343  53.138  1.00  0.00    -0.267 OA
HETATM   15  N1  UNL     1      24.226  -0.386  53.926  1.00  0.00    -0.322 N 
HETATM   16  C13 UNL     1      22.819  -0.554  53.867  1.00  0.00     0.046 A 
HETATM   17  H13 UNL     1      24.915  -1.034  54.347  1.00  0.00     0.169 HD
HETATM   18  C14 UNL     1      22.029  -1.605  54.349  1.00  0.00     0.030 A 
HETATM   19  C15 UNL     1      20.676  -1.644  54.227  1.00  0.00     0.002 A 
HETATM   20  C16 UNL     1      20.025  -0.614  53.604  1.00  0.00     0.001 A 
HETATM   21  C17 UNL     1      20.788   0.427  53.125  1.00  0.00     0.015 A 
ENDBRANCH   6  10
BRANCH   3  22
HETATM   22  C4  UNL     1      25.812   6.389  48.621  1.00  0.00     0.047 C 
BRANCH  22  23
HETATM   23  C5  UNL     1      27.267   6.067  48.395  1.00  0.00     0.114 C 
BRANCH  23  24
HETATM   24  C6  UNL     1      28.001   7.376  48.526  1.00  0.00     0.139 C 
HETATM   25  O1  UNL     1      28.594   7.913  47.558  1.00  0.00    -0.650 OA
BRANCH  24  26
HETATM   26  O2  UNL     1      28.137   8.158  49.667  1.00  0.00    -0.776 OA
HETATM   27  H8  UNL     1      28.567   9.089  49.656  1.00  0.00     0.167 HD
ENDBRANCH  24  26
ENDBRANCH  23  24
ENDBRANCH  22  23
ENDBRANCH   3  22
TORSDOF 5
ENDMDL
MODEL 7
REMARK VINA RESULT:      -8.4      5.210      7.943
REMARK  5 active torsions:
REMARK  status: ('A' for Active; 'I' for Inactive)
REMARK    1  A    between atoms: C3_3  and  C4_4 
REMARK    2  A    between atoms: C4_4  and  C5_5 
REMARK    3  A    between atoms: C5_5  and  C6_6 
REMARK    4  A    between atoms: C6_6  and  O2_8 
REMARK    5  A    between atoms: C9_11  and  C10_12 
ROOT
HETATM    1  C1  UNL     1      22.361   1.898  52.092  1.00  0.00     0.070 C 
HETATM    2  C2  UNL     1      23.659   2.075  51.405  1.00  0.00     0.031 C 
HETATM    3  C3  UNL     1      24.677   1.426  51.996  1.00  0.00    -0.052 C 
HETATM    4  C7  UNL     1      26.090   1.384  51.586  1.00  0.00     0.066 C 
HETATM    5  C8  UNL     1      26.568   2.475  50.755  1.00  0.00     0.017 C 
HETATM    6  C9  UNL     1      26.057   3.235  49.784  1.00  0.00     0.096 C 
HETATM    7  O4  UNL     1      24.745   2.996  49.405  1.00  0.00    -0.238 OA
HETATM    8  N2  UNL     1      23.652   2.902  50.221  1.00  0.00    -0.265 N 
HETATM    9  H18 UNL     1      22.712   3.377  50.119  1.00  0.00     0.194 HD
ENDROOT
BRANCH   6  10
HETATM   10  C10 UNL     1      26.886   4.268  49.174  1.00  0.00     0.057 C 
HETATM   11  C11 UNL     1      26.716   5.554  49.148  1.00  0.00     0.047 A 
HETATM   12  C12 UNL     1      25.694   6.425  49.684  1.00  0.00     0.257 A 
HETATM   13  C18 UNL     1      27.647   6.489  48.486  1.00  0.00     0.006 A 
HETATM   14  O3  UNL     1      24.690   6.080  50.332  1.00  0.00    -0.267 OA
HETATM   15  N1  UNL     1      25.943   7.801  49.394  1.00  0.00    -0.322 N 
HETATM   16  C13 UNL     1      27.155   7.758  48.658  1.00  0.00     0.046 A 
HETATM   17  H13 UNL     1      25.394   8.643  49.643  1.00  0.00     0.169 HD
HETATM   18  C14 UNL     1      27.894   8.808  48.101  1.00  0.00     0.030 A 
HETATM   19  C15 UNL     1      29.052   8.629  47.412  1.00  0.00     0.002 A 
HETATM   20  C16 UNL     1      29.544   7.364  47.239  1.00  0.00     0.001 A 
HETATM   21  C17 UNL     1      28.829   6.320  47.781  1.00  0.00     0.015 A 
ENDBRANCH   6  10
BRANCH   3  22
HETATM   22  C4  UNL     1      24.368   0.644  53.223  1.00  0.00     0.047 C 
BRANCH  22  23
HETATM   23  C5  UNL     1      25.339  -0.479  53.484  1.00  0.00     0.114 C 
BRANCH  23  24
HETATM   24  C6  UNL     1      25.946  -0.190  54.832  1.00  0.00     0.139 C 
HETATM   25  O1  UNL     1      25.707  -0.897  55.842  1.00  0.00    -0.650 OA
BRANCH  24  26
HETATM   26  O2  UNL     1      26.817   0.842  55.163  1.00  0.00    -0.776 OA
HETATM   27  H8  UNL     1      27.341   1.376  54.461  1.00  0.00     0.167 HD
ENDBRANCH  24  26
ENDBRANCH  23  24
ENDBRANCH  22  23
ENDBRANCH   3  22
TORSDOF 5
ENDMDL
MODEL 8
REMARK VINA RESULT:      -8.0      5.208      6.492
REMARK  5 active torsions:
REMARK  status: ('A' for Active; 'I' for Inactive)
REMARK    1  A    between atoms: C3_3  and  C4_4 
REMARK    2  A    between atoms: C4_4  and  C5_5 
REMARK    3  A    between atoms: C5_5  and  C6_6 
REMARK    4  A    between atoms: C6_6  and  O2_8 
REMARK    5  A    between atoms: C9_11  and  C10_12 
ROOT
HETATM    1  C1  UNL     1      27.326   8.557  48.660  1.00  0.00     0.070 C 
HETATM    2  C2  UNL     1      26.949   7.178  49.039  1.00  0.00     0.031 C 
HETATM    3  C3  UNL     1      27.744   6.235  48.505  1.00  0.00    -0.052 C 
HETATM    4  C7  UNL     1      27.660   4.774  48.669  1.00  0.00     0.066 C 
HETATM    5  C8  UNL     1      26.369   4.227  49.048  1.00  0.00     0.017 C 
HETATM    6  C9  UNL     1      25.352   4.617  49.821  1.00  0.00     0.096 C 
HETATM    7  O4  UNL     1      25.468   5.838  50.466  1.00  0.00    -0.238 OA
HETATM    8  N2  UNL     1      25.805   7.040  49.908  1.00  0.00    -0.265 N 
HETATM    9  H18 UNL     1      25.322   7.975  50.019  1.00  0.00     0.194 HD
ENDROOT
BRANCH   6  10
HETATM   10  C10 UNL     1      24.183   3.756  49.951  1.00  0.00     0.057 C 
HETATM   11  C11 UNL     1      23.970   2.773  50.770  1.00  0.00     0.047 A 
HETATM   12  C12 UNL     1      24.763   2.174  51.821  1.00  0.00     0.257 A 
HETATM   13  C18 UNL     1      22.726   1.979  50.790  1.00  0.00     0.006 A 
HETATM   14  O3  UNL     1      25.905   2.517  52.174  1.00  0.00    -0.267 OA
HETATM   15  N1  UNL     1      24.090   1.090  52.462  1.00  0.00    -0.322 N 
HETATM   16  C13 UNL     1      22.850   1.032  51.774  1.00  0.00     0.046 A 
HETATM   17  H13 UNL     1      24.403   0.478  53.237  1.00  0.00     0.169 HD
HETATM   18  C14 UNL     1      21.769   0.164  51.964  1.00  0.00     0.030 A 
HETATM   19  C15 UNL     1      20.626   0.216  51.230  1.00  0.00     0.002 A 
HETATM   20  C16 UNL     1      20.500   1.159  50.246  1.00  0.00     0.001 A 
HETATM   21  C17 UNL     1      21.555   2.020  50.048  1.00  0.00     0.015 A 
ENDBRANCH   6  10
BRANCH   3  22
HETATM   22  C4  UNL     1      28.859   6.693  47.635  1.00  0.00     0.047 C 
BRANCH  22  23
HETATM   23  C5  UNL     1      30.112   5.865  47.771  1.00  0.00     0.114 C 
BRANCH  23  24
HETATM   24  C6  UNL     1      30.810   6.380  49.002  1.00  0.00     0.139 C 
HETATM   25  O1  UNL     1      31.223   7.563  49.096  1.00  0.00    -0.650 OA
BRANCH  24  26
HETATM   26  O2  UNL     1      31.097   5.678  50.167  1.00  0.00    -0.776 OA
HETATM   27  H8  UNL     1      30.904   4.676  50.276  1.00  0.00     0.167 HD
ENDBRANCH  24  26
ENDBRANCH  23  24
ENDBRANCH  22  23
ENDBRANCH   3  22
TORSDOF 5
ENDMDL
MODEL 9
REMARK VINA RESULT:      -7.9      7.858     11.812
REMARK  5 active torsions:
REMARK  status: ('A' for Active; 'I' for Inactive)
REMARK    1  A    between atoms: C3_3  and  C4_4 
REMARK    2  A    between atoms: C4_4  and  C5_5 
REMARK    3  A    between atoms: C5_5  and  C6_6 
REMARK    4  A    between atoms: C6_6  and  O2_8 
REMARK    5  A    between atoms: C9_11  and  C10_12 
ROOT
HETATM    1  C1  UNL     1      26.980   9.491  50.516  1.00  0.00     0.070 C 
HETATM    2  C2  UNL     1      27.405   8.402  49.609  1.00  0.00     0.031 C 
HETATM    3  C3  UNL     1      26.472   7.450  49.433  1.00  0.00    -0.052 C 
HETATM    4  C7  UNL     1      26.556   6.235  48.606  1.00  0.00     0.066 C 
HETATM    5  C8  UNL     1      27.886   5.739  48.298  1.00  0.00     0.017 C 
HETATM    6  C9  UNL     1      29.079   6.284  48.050  1.00  0.00     0.096 C 
HETATM    7  O4  UNL     1      29.169   7.667  48.068  1.00  0.00    -0.238 OA
HETATM    8  N2  UNL     1      28.731   8.512  49.051  1.00  0.00    -0.265 N 
HETATM    9  H18 UNL     1      29.252   9.309  49.512  1.00  0.00     0.194 HD
ENDROOT
BRANCH   6  10
HETATM   10  C10 UNL     1      30.217   5.416  47.775  1.00  0.00     0.057 C 
HETATM   11  C11 UNL     1      31.461   5.553  48.118  1.00  0.00     0.047 A 
HETATM   12  C12 UNL     1      32.172   6.565  48.867  1.00  0.00     0.257 A 
HETATM   13  C18 UNL     1      32.519   4.585  47.766  1.00  0.00     0.006 A 
HETATM   14  O3  UNL     1      31.686   7.591  49.374  1.00  0.00    -0.267 OA
HETATM   15  N1  UNL     1      33.565   6.275  48.989  1.00  0.00    -0.322 N 
HETATM   16  C13 UNL     1      33.699   5.048  48.288  1.00  0.00     0.046 A 
HETATM   17  H13 UNL     1      34.317   6.808  49.462  1.00  0.00     0.169 HD
HETATM   18  C14 UNL     1      34.842   4.271  48.069  1.00  0.00     0.030 A 
HETATM   19  C15 UNL     1      34.833   3.103  47.373  1.00  0.00     0.002 A 
HETATM   20  C16 UNL     1      33.657   2.639  46.850  1.00  0.00     0.001 A 
HETATM   21  C17 UNL     1      32.524   3.392  47.059  1.00  0.00     0.015 A 
ENDBRANCH   6  10
BRANCH   3  22
HETATM   22  C4  UNL     1      25.182   7.616  50.154  1.00  0.00     0.047 C 
BRANCH  22  23
HETATM   23  C5  UNL     1      24.227   6.466  49.957  1.00  0.00     0.114 C 
BRANCH  23  24
HETATM   24  C6  UNL     1      23.646   6.179  51.317  1.00  0.00     0.139 C 
HETATM   25  O1  UNL     1      22.516   5.650  51.467  1.00  0.00    -0.650 OA
BRANCH  24  26
HETATM   26  O2  UNL     1      24.225   6.435  52.554  1.00  0.00    -0.776 OA
HETATM   27  H8  UNL     1      24.934   5.825  52.975  1.00  0.00     0.167 HD
ENDBRANCH  24  26
ENDBRANCH  23  24
ENDBRANCH  22  23
ENDBRANCH   3  22
TORSDOF 5
ENDMDL
