MODEL 1
REMARK VINA RESULT:      -9.1      0.000      0.000
REMARK  3 active torsions:
REMARK  status: ('A' for Active; 'I' for Inactive)
REMARK    1  A    between atoms: N1_8  and  N2_9 
REMARK    2  A    between atoms: C13_19  and  C14_20 
REMARK    3  A    between atoms: C16_24  and  O3_25 
ROOT
HETATM    1  C1  UNL     1      24.896  -0.540  54.075  1.00  0.00     0.028 C 
HETATM    2  C2  UNL     1      24.452   0.392  53.216  1.00  0.00     0.045 A 
HETATM    3  C3  UNL     1      25.728   0.573  52.549  1.00  0.00     0.041 A 
HETATM    4  C4  UNL     1      26.741   1.001  51.746  1.00  0.00     0.055 A 
HETATM    5 BR1  UNL     1      24.978   1.055  52.388  1.00  0.00    -0.136 Br
HETATM    6  C5  UNL     1      26.285   2.286  51.166  1.00  0.00     0.015 C 
HETATM    7  C6  UNL     1      25.662   3.361  50.816  1.00  0.00     0.110 C 
HETATM    8  N1  UNL     1      25.079   4.539  50.377  1.00  0.00    -0.272 N 
HETATM    9  C7  UNL     1      23.756   4.197  49.938  1.00  0.00     0.168 A 
HETATM   10  N3  UNL     1      23.765   4.707  48.693  1.00  0.00    -0.221 NA
HETATM   11  C8  UNL     1      22.716   4.651  47.839  1.00  0.00     0.235 A 
HETATM   12  N4  UNL     1      21.518   4.057  48.166  1.00  0.00    -0.252 NA
HETATM   13  C9  UNL     1      21.575   3.537  49.473  1.00  0.00     0.145 A 
HETATM   14  C10 UNL     1      22.626   3.547  50.435  1.00  0.00     0.078 A 
HETATM   15  N5  UNL     1      22.354   2.951  51.669  1.00  0.00    -0.256 NA
HETATM   16  C11 UNL     1      22.316   1.831  52.510  1.00  0.00     0.032 A 
HETATM   17  C12 UNL     1      23.092   0.875  53.089  1.00  0.00    -0.006 A 
HETATM   18  C13 UNL     1      22.127   0.094  53.791  1.00  0.00     0.012 A 
HETATM   19  C15 UNL     1      20.904   0.479  53.713  1.00  0.00     0.025 A 
HETATM   20  C16 UNL     1      20.888   1.725  52.852  1.00  0.00     0.189 A 
HETATM   21  H10 UNL     1      22.720   2.163  51.029  1.00  0.00     0.134 HD
ENDROOT
BRANCH  18  22
HETATM   22  C14 UNL     1      22.112  -1.095  54.578  1.00  0.00     0.155 A 
HETATM   23  O1  UNL     1      21.116  -1.825  54.881  1.00  0.00    -0.188 OA
HETATM   24  O2  UNL     1      22.189  -2.190  55.318  1.00  0.00     0.000 OA
HETATM   25  H11 UNL     1      23.048  -2.673  55.637  1.00  0.00     0.000 HD
ENDBRANCH  18  22
BRANCH  20  26
HETATM   26  O3  UNL     1      19.998   1.548  51.804  1.00  0.00    -0.381 OA
HETATM   27  C17 UNL     1      19.149   0.507  52.189  1.00  0.00     0.202 C 
ENDBRANCH  20  26
BRANCH   8  28
HETATM   28  N2  UNL     1      25.621   5.826  50.365  1.00  0.00    -0.242 NA
HETATM   29  H6  UNL     1      26.102   5.966  49.428  1.00  0.00     0.143 HD
HETATM   30  H7  UNL     1      26.379   5.949  51.059  1.00  0.00     0.143 HD
ENDBRANCH   8  28
TORSDOF 3
ENDMDL
MODEL 2
REMARK VINA RESULT:      -8.8      2.219      4.266
REMARK  3 active torsions:
REMARK  status: ('A' for Active; 'I' for Inactive)
REMARK    1  A    between atoms: N1_8  and  N2_9 
REMARK    2  A    between atoms: C13_19  and  C14_20 
REMARK    3  A    between atoms: C16_24  and  O3_25 
ROOT
HETATM    1  C1  UNL     1      22.381  -1.187  53.838  1.00  0.00     0.028 C 
HETATM    2  C2  UNL     1      22.826  -0.228  53.010  1.00  0.00     0.045 A 
HETATM    3  C3  UNL     1      21.522   0.078  52.452  1.00  0.00     0.041 A 
HETATM    4  C4  UNL     1      20.494   0.589  51.719  1.00  0.00     0.055 A 
HETATM    5 BR1  UNL     1      22.307   0.440  52.181  1.00  0.00    -0.136 Br
HETATM    6  C5  UNL     1      21.120   1.287  50.573  1.00  0.00     0.015 C 
HETATM    7  C6  UNL     1      21.902   1.805  49.686  1.00  0.00     0.110 C 
HETATM    8  N1  UNL     1      22.653   2.400  48.684  1.00  0.00    -0.272 N 
HETATM    9  C7  UNL     1      23.668   3.171  49.343  1.00  0.00     0.168 A 
HETATM   10  N3  UNL     1      23.477   4.376  48.775  1.00  0.00    -0.221 NA
HETATM   11  C8  UNL     1      24.211   5.477  49.060  1.00  0.00     0.235 A 
HETATM   12  N4  UNL     1      25.241   5.472  49.973  1.00  0.00    -0.252 NA
HETATM   13  C9  UNL     1      25.384   4.190  50.536  1.00  0.00     0.145 A 
HETATM   14  C10 UNL     1      24.664   2.984  50.302  1.00  0.00     0.078 A 
HETATM   15  N5  UNL     1      25.072   1.858  51.023  1.00  0.00    -0.256 NA
HETATM   16  C11 UNL     1      25.017   1.042  52.160  1.00  0.00     0.032 A 
HETATM   17  C12 UNL     1      24.185   0.264  52.905  1.00  0.00    -0.006 A 
HETATM   18  C13 UNL     1      25.045  -0.168  53.958  1.00  0.00     0.012 A 
HETATM   19  C15 UNL     1      26.263   0.239  53.912  1.00  0.00     0.025 A 
HETATM   20  C16 UNL     1      26.398   1.091  52.667  1.00  0.00     0.189 A 
HETATM   21  H10 UNL     1      24.350   2.366  51.643  1.00  0.00     0.134 HD
ENDROOT
BRANCH  18  22
HETATM   22  C14 UNL     1      24.936  -0.939  55.151  1.00  0.00     0.155 A 
HETATM   23  O1  UNL     1      25.692  -0.919  56.174  1.00  0.00    -0.188 OA
HETATM   24  O2  UNL     1      24.758  -1.694  56.225  1.00  0.00     0.000 OA
HETATM   25  H11 UNL     1      23.941  -2.289  56.445  1.00  0.00     0.000 HD
ENDBRANCH  18  22
BRANCH  20  26
HETATM   26  O3  UNL     1      26.901   2.336  53.014  1.00  0.00    -0.381 OA
HETATM   27  C17 UNL     1      28.186   2.108  53.511  1.00  0.00     0.202 C 
ENDBRANCH  20  26
BRANCH   8  28
HETATM   28  N2  UNL     1      22.503   2.286  47.300  1.00  0.00    -0.242 NA
HETATM   29  H6  UNL     1      21.813   3.031  46.987  1.00  0.00     0.143 HD
HETATM   30  H7  UNL     1      22.058   1.395  47.017  1.00  0.00     0.143 HD
ENDBRANCH   8  28
TORSDOF 3
ENDMDL
MODEL 3
REMARK VINA RESULT:      -8.7      2.117      4.361
REMARK  3 active torsions:
REMARK  status: ('A' for Active; 'I' for Inactive)
REMARK    1  A    between atoms: N1_8  and  N2_9 
REMARK    2  A    between atoms: C13_19  and  C14_20 
REMARK    3  A    between atoms: C16_24  and  O3_25 
ROOT
HETATM    1  C1  UNL     1      21.985  -1.446  54.416  1.00  0.00     0.028 C 
HETATM    2  C2  UNL     1      22.139  -0.471  53.505  1.00  0.00     0.045 A 
HETATM    3  C3  UNL     1      20.719  -0.252  53.306  1.00  0.00     0.041 A 
HETATM    4  C4  UNL     1      19.506   0.187  52.868  1.00  0.00     0.055 A 
HETATM    5 BR1  UNL     1      21.382   0.154  52.842  1.00  0.00    -0.136 Br
HETATM    6  C5  UNL     1      19.768   0.909  51.602  1.00  0.00     0.015 C 
HETATM    7  C6  UNL     1      20.260   1.464  50.545  1.00  0.00     0.110 C 
HETATM    8  N1  UNL     1      20.687   2.093  49.386  1.00  0.00    -0.272 N 
HETATM    9  C7  UNL     1      21.789   2.931  49.763  1.00  0.00     0.168 A 
HETATM   10  N3  UNL     1      21.383   4.116  49.270  1.00  0.00    -0.221 NA
HETATM   11  C8  UNL     1      22.095   5.263  49.360  1.00  0.00     0.235 A 
HETATM   12  N4  UNL     1      23.325   5.332  49.975  1.00  0.00    -0.252 NA
HETATM   13  C9  UNL     1      23.689   4.067  50.475  1.00  0.00     0.145 A 
HETATM   14  C10 UNL     1      23.009   2.816  50.429  1.00  0.00     0.078 A 
HETATM   15  N5  UNL     1      23.659   1.726  51.013  1.00  0.00    -0.256 NA
HETATM   16  C11 UNL     1      23.951   0.920  52.122  1.00  0.00     0.032 A 
HETATM   17  C12 UNL     1      23.391   0.101  53.053  1.00  0.00    -0.006 A 
HETATM   18  C13 UNL     1      24.520  -0.265  53.845  1.00  0.00     0.012 A 
HETATM   19  C15 UNL     1      25.656   0.215  53.487  1.00  0.00     0.025 A 
HETATM   20  C16 UNL     1      25.411   1.060  52.253  1.00  0.00     0.189 A 
HETATM   21  H10 UNL     1      23.092   2.196  51.803  1.00  0.00     0.134 HD
ENDROOT
BRANCH  18  22
HETATM   22  C14 UNL     1      24.772  -1.027  55.022  1.00  0.00     0.155 A 
HETATM   23  O1  UNL     1      25.708  -0.880  55.870  1.00  0.00    -0.188 OA
HETATM   24  O2  UNL     1      24.931  -1.786  56.095  1.00  0.00     0.000 OA
HETATM   25  H11 UNL     1      24.274  -2.495  56.467  1.00  0.00     0.000 HD
ENDBRANCH  18  22
BRANCH  20  26
HETATM   26  O3  UNL     1      25.908   2.337  52.465  1.00  0.00    -0.381 OA
HETATM   27  C17 UNL     1      27.285   2.190  52.648  1.00  0.00     0.202 C 
ENDBRANCH  20  26
BRANCH   8  28
HETATM   28  N2  UNL     1      20.191   1.954  48.088  1.00  0.00    -0.242 NA
HETATM   29  H6  UNL     1      20.795   2.546  47.445  1.00  0.00     0.143 HD
HETATM   30  H7  UNL     1      19.240   2.350  47.977  1.00  0.00     0.143 HD
ENDBRANCH   8  28
TORSDOF 3
ENDMDL
MODEL 4
REMARK VINA RESULT:      -8.7      2.188      3.072
REMARK  3 active torsions:
REMARK  status: ('A' for Active; 'I' for Inactive)
REMARK    1  A    between atoms: N1_8  and  N2_9 
REMARK    2  A    between atoms: C13_19  and  C14_20 
REMARK    3  A    between atoms: C16_24  and  O3_25 
ROOT
HETATM    1  C1  UNL     1      26.998   1.441  51.921  1.00  0.00     0.028 C 
HETATM    2  C2  UNL     1      25.748   1.912  51.792  1.00  0.00     0.045 A 
HETATM    3  C3  UNL     1      26.097   2.947  50.837  1.00  0.00     0.041 A 
HETATM    4  C4  UNL     1      26.073   4.004  49.977  1.00  0.00     0.055 A 
HETATM    5 BR1  UNL     1      25.276   2.824  51.200  1.00  0.00    -0.136 Br
HETATM    6  C5  UNL     1      24.794   4.707  50.232  1.00  0.00     0.015 C 
HETATM    7  C6  UNL     1      23.646   5.124  50.648  1.00  0.00     0.110 C 
HETATM    8  N1  UNL     1      22.420   5.652  51.021  1.00  0.00    -0.272 N 
HETATM    9  C7  UNL     1      21.491   4.558  51.021  1.00  0.00     0.168 A 
HETATM   10  N3  UNL     1      20.527   5.047  50.220  1.00  0.00    -0.221 NA
HETATM   11  C8  UNL     1      19.392   4.382  49.900  1.00  0.00     0.235 A 
HETATM   12  N4  UNL     1      19.109   3.119  50.369  1.00  0.00    -0.252 NA
HETATM   13  C9  UNL     1      20.156   2.661  51.191  1.00  0.00     0.145 A 
HETATM   14  C10 UNL     1      21.377   3.284  51.579  1.00  0.00     0.078 A 
HETATM   15  N5  UNL     1      22.210   2.558  52.435  1.00  0.00    -0.256 NA
HETATM   16  C11 UNL     1      23.235   1.629  52.654  1.00  0.00     0.032 A 
HETATM   17  C12 UNL     1      24.553   1.383  52.417  1.00  0.00    -0.006 A 
HETATM   18  C13 UNL     1      24.729   0.104  53.023  1.00  0.00     0.012 A 
HETATM   19  C15 UNL     1      23.701  -0.413  53.593  1.00  0.00     0.025 A 
HETATM   20  C16 UNL     1      22.564   0.576  53.434  1.00  0.00     0.189 A 
HETATM   21  H10 UNL     1      22.482   2.266  51.431  1.00  0.00     0.134 HD
ENDROOT
BRANCH  18  22
HETATM   22  C14 UNL     1      25.774  -0.857  53.159  1.00  0.00     0.155 A 
HETATM   23  O1  UNL     1      26.387  -1.209  54.216  1.00  0.00    -0.188 OA
HETATM   24  O2  UNL     1      26.737  -1.764  53.194  1.00  0.00     0.000 OA
HETATM   25  H11 UNL     1      27.034  -2.396  52.429  1.00  0.00     0.000 HD
ENDBRANCH  18  22
BRANCH  20  26
HETATM   26  O3  UNL     1      21.483  -0.059  52.841  1.00  0.00    -0.381 OA
HETATM   27  C17 UNL     1      20.603  -0.373  53.879  1.00  0.00     0.202 C 
ENDBRANCH  20  26
BRANCH   8  28
HETATM   28  N2  UNL     1      22.106   6.970  51.359  1.00  0.00    -0.242 NA
HETATM   29  H6  UNL     1      22.623   7.609  50.685  1.00  0.00     0.143 HD
HETATM   30  H7  UNL     1      22.467   7.242  52.291  1.00  0.00     0.143 HD
ENDBRANCH   8  28
TORSDOF 3
ENDMDL
MODEL 5
REMARK VINA RESULT:      -8.6      1.845      2.972
REMARK  3 active torsions:
REMARK  status: ('A' for Active; 'I' for Inactive)
REMARK    1  A    between atoms: N1_8  and  N2_9 
REMARK    2  A    between atoms: C13_19  and  C14_20 
REMARK    3  A    between atoms: C16_24  and  O3_25 
ROOT
HETATM    1  C1  UNL     1      22.440  -1.300  54.190  1.00  0.00     0.028 C 
HETATM    2  C2  UNL     1      23.074  -0.322  53.525  1.00  0.00     0.045 A 
HETATM    3  C3  UNL     1      24.339  -1.026  53.433  1.00  0.00     0.041 A 
HETATM    4  C4  UNL     1      25.634  -1.374  53.194  1.00  0.00     0.055 A 
HETATM    5 BR1  UNL     1      24.191  -0.176  53.156  1.00  0.00    -0.136 Br
HETATM    6  C5  UNL     1      26.342  -0.114  52.871  1.00  0.00     0.015 C 
HETATM    7  C6  UNL     1      26.711   1.101  52.636  1.00  0.00     0.110 C 
HETATM    8  N1  UNL     1      27.207   2.366  52.364  1.00  0.00    -0.272 N 
HETATM    9  C7  UNL     1      26.314   2.954  51.407  1.00  0.00     0.168 A 
HETATM   10  N3  UNL     1      27.179   3.310  50.441  1.00  0.00    -0.221 NA
HETATM   11  C8  UNL     1      26.825   3.929  49.290  1.00  0.00     0.235 A 
HETATM   12  N4  UNL     1      25.523   4.261  48.992  1.00  0.00    -0.252 NA
HETATM   13  C9  UNL     1      24.668   3.857  50.034  1.00  0.00     0.145 A 
HETATM   14  C10 UNL     1      24.948   3.203  51.269  1.00  0.00     0.078 A 
HETATM   15  N5  UNL     1      23.859   2.953  52.109  1.00  0.00    -0.256 NA
HETATM   16  C11 UNL     1      22.798   2.144  52.535  1.00  0.00     0.032 A 
HETATM   17  C12 UNL     1      22.499   0.925  53.062  1.00  0.00    -0.006 A 
HETATM   18  C13 UNL     1      21.075   0.972  53.130  1.00  0.00     0.012 A 
HETATM   19  C15 UNL     1      20.513   2.056  52.732  1.00  0.00     0.025 A 
HETATM   20  C16 UNL     1      21.621   2.997  52.303  1.00  0.00     0.189 A 
HETATM   21  H10 UNL     1      23.932   2.102  51.448  1.00  0.00     0.134 HD
ENDROOT
BRANCH  18  22
HETATM   22  C14 UNL     1      20.014   0.094  53.496  1.00  0.00     0.155 A 
HETATM   23  O1  UNL     1      19.132  -0.432  52.746  1.00  0.00    -0.188 OA
HETATM   24  O2  UNL     1      19.058  -0.716  53.925  1.00  0.00     0.000 OA
HETATM   25  H11 UNL     1      18.965  -1.135  54.867  1.00  0.00     0.000 HD
ENDBRANCH  18  22
BRANCH  20  26
HETATM   26  O3  UNL     1      21.389   3.416  51.002  1.00  0.00    -0.381 OA
HETATM   27  C17 UNL     1      20.919   4.728  51.097  1.00  0.00     0.202 C 
ENDBRANCH  20  26
BRANCH   8  28
HETATM   28  N2  UNL     1      28.332   2.994  52.903  1.00  0.00    -0.242 NA
HETATM   29  H6  UNL     1      28.521   3.868  52.330  1.00  0.00     0.143 HD
HETATM   30  H7  UNL     1      29.195   2.431  52.797  1.00  0.00     0.143 HD
ENDBRANCH   8  28
TORSDOF 3
ENDMDL
MODEL 6
REMARK VINA RESULT:      -8.5      2.804      4.838
REMARK  3 active torsions:
REMARK  status: ('A' for Active; 'I' for Inactive)
REMARK    1  A    between atoms: N1_8  and  N2_9 
REMARK    2  A    between atoms: C13_19  and  C14_20 
REMARK    3  A    between atoms: C16_24  and  O3_25 
ROOT
HETATM    1  C1  UNL     1      24.696  -1.155  54.754  1.00  0.00     0.028 C 
HETATM    2  C2  UNL     1      24.086  -0.307  53.911  1.00  0.00     0.045 A 
HETATM    3  C3  UNL     1      22.753  -0.541  54.434  1.00  0.00     0.041 A 
HETATM    4  C4  UNL     1      21.408  -0.537  54.653  1.00  0.00     0.055 A 
HETATM    5 BR1  UNL     1      22.952  -0.024  53.717  1.00  0.00    -0.136 Br
HETATM    6  C5  UNL     1      20.800   0.055  53.439  1.00  0.00     0.015 C 
HETATM    7  C6  UNL     1      20.533   0.584  52.292  1.00  0.00     0.110 C 
HETATM    8  N1  UNL     1      20.140   1.150  51.089  1.00  0.00    -0.272 N 
HETATM    9  C7  UNL     1      20.956   2.316  50.905  1.00  0.00     0.168 A 
HETATM   10  N3  UNL     1      20.012   3.254  50.704  1.00  0.00    -0.221 NA
HETATM   11  C8  UNL     1      20.275   4.560  50.468  1.00  0.00     0.235 A 
HETATM   12  N4  UNL     1      21.553   5.066  50.409  1.00  0.00    -0.252 NA
HETATM   13  C9  UNL     1      22.491   4.041  50.634  1.00  0.00     0.145 A 
HETATM   14  C10 UNL     1      22.310   2.652  50.891  1.00  0.00     0.078 A 
HETATM   15  N5  UNL     1      23.468   1.886  51.055  1.00  0.00    -0.256 NA
HETATM   16  C11 UNL     1      24.485   1.356  51.859  1.00  0.00     0.032 A 
HETATM   17  C12 UNL     1      24.721   0.540  52.923  1.00  0.00    -0.006 A 
HETATM   18  C13 UNL     1      26.139   0.628  53.055  1.00  0.00     0.012 A 
HETATM   19  C15 UNL     1      26.754   1.367  52.203  1.00  0.00     0.025 A 
HETATM   20  C16 UNL     1      25.704   1.932  51.268  1.00  0.00     0.189 A 
HETATM   21  H10 UNL     1      23.220   2.271  52.033  1.00  0.00     0.134 HD
ENDROOT
BRANCH  18  22
HETATM   22  C14 UNL     1      27.142   0.136  53.940  1.00  0.00     0.155 A 
HETATM   23  O1  UNL     1      27.678   0.728  54.930  1.00  0.00    -0.188 OA
HETATM   24  O2  UNL     1      28.072  -0.400  54.714  1.00  0.00     0.000 OA
HETATM   25  H11 UNL     1      28.395  -1.384  54.719  1.00  0.00     0.000 HD
ENDBRANCH  18  22
BRANCH  20  26
HETATM   26  O3  UNL     1      25.805   3.314  51.246  1.00  0.00    -0.381 OA
HETATM   27  C17 UNL     1      26.457   3.635  50.053  1.00  0.00     0.202 C 
ENDBRANCH  20  26
BRANCH   8  28
HETATM   28  N2  UNL     1      19.167   0.701  50.193  1.00  0.00    -0.242 NA
HETATM   29  H6  UNL     1      19.505   0.924  49.211  1.00  0.00     0.143 HD
HETATM   30  H7  UNL     1      18.275   1.219  50.276  1.00  0.00     0.143 HD
ENDBRANCH   8  28
TORSDOF 3
ENDMDL
MODEL 7
REMARK VINA RESULT:      -8.4      3.357      6.286
REMARK  3 active torsions:
REMARK  status: ('A' for Active; 'I' for Inactive)
REMARK    1  A    between atoms: N1_8  and  N2_9 
REMARK    2  A    between atoms: C13_19  and  C14_20 
REMARK    3  A    between atoms: C16_24  and  O3_25 
ROOT
HETATM    1  C1  UNL     1      19.562   1.958  52.510  1.00  0.00     0.028 C 
HETATM    2  C2  UNL     1      20.846   1.613  52.697  1.00  0.00     0.045 A 
HETATM    3  C3  UNL     1      20.555   0.261  53.136  1.00  0.00     0.041 A 
HETATM    4  C4  UNL     1      20.642  -1.018  53.598  1.00  0.00     0.055 A 
HETATM    5 BR1  UNL     1      21.377   0.640  53.118  1.00  0.00    -0.136 Br
HETATM    6  C5  UNL     1      21.999  -1.151  54.175  1.00  0.00     0.015 C 
HETATM    7  C6  UNL     1      23.207  -1.000  54.605  1.00  0.00     0.110 C 
HETATM    8  N1  UNL     1      24.501  -0.943  55.099  1.00  0.00    -0.272 N 
HETATM    9  C7  UNL     1      25.307  -0.378  54.055  1.00  0.00     0.168 A 
HETATM   10  N3  UNL     1      26.272  -1.311  53.950  1.00  0.00    -0.221 NA
HETATM   11  C8  UNL     1      27.310  -1.239  53.085  1.00  0.00     0.235 A 
HETATM   12  N4  UNL     1      27.484  -0.189  52.213  1.00  0.00    -0.252 NA
HETATM   13  C9  UNL     1      26.443   0.746  52.365  1.00  0.00     0.145 A 
HETATM   14  C10 UNL     1      25.318   0.753  53.238  1.00  0.00     0.078 A 
HETATM   15  N5  UNL     1      24.463   1.856  53.153  1.00  0.00    -0.256 NA
HETATM   16  C11 UNL     1      23.359   2.512  52.594  1.00  0.00     0.032 A 
HETATM   17  C12 UNL     1      22.012   2.427  52.420  1.00  0.00    -0.006 A 
HETATM   18  C13 UNL     1      21.735   3.601  51.659  1.00  0.00     0.012 A 
HETATM   19  C15 UNL     1      22.734   4.361  51.386  1.00  0.00     0.025 A 
HETATM   20  C16 UNL     1      23.958   3.725  52.012  1.00  0.00     0.189 A 
HETATM   21  H10 UNL     1      24.106   1.141  52.427  1.00  0.00     0.134 HD
ENDROOT
BRANCH  18  22
HETATM   22  C14 UNL     1      20.605   4.203  51.033  1.00  0.00     0.155 A 
HETATM   23  O1  UNL     1      20.477   5.400  50.623  1.00  0.00    -0.188 OA
HETATM   24  O2  UNL     1      19.512   4.681  50.458  1.00  0.00     0.000 OA
HETATM   25  H11 UNL     1      18.683   4.146  50.144  1.00  0.00     0.000 HD
ENDBRANCH  18  22
BRANCH  20  26
HETATM   26  O3  UNL     1      24.932   3.547  51.041  1.00  0.00    -0.381 OA
HETATM   27  C17 UNL     1      24.991   4.746  50.329  1.00  0.00     0.202 C 
ENDBRANCH  20  26
BRANCH   8  28
HETATM   28  N2  UNL     1      24.970  -1.324  56.358  1.00  0.00    -0.242 NA
HETATM   29  H6  UNL     1      25.152  -0.440  56.917  1.00  0.00     0.143 HD
HETATM   30  H7  UNL     1      25.892  -1.793  56.318  1.00  0.00     0.143 HD
ENDBRANCH   8  28
TORSDOF 3
ENDMDL
MODEL 8
REMARK VINA RESULT:      -8.2      3.132      5.287
REMARK  3 active torsions:
REMARK  status: ('A' for Active; 'I' for Inactive)
REMARK    1  A    between atoms: N1_8  and  N2_9 
REMARK    2  A    between atoms: C13_19  and  C14_20 
REMARK    3  A    between atoms: C16_24  and  O3_25 
ROOT
HETATM    1  C1  UNL     1      25.176  -0.338  53.712  1.00  0.00     0.028 C 
HETATM    2  C2  UNL     1      24.103   0.252  53.163  1.00  0.00     0.045 A 
HETATM    3  C3  UNL     1      23.141  -0.372  54.053  1.00  0.00     0.041 A 
HETATM    4  C4  UNL     1      22.002  -0.783  54.676  1.00  0.00     0.055 A 
HETATM    5 BR1  UNL     1      22.936   0.161  53.350  1.00  0.00    -0.136 Br
HETATM    6  C5  UNL     1      20.891  -0.444  53.757  1.00  0.00     0.015 C 
HETATM    7  C6  UNL     1      20.127  -0.058  52.791  1.00  0.00     0.110 C 
HETATM    8  N1  UNL     1      19.221   0.323  51.813  1.00  0.00    -0.272 N 
HETATM    9  C7  UNL     1      19.540   1.680  51.473  1.00  0.00     0.168 A 
HETATM   10  N3  UNL     1      18.343   2.270  51.643  1.00  0.00    -0.221 NA
HETATM   11  C8  UNL     1      18.106   3.586  51.434  1.00  0.00     0.235 A 
HETATM   12  N4  UNL     1      19.082   4.464  51.020  1.00  0.00    -0.252 NA
HETATM   13  C9  UNL     1      20.308   3.790  50.868  1.00  0.00     0.145 A 
HETATM   14  C10 UNL     1      20.650   2.422  51.066  1.00  0.00     0.078 A 
HETATM   15  N5  UNL     1      21.975   2.061  50.808  1.00  0.00    -0.256 NA
HETATM   16  C11 UNL     1      23.305   1.898  51.217  1.00  0.00     0.032 A 
HETATM   17  C12 UNL     1      24.103   1.227  52.092  1.00  0.00    -0.006 A 
HETATM   18  C13 UNL     1      25.391   1.758  51.786  1.00  0.00     0.012 A 
HETATM   19  C15 UNL     1      25.449   2.627  50.843  1.00  0.00     0.025 A 
HETATM   20  C16 UNL     1      24.038   2.809  50.322  1.00  0.00     0.189 A 
HETATM   21  H10 UNL     1      21.945   2.376  51.840  1.00  0.00     0.134 HD
ENDROOT
BRANCH  18  22
HETATM   22  C14 UNL     1      26.722   1.629  52.279  1.00  0.00     0.155 A 
HETATM   23  O1  UNL     1      27.713   2.402  52.085  1.00  0.00    -0.188 OA
HETATM   24  O2  UNL     1      27.932   1.431  52.781  1.00  0.00     0.000 OA
HETATM   25  H11 UNL     1      28.213   0.726  53.485  1.00  0.00     0.000 HD
ENDBRANCH  18  22
BRANCH  20  26
HETATM   26  O3  UNL     1      23.699   4.153  50.371  1.00  0.00    -0.381 OA
HETATM   27  C17 UNL     1      24.906   4.855  50.380  1.00  0.00     0.202 C 
ENDBRANCH  20  26
BRANCH   8  28
HETATM   28  N2  UNL     1      18.201  -0.432  51.231  1.00  0.00    -0.242 NA
HETATM   29  H6  UNL     1      18.485  -0.641  50.228  1.00  0.00     0.143 HD
HETATM   30  H7  UNL     1      17.314   0.095  51.138  1.00  0.00     0.143 HD
ENDBRANCH   8  28
TORSDOF 3
ENDMDL
MODEL 9
REMARK VINA RESULT:      -8.0      1.950      2.826
REMARK  3 active torsions:
REMARK  status: ('A' for Active; 'I' for Inactive)
REMARK    1  A    between atoms: N1_8  and  N2_9 
REMARK    2  A    between atoms: C13_19  and  C14_20 
REMARK    3  A    between atoms: C16_24  and  O3_25 
ROOT
HETATM    1  C1  UNL     1      21.145  -1.431  54.529  1.00  0.00     0.028 C 
HETATM    2  C2  UNL     1      21.280  -0.488  53.583  1.00  0.00     0.045 A 
HETATM    3  C3  UNL     1      22.728  -0.425  53.667  1.00  0.00     0.041 A 
HETATM    4  C4  UNL     1      24.040  -0.099  53.505  1.00  0.00     0.055 A 
HETATM    5 BR1  UNL     1      22.209   0.111  53.154  1.00  0.00    -0.136 Br
HETATM    6  C5  UNL     1      24.051   1.203  52.799  1.00  0.00     0.015 C 
HETATM    7  C6  UNL     1      23.785   2.315  52.201  1.00  0.00     0.110 C 
HETATM    8  N1  UNL     1      23.606   3.525  51.548  1.00  0.00    -0.272 N 
HETATM    9  C7  UNL     1      22.673   3.278  50.486  1.00  0.00     0.168 A 
HETATM   10  N3  UNL     1      23.359   3.755  49.432  1.00  0.00    -0.221 NA
HETATM   11  C8  UNL     1      22.896   3.762  48.160  1.00  0.00     0.235 A 
HETATM   12  N4  UNL     1      21.656   3.273  47.815  1.00  0.00    -0.252 NA
HETATM   13  C9  UNL     1      20.993   2.783  48.956  1.00  0.00     0.145 A 
HETATM   14  C10 UNL     1      21.399   2.733  50.321  1.00  0.00     0.078 A 
HETATM   15  N5  UNL     1      20.486   2.191  51.230  1.00  0.00    -0.256 NA
HETATM   16  C11 UNL     1      19.932   1.099  51.910  1.00  0.00     0.032 A 
HETATM   17  C12 UNL     1      20.222   0.099  52.786  1.00  0.00    -0.006 A 
HETATM   18  C13 UNL     1      18.974  -0.586  52.879  1.00  0.00     0.012 A 
HETATM   19  C15 UNL     1      18.000  -0.106  52.193  1.00  0.00     0.025 A 
HETATM   20  C16 UNL     1      18.527   1.116  51.469  1.00  0.00     0.189 A 
HETATM   21  H10 UNL     1      21.063   1.361  50.852  1.00  0.00     0.134 HD
ENDROOT
BRANCH  18  22
HETATM   22  C14 UNL     1      18.462  -1.749  53.523  1.00  0.00     0.155 A 
HETATM   23  O1  UNL     1      17.430  -2.428  53.219  1.00  0.00    -0.188 OA
HETATM   24  O2  UNL     1      18.057  -2.825  54.181  1.00  0.00     0.000 OA
HETATM   25  H11 UNL     1      18.566  -3.336  54.924  1.00  0.00     0.000 HD
ENDBRANCH  18  22
BRANCH  20  26
HETATM   26  O3  UNL     1      18.289   0.983  50.110  1.00  0.00    -0.381 OA
HETATM   27  C17 UNL     1      17.149   0.185  49.993  1.00  0.00     0.202 C 
ENDBRANCH  20  26
BRANCH   8  28
HETATM   28  N2  UNL     1      24.180   4.764  51.840  1.00  0.00    -0.242 NA
HETATM   29  H6  UNL     1      24.734   4.660  52.741  1.00  0.00     0.143 HD
HETATM   30  H7  UNL     1      23.475   5.491  52.061  1.00  0.00     0.143 HD
ENDBRANCH   8  28
TORSDOF 3
ENDMDL
