MODEL 1
REMARK VINA RESULT:      -6.9      0.000      0.000
REMARK  6 active torsions:
REMARK  status: ('A' for Active; 'I' for Inactive)
REMARK    1  A    between atoms: C2_2  and  C3_3 
REMARK    2  A    between atoms: C7_9  and  N3_10 
REMARK    3  A    between atoms: N3_10  and  C8_11 
REMARK    4  A    between atoms: C8_11  and  C9_12 
REMARK    5  A    between atoms: C9_12  and  C10_13 
REMARK    6  A    between atoms: C10_13  and  C11_14 
ROOT
HETATM    1  C3  UNL     1      26.032   3.938  49.441  1.00  0.00    -0.055 C 
HETATM    2  C4  UNL     1      24.642   4.193  49.326  1.00  0.00     0.037 C 
HETATM    3  C5  UNL     1      23.694   3.301  49.999  1.00  0.00     0.070 A 
HETATM    4  N1  UNL     1      23.358   2.965  48.746  1.00  0.00    -0.241 NA
HETATM    5  C6  UNL     1      22.411   1.995  48.490  1.00  0.00     0.235 A 
HETATM    6  N2  UNL     1      21.837   1.383  49.571  1.00  0.00    -0.224 NA
HETATM    7  C7  UNL     1      22.280   1.834  50.761  1.00  0.00     0.139 A 
HETATM    8  C12 UNL     1      23.248   2.842  51.164  1.00  0.00     0.040 A 
HETATM    9  C13 UNL     1      23.539   3.012  52.629  1.00  0.00     0.212 C 
HETATM   10  O1  UNL     1      24.703   2.450  52.797  1.00  0.00    -0.384 OA
HETATM   11  C14 UNL     1      25.770   1.934  53.120  1.00  0.00     0.194 C 
HETATM   12  C15 UNL     1      26.877   1.608  52.022  1.00  0.00     0.194 C 
HETATM   13  O2  UNL     1      27.262   2.759  51.396  1.00  0.00    -0.385 OA
HETATM   14  C16 UNL     1      26.478   3.015  50.330  1.00  0.00     0.202 C 
ENDROOT
BRANCH   7  15
HETATM   15  N3  UNL     1      21.543   1.107  51.698  1.00  0.00    -0.351 N 
HETATM   16  H8  UNL     1      20.687   1.730  52.062  1.00  0.00     0.166 HD
BRANCH  15  17
HETATM   17  C8  UNL     1      20.976   0.267  52.583  1.00  0.00     0.085 C 
BRANCH  17  18
HETATM   18  C9  UNL     1      20.457  -0.458  53.434  1.00  0.00    -0.009 C 
BRANCH  18  19
HETATM   19  C10 UNL     1      21.183  -1.456  54.196  1.00  0.00     0.043 C 
BRANCH  19  20
HETATM   20  C11 UNL     1      22.342  -1.164  55.066  1.00  0.00     0.118 C 
HETATM   21 CL1  UNL     1      23.844  -0.796  54.247  1.00  0.00    -0.130 Cl
ENDBRANCH  19  20
ENDBRANCH  18  19
ENDBRANCH  17  18
ENDBRANCH  15  17
ENDBRANCH   7  15
BRANCH   1  22
HETATM   22  C2  UNL     1      27.277   4.617  48.884  1.00  0.00     0.032 C 
HETATM   23  C1  UNL     1      27.081   6.047  48.508  1.00  0.00     0.010 C 
ENDBRANCH   1  22
TORSDOF 6
ENDMDL
MODEL 2
REMARK VINA RESULT:      -6.8      2.406      3.496
REMARK  6 active torsions:
REMARK  status: ('A' for Active; 'I' for Inactive)
REMARK    1  A    between atoms: C2_2  and  C3_3 
REMARK    2  A    between atoms: C7_9  and  N3_10 
REMARK    3  A    between atoms: N3_10  and  C8_11 
REMARK    4  A    between atoms: C8_11  and  C9_12 
REMARK    5  A    between atoms: C9_12  and  C10_13 
REMARK    6  A    between atoms: C10_13  and  C11_14 
ROOT
HETATM    1  C3  UNL     1      26.011   4.619  49.759  1.00  0.00    -0.055 C 
HETATM    2  C4  UNL     1      26.465   3.283  49.893  1.00  0.00     0.037 C 
HETATM    3  C5  UNL     1      25.877   2.430  50.930  1.00  0.00     0.070 A 
HETATM    4  N1  UNL     1      27.101   2.506  51.470  1.00  0.00    -0.241 NA
HETATM    5  C6  UNL     1      27.396   1.906  52.677  1.00  0.00     0.235 A 
HETATM    6  N2  UNL     1      26.380   1.238  53.305  1.00  0.00    -0.224 NA
HETATM    7  C7  UNL     1      25.212   1.251  52.633  1.00  0.00     0.139 A 
HETATM    8  C12 UNL     1      24.778   1.826  51.370  1.00  0.00     0.040 A 
HETATM    9  C13 UNL     1      23.332   1.693  50.981  1.00  0.00     0.212 C 
HETATM   10  O1  UNL     1      22.827   2.875  51.195  1.00  0.00    -0.384 OA
HETATM   11  C14 UNL     1      22.201   3.916  51.375  1.00  0.00     0.194 C 
HETATM   12  C15 UNL     1      22.965   5.308  51.507  1.00  0.00     0.194 C 
HETATM   13  O2  UNL     1      23.671   5.559  50.365  1.00  0.00    -0.385 OA
HETATM   14  C16 UNL     1      24.909   5.030  50.436  1.00  0.00     0.202 C 
ENDROOT
BRANCH   7  15
HETATM   15  N3  UNL     1      24.352   0.492  53.430  1.00  0.00    -0.351 N 
HETATM   16  H8  UNL     1      24.636   0.615  54.506  1.00  0.00     0.166 HD
BRANCH  15  17
HETATM   17  C8  UNL     1      23.447  -0.308  54.025  1.00  0.00     0.085 C 
BRANCH  17  18
HETATM   18  C9  UNL     1      22.635  -1.083  54.530  1.00  0.00    -0.009 C 
BRANCH  18  19
HETATM   19  C10 UNL     1      21.202  -0.997  54.329  1.00  0.00     0.043 C 
BRANCH  19  20
HETATM   20  C11 UNL     1      20.504   0.188  53.785  1.00  0.00     0.118 C 
HETATM   21 CL1  UNL     1      20.207   0.179  52.060  1.00  0.00    -0.130 Cl
ENDBRANCH  19  20
ENDBRANCH  18  19
ENDBRANCH  17  18
ENDBRANCH  15  17
ENDBRANCH   7  15
BRANCH   1  22
HETATM   22  C2  UNL     1      26.387   5.771  48.836  1.00  0.00     0.032 C 
HETATM   23  C1  UNL     1      27.810   5.760  48.387  1.00  0.00     0.010 C 
ENDBRANCH   1  22
TORSDOF 6
ENDMDL
MODEL 3
REMARK VINA RESULT:      -6.6      3.560      4.935
REMARK  6 active torsions:
REMARK  status: ('A' for Active; 'I' for Inactive)
REMARK    1  A    between atoms: C2_2  and  C3_3 
REMARK    2  A    between atoms: C7_9  and  N3_10 
REMARK    3  A    between atoms: N3_10  and  C8_11 
REMARK    4  A    between atoms: C8_11  and  C9_12 
REMARK    5  A    between atoms: C9_12  and  C10_13 
REMARK    6  A    between atoms: C10_13  and  C11_14 
ROOT
HETATM    1  C3  UNL     1      25.786   1.130  53.082  1.00  0.00    -0.055 C 
HETATM    2  C4  UNL     1      25.262  -0.186  53.135  1.00  0.00     0.037 C 
HETATM    3  C5  UNL     1      23.817  -0.374  53.290  1.00  0.00     0.070 A 
HETATM    4  N1  UNL     1      24.166  -0.865  54.487  1.00  0.00    -0.241 NA
HETATM    5  C6  UNL     1      23.218  -1.286  55.398  1.00  0.00     0.235 A 
HETATM    6  N2  UNL     1      21.905  -1.171  55.029  1.00  0.00    -0.224 NA
HETATM    7  C7  UNL     1      21.721  -0.662  53.795  1.00  0.00     0.139 A 
HETATM    8  C12 UNL     1      22.617  -0.197  52.747  1.00  0.00     0.040 A 
HETATM    9  C13 UNL     1      22.019   0.394  51.502  1.00  0.00     0.212 C 
HETATM   10  O1  UNL     1      22.204   1.677  51.628  1.00  0.00    -0.384 OA
HETATM   11  C14 UNL     1      22.275   2.903  51.618  1.00  0.00     0.194 C 
HETATM   12  C15 UNL     1      23.313   3.663  52.557  1.00  0.00     0.194 C 
HETATM   13  O2  UNL     1      24.586   3.273  52.249  1.00  0.00    -0.385 OA
HETATM   14  C16 UNL     1      24.945   2.188  52.965  1.00  0.00     0.202 C 
ENDROOT
BRANCH   7  15
HETATM   15  N3  UNL     1      20.335  -0.672  53.625  1.00  0.00    -0.351 N 
HETATM   16  H8  UNL     1      19.857  -0.057  54.429  1.00  0.00     0.166 HD
BRANCH  15  17
HETATM   17  C8  UNL     1      19.033  -0.815  53.313  1.00  0.00     0.085 C 
BRANCH  17  18
HETATM   18  C9  UNL     1      17.849  -0.904  52.985  1.00  0.00    -0.009 C 
BRANCH  18  19
HETATM   19  C10 UNL     1      17.097  -2.143  53.003  1.00  0.00     0.043 C 
BRANCH  19  20
HETATM   20  C11 UNL     1      17.452  -3.326  53.817  1.00  0.00     0.118 C 
HETATM   21 CL1  UNL     1      16.873  -4.867  53.226  1.00  0.00    -0.130 Cl
ENDBRANCH  19  20
ENDBRANCH  18  19
ENDBRANCH  17  18
ENDBRANCH  15  17
ENDBRANCH   7  15
BRANCH   1  22
HETATM   22  C2  UNL     1      27.193   1.699  52.948  1.00  0.00     0.032 C 
HETATM   23  C1  UNL     1      28.247   0.903  53.641  1.00  0.00     0.010 C 
ENDBRANCH   1  22
TORSDOF 6
ENDMDL
MODEL 4
REMARK VINA RESULT:      -6.5      2.721      6.475
REMARK  6 active torsions:
REMARK  status: ('A' for Active; 'I' for Inactive)
REMARK    1  A    between atoms: C2_2  and  C3_3 
REMARK    2  A    between atoms: C7_9  and  N3_10 
REMARK    3  A    between atoms: N3_10  and  C8_11 
REMARK    4  A    between atoms: C8_11  and  C9_12 
REMARK    5  A    between atoms: C9_12  and  C10_13 
REMARK    6  A    between atoms: C10_13  and  C11_14 
ROOT
HETATM    1  C3  UNL     1      22.996   0.551  52.801  1.00  0.00    -0.055 C 
HETATM    2  C4  UNL     1      22.439   1.385  51.798  1.00  0.00     0.037 C 
HETATM    3  C5  UNL     1      23.070   2.676  51.512  1.00  0.00     0.070 A 
HETATM    4  N1  UNL     1      21.936   3.170  52.028  1.00  0.00    -0.241 NA
HETATM    5  C6  UNL     1      21.740   4.529  52.171  1.00  0.00     0.235 A 
HETATM    6  N2  UNL     1      22.760   5.350  51.772  1.00  0.00    -0.224 NA
HETATM    7  C7  UNL     1      23.830   4.700  51.274  1.00  0.00     0.139 A 
HETATM    8  C12 UNL     1      24.154   3.299  51.061  1.00  0.00     0.040 A 
HETATM    9  C13 UNL     1      25.520   2.950  50.541  1.00  0.00     0.212 C 
HETATM   10  O1  UNL     1      26.158   2.490  51.581  1.00  0.00    -0.384 OA
HETATM   11  C14 UNL     1      26.896   2.068  52.466  1.00  0.00     0.194 C 
HETATM   12  C15 UNL     1      26.289   1.506  53.827  1.00  0.00     0.194 C 
HETATM   13  O2  UNL     1      25.472   0.443  53.566  1.00  0.00    -0.385 OA
HETATM   14  C16 UNL     1      24.209   0.850  53.332  1.00  0.00     0.202 C 
ENDROOT
BRANCH   7  15
HETATM   15  N3  UNL     1      24.708   5.722  50.907  1.00  0.00    -0.351 N 
HETATM   16  H8  UNL     1      25.322   6.022  51.793  1.00  0.00     0.166 HD
BRANCH  15  17
HETATM   17  C8  UNL     1      25.460   6.704  50.375  1.00  0.00     0.085 C 
BRANCH  17  18
HETATM   18  C9  UNL     1      26.106   7.609  49.846  1.00  0.00    -0.009 C 
BRANCH  18  19
HETATM   19  C10 UNL     1      26.838   7.460  48.603  1.00  0.00     0.043 C 
BRANCH  19  20
HETATM   20  C11 UNL     1      28.082   6.674  48.454  1.00  0.00     0.118 C 
HETATM   21 CL1  UNL     1      27.907   4.935  48.541  1.00  0.00    -0.130 Cl
ENDBRANCH  19  20
ENDBRANCH  18  19
ENDBRANCH  17  18
ENDBRANCH  15  17
ENDBRANCH   7  15
BRANCH   1  22
HETATM   22  C2  UNL     1      22.617  -0.811  53.368  1.00  0.00     0.032 C 
HETATM   23  C1  UNL     1      22.199  -0.786  54.800  1.00  0.00     0.010 C 
ENDBRANCH   1  22
TORSDOF 6
ENDMDL
MODEL 5
REMARK VINA RESULT:      -6.4      3.491      5.000
REMARK  6 active torsions:
REMARK  status: ('A' for Active; 'I' for Inactive)
REMARK    1  A    between atoms: C2_2  and  C3_3 
REMARK    2  A    between atoms: C7_9  and  N3_10 
REMARK    3  A    between atoms: N3_10  and  C8_11 
REMARK    4  A    between atoms: C8_11  and  C9_12 
REMARK    5  A    between atoms: C9_12  and  C10_13 
REMARK    6  A    between atoms: C10_13  and  C11_14 
ROOT
HETATM    1  C3  UNL     1      26.367   0.894  53.557  1.00  0.00    -0.055 C 
HETATM    2  C4  UNL     1      25.816  -0.412  53.573  1.00  0.00     0.037 C 
HETATM    3  C5  UNL     1      24.364  -0.573  53.691  1.00  0.00     0.070 A 
HETATM    4  N1  UNL     1      24.673  -1.091  54.887  1.00  0.00    -0.241 NA
HETATM    5  C6  UNL     1      23.694  -1.508  55.767  1.00  0.00     0.235 A 
HETATM    6  N2  UNL     1      22.393  -1.360  55.368  1.00  0.00    -0.224 NA
HETATM    7  C7  UNL     1      22.250  -0.826  54.139  1.00  0.00     0.139 A 
HETATM    8  C12 UNL     1      23.181  -0.362  53.122  1.00  0.00     0.040 A 
HETATM    9  C13 UNL     1      22.625   0.263  51.873  1.00  0.00     0.212 C 
HETATM   10  O1  UNL     1      22.834   1.540  52.028  1.00  0.00    -0.384 OA
HETATM   11  C14 UNL     1      22.929   2.765  52.041  1.00  0.00     0.194 C 
HETATM   12  C15 UNL     1      23.960   3.486  53.017  1.00  0.00     0.194 C 
HETATM   13  O2  UNL     1      25.232   3.075  52.734  1.00  0.00    -0.385 OA
HETATM   14  C16 UNL     1      25.550   1.971  53.438  1.00  0.00     0.202 C 
ENDROOT
BRANCH   7  15
HETATM   15  N3  UNL     1      20.869  -0.804  53.936  1.00  0.00    -0.351 N 
HETATM   16  H8  UNL     1      20.362  -0.433  54.862  1.00  0.00     0.166 HD
BRANCH  15  17
HETATM   17  C8  UNL     1      19.577  -0.872  53.563  1.00  0.00     0.085 C 
BRANCH  17  18
HETATM   18  C9  UNL     1      18.412  -0.960  53.171  1.00  0.00    -0.009 C 
BRANCH  18  19
HETATM   19  C10 UNL     1      17.967  -0.530  51.860  1.00  0.00     0.043 C 
BRANCH  19  20
HETATM   20  C11 UNL     1      18.668   0.469  51.024  1.00  0.00     0.118 C 
HETATM   21 CL1  UNL     1      18.801   2.078  51.698  1.00  0.00    -0.130 Cl
ENDBRANCH  19  20
ENDBRANCH  18  19
ENDBRANCH  17  18
ENDBRANCH  15  17
ENDBRANCH   7  15
BRANCH   1  22
HETATM   22  C2  UNL     1      27.788   1.435  53.467  1.00  0.00     0.032 C 
HETATM   23  C1  UNL     1      28.829   0.529  54.033  1.00  0.00     0.010 C 
ENDBRANCH   1  22
TORSDOF 6
ENDMDL
MODEL 6
REMARK VINA RESULT:      -6.4      3.176      7.048
REMARK  6 active torsions:
REMARK  status: ('A' for Active; 'I' for Inactive)
REMARK    1  A    between atoms: C2_2  and  C3_3 
REMARK    2  A    between atoms: C7_9  and  N3_10 
REMARK    3  A    between atoms: N3_10  and  C8_11 
REMARK    4  A    between atoms: C8_11  and  C9_12 
REMARK    5  A    between atoms: C9_12  and  C10_13 
REMARK    6  A    between atoms: C10_13  and  C11_14 
ROOT
HETATM    1  C3  UNL     1      23.053   0.008  52.910  1.00  0.00    -0.055 C 
HETATM    2  C4  UNL     1      24.202   0.711  53.350  1.00  0.00     0.037 C 
HETATM    3  C5  UNL     1      24.734   1.799  52.525  1.00  0.00     0.070 A 
HETATM    4  N1  UNL     1      25.767   0.962  52.359  1.00  0.00    -0.241 NA
HETATM    5  C6  UNL     1      26.835   1.286  51.548  1.00  0.00     0.235 A 
HETATM    6  N2  UNL     1      26.789   2.497  50.911  1.00  0.00    -0.224 NA
HETATM    7  C7  UNL     1      25.686   3.221  51.182  1.00  0.00     0.139 A 
HETATM    8  C12 UNL     1      24.512   3.006  52.013  1.00  0.00     0.040 A 
HETATM    9  C13 UNL     1      23.423   4.042  51.999  1.00  0.00     0.212 C 
HETATM   10  O1  UNL     1      22.476   3.509  51.279  1.00  0.00    -0.384 OA
HETATM   11  C14 UNL     1      21.513   3.158  50.602  1.00  0.00     0.194 C 
HETATM   12  C15 UNL     1      21.288   1.622  50.247  1.00  0.00     0.194 C 
HETATM   13  O2  UNL     1      21.144   0.898  51.396  1.00  0.00    -0.385 OA
HETATM   14  C16 UNL     1      22.339   0.474  51.854  1.00  0.00     0.202 C 
ENDROOT
BRANCH   7  15
HETATM   15  N3  UNL     1      25.872   4.406  50.466  1.00  0.00    -0.351 N 
HETATM   16  H8  UNL     1      26.390   5.156  51.116  1.00  0.00     0.166 HD
BRANCH  15  17
HETATM   17  C8  UNL     1      25.944   5.460  49.631  1.00  0.00     0.085 C 
BRANCH  17  18
HETATM   18  C9  UNL     1      26.068   6.427  48.879  1.00  0.00    -0.009 C 
BRANCH  18  19
HETATM   19  C10 UNL     1      27.286   7.206  48.760  1.00  0.00     0.043 C 
BRANCH  19  20
HETATM   20  C11 UNL     1      28.420   6.854  47.879  1.00  0.00     0.118 C 
HETATM   21 CL1  UNL     1      29.133   5.277  48.137  1.00  0.00    -0.130 Cl
ENDBRANCH  19  20
ENDBRANCH  18  19
ENDBRANCH  17  18
ENDBRANCH  15  17
ENDBRANCH   7  15
BRANCH   1  22
HETATM   22  C2  UNL     1      22.249  -1.155  53.476  1.00  0.00     0.032 C 
HETATM   23  C1  UNL     1      21.671  -0.904  54.828  1.00  0.00     0.010 C 
ENDBRANCH   1  22
TORSDOF 6
ENDMDL
MODEL 7
REMARK VINA RESULT:      -6.3      3.279      7.119
REMARK  6 active torsions:
REMARK  status: ('A' for Active; 'I' for Inactive)
REMARK    1  A    between atoms: C2_2  and  C3_3 
REMARK    2  A    between atoms: C7_9  and  N3_10 
REMARK    3  A    between atoms: N3_10  and  C8_11 
REMARK    4  A    between atoms: C8_11  and  C9_12 
REMARK    5  A    between atoms: C9_12  and  C10_13 
REMARK    6  A    between atoms: C10_13  and  C11_14 
ROOT
HETATM    1  C3  UNL     1      22.661   0.306  52.916  1.00  0.00    -0.055 C 
HETATM    2  C4  UNL     1      23.764   1.028  53.437  1.00  0.00     0.037 C 
HETATM    3  C5  UNL     1      24.558   1.867  52.535  1.00  0.00     0.070 A 
HETATM    4  N1  UNL     1      25.513   0.960  52.780  1.00  0.00    -0.241 NA
HETATM    5  C6  UNL     1      26.749   1.031  52.171  1.00  0.00     0.235 A 
HETATM    6  N2  UNL     1      26.954   2.064  51.297  1.00  0.00    -0.224 NA
HETATM    7  C7  UNL     1      25.899   2.890  51.161  1.00  0.00     0.139 A 
HETATM    8  C12 UNL     1      24.566   2.934  51.743  1.00  0.00     0.040 A 
HETATM    9  C13 UNL     1      23.613   3.997  51.272  1.00  0.00     0.212 C 
HETATM   10  O1  UNL     1      22.780   3.365  50.493  1.00  0.00    -0.384 OA
HETATM   11  C14 UNL     1      21.942   2.921  49.713  1.00  0.00     0.194 C 
HETATM   12  C15 UNL     1      21.638   1.359  49.653  1.00  0.00     0.194 C 
HETATM   13  O2  UNL     1      21.194   0.926  50.870  1.00  0.00    -0.385 OA
HETATM   14  C16 UNL     1      22.224   0.555  51.656  1.00  0.00     0.202 C 
ENDROOT
BRANCH   7  15
HETATM   15  N3  UNL     1      26.343   3.867  50.268  1.00  0.00    -0.351 N 
HETATM   16  H8  UNL     1      25.571   4.673  50.183  1.00  0.00     0.166 HD
BRANCH  15  17
HETATM   17  C8  UNL     1      26.927   4.686  49.372  1.00  0.00     0.085 C 
BRANCH  17  18
HETATM   18  C9  UNL     1      27.514   5.427  48.583  1.00  0.00    -0.009 C 
BRANCH  18  19
HETATM   19  C10 UNL     1      27.263   6.851  48.473  1.00  0.00     0.043 C 
BRANCH  19  20
HETATM   20  C11 UNL     1      26.534   7.652  49.481  1.00  0.00     0.118 C 
HETATM   21 CL1  UNL     1      27.356   9.079  50.070  1.00  0.00    -0.130 Cl
ENDBRANCH  19  20
ENDBRANCH  18  19
ENDBRANCH  17  18
ENDBRANCH  15  17
ENDBRANCH   7  15
BRANCH   1  22
HETATM   22  C2  UNL     1      21.646  -0.652  53.528  1.00  0.00     0.032 C 
HETATM   23  C1  UNL     1      22.016  -1.158  54.881  1.00  0.00     0.010 C 
ENDBRANCH   1  22
TORSDOF 6
ENDMDL
MODEL 8
REMARK VINA RESULT:      -6.3      2.381      3.558
REMARK  6 active torsions:
REMARK  status: ('A' for Active; 'I' for Inactive)
REMARK    1  A    between atoms: C2_2  and  C3_3 
REMARK    2  A    between atoms: C7_9  and  N3_10 
REMARK    3  A    between atoms: N3_10  and  C8_11 
REMARK    4  A    between atoms: C8_11  and  C9_12 
REMARK    5  A    between atoms: C9_12  and  C10_13 
REMARK    6  A    between atoms: C10_13  and  C11_14 
ROOT
HETATM    1  C3  UNL     1      26.953   5.557  48.882  1.00  0.00    -0.055 C 
HETATM    2  C4  UNL     1      27.036   4.146  48.990  1.00  0.00     0.037 C 
HETATM    3  C5  UNL     1      25.989   3.423  49.718  1.00  0.00     0.070 A 
HETATM    4  N1  UNL     1      26.980   3.174  50.585  1.00  0.00    -0.241 NA
HETATM    5  C6  UNL     1      26.757   2.471  51.752  1.00  0.00     0.235 A 
HETATM    6  N2  UNL     1      25.477   2.048  51.990  1.00  0.00    -0.224 NA
HETATM    7  C7  UNL     1      24.599   2.375  51.022  1.00  0.00     0.139 A 
HETATM    8  C12 UNL     1      24.703   3.090  49.759  1.00  0.00     0.040 A 
HETATM    9  C13 UNL     1      23.450   3.331  48.966  1.00  0.00     0.212 C 
HETATM   10  O1  UNL     1      23.180   4.592  49.159  1.00  0.00    -0.384 OA
HETATM   11  C14 UNL     1      22.777   5.746  49.270  1.00  0.00     0.194 C 
HETATM   12  C15 UNL     1      23.756   6.901  49.766  1.00  0.00     0.194 C 
HETATM   13  O2  UNL     1      24.809   7.017  48.904  1.00  0.00    -0.385 OA
HETATM   14  C16 UNL     1      25.818   6.199  49.262  1.00  0.00     0.202 C 
ENDROOT
BRANCH   7  15
HETATM   15  N3  UNL     1      23.393   1.819  51.454  1.00  0.00    -0.351 N 
HETATM   16  H8  UNL     1      22.635   2.632  51.588  1.00  0.00     0.166 HD
BRANCH  15  17
HETATM   17  C8  UNL     1      22.331   1.110  51.882  1.00  0.00     0.085 C 
BRANCH  17  18
HETATM   18  C9  UNL     1      21.381   0.467  52.329  1.00  0.00    -0.009 C 
BRANCH  18  19
HETATM   19  C10 UNL     1      20.836   0.651  53.660  1.00  0.00     0.043 C 
BRANCH  19  20
HETATM   20  C11 UNL     1      21.157  -0.207  54.821  1.00  0.00     0.118 C 
HETATM   21 CL1  UNL     1      22.067  -1.660  54.474  1.00  0.00    -0.130 Cl
ENDBRANCH  19  20
ENDBRANCH  18  19
ENDBRANCH  17  18
ENDBRANCH  15  17
ENDBRANCH   7  15
BRANCH   1  22
HETATM   22  C2  UNL     1      27.835   6.617  48.237  1.00  0.00     0.032 C 
HETATM   23  C1  UNL     1      29.291   6.293  48.242  1.00  0.00     0.010 C 
ENDBRANCH   1  22
TORSDOF 6
ENDMDL
MODEL 9
REMARK VINA RESULT:      -6.0      3.126      6.836
REMARK  6 active torsions:
REMARK  status: ('A' for Active; 'I' for Inactive)
REMARK    1  A    between atoms: C2_2  and  C3_3 
REMARK    2  A    between atoms: C7_9  and  N3_10 
REMARK    3  A    between atoms: N3_10  and  C8_11 
REMARK    4  A    between atoms: C8_11  and  C9_12 
REMARK    5  A    between atoms: C9_12  and  C10_13 
REMARK    6  A    between atoms: C10_13  and  C11_14 
ROOT
HETATM    1  C3  UNL     1      22.967   0.123  52.893  1.00  0.00    -0.055 C 
HETATM    2  C4  UNL     1      24.153   0.772  53.320  1.00  0.00     0.037 C 
HETATM    3  C5  UNL     1      24.720   1.840  52.492  1.00  0.00     0.070 A 
HETATM    4  N1  UNL     1      25.712   0.958  52.306  1.00  0.00    -0.241 NA
HETATM    5  C6  UNL     1      26.781   1.240  51.480  1.00  0.00     0.235 A 
HETATM    6  N2  UNL     1      26.779   2.455  50.849  1.00  0.00    -0.224 NA
HETATM    7  C7  UNL     1      25.714   3.226  51.142  1.00  0.00     0.139 A 
HETATM    8  C12 UNL     1      24.544   3.058  51.990  1.00  0.00     0.040 A 
HETATM    9  C13 UNL     1      23.503   4.141  51.998  1.00  0.00     0.212 C 
HETATM   10  O1  UNL     1      22.522   3.655  51.290  1.00  0.00    -0.384 OA
HETATM   11  C14 UNL     1      21.534   3.353  50.626  1.00  0.00     0.194 C 
HETATM   12  C15 UNL     1      21.236   1.830  50.267  1.00  0.00     0.194 C 
HETATM   13  O2  UNL     1      21.076   1.106  51.414  1.00  0.00    -0.385 OA
HETATM   14  C16 UNL     1      22.258   0.627  51.851  1.00  0.00     0.202 C 
ENDROOT
BRANCH   7  15
HETATM   15  N3  UNL     1      25.942   4.405  50.430  1.00  0.00    -0.351 N 
HETATM   16  H8  UNL     1      26.607   5.079  51.027  1.00  0.00     0.166 HD
BRANCH  15  17
HETATM   17  C8  UNL     1      26.029   5.470  49.610  1.00  0.00     0.085 C 
BRANCH  17  18
HETATM   18  C9  UNL     1      26.162   6.457  48.885  1.00  0.00    -0.009 C 
BRANCH  18  19
HETATM   19  C10 UNL     1      25.122   6.966  48.013  1.00  0.00     0.043 C 
BRANCH  19  20
HETATM   20  C11 UNL     1      23.673   6.860  48.291  1.00  0.00     0.118 C 
HETATM   21 CL1  UNL     1      22.744   5.898  47.162  1.00  0.00    -0.130 Cl
ENDBRANCH  19  20
ENDBRANCH  18  19
ENDBRANCH  17  18
ENDBRANCH  15  17
ENDBRANCH   7  15
BRANCH   1  22
HETATM   22  C2  UNL     1      22.121  -1.007  53.465  1.00  0.00     0.032 C 
HETATM   23  C1  UNL     1      21.467  -0.687  54.767  1.00  0.00     0.010 C 
ENDBRANCH   1  22
TORSDOF 6
ENDMDL
