MODEL 1
REMARK VINA RESULT:      -9.0      0.000      0.000
REMARK  2 active torsions:
REMARK  status: ('A' for Active; 'I' for Inactive)
REMARK    1  A    between atoms: O1_1  and  C1_2 
REMARK    2  A    between atoms: C7_8  and  N1_9 
ROOT
HETATM    1  C1  UNL     1      21.593   0.115  54.323  1.00  0.00     0.062 C 
HETATM    2  C2  UNL     1      21.430   1.115  53.392  1.00  0.00     0.113 C 
HETATM    3  C3  UNL     1      22.109   1.834  52.308  1.00  0.00     0.027 C 
HETATM    4  C4  UNL     1      23.061   2.220  51.397  1.00  0.00    -0.008 C 
HETATM    5  C5  UNL     1      24.443   2.019  50.815  1.00  0.00     0.085 C 
HETATM    6  C6  UNL     1      25.450   1.453  51.658  1.00  0.00     0.110 C 
HETATM    7  C7  UNL     1      25.801   0.618  52.670  1.00  0.00     0.156 C 
HETATM    8  N2  UNL     1      24.889  -0.006  53.478  1.00  0.00    -0.241 NA
HETATM    9  C12 UNL     1      24.855  -0.962  54.261  1.00  0.00     0.119 C 
HETATM   10  C13 UNL     1      23.630  -1.278  54.943  1.00  0.00     0.018 C 
HETATM   11  C14 UNL     1      22.361  -0.960  55.071  1.00  0.00     0.007 C 
HETATM   12  O3  UNL     1      26.641   2.093  51.228  1.00  0.00    -0.291 OA
HETATM   13  C15 UNL     1      26.317   3.179  50.409  1.00  0.00     0.176 A 
HETATM   14  N3  UNL     1      27.019   4.155  49.758  1.00  0.00    -0.236 NA
HETATM   15  C16 UNL     1      26.373   5.120  49.039  1.00  0.00     0.119 A 
HETATM   16  C17 UNL     1      24.985   5.192  48.911  1.00  0.00     0.020 A 
HETATM   17  C18 UNL     1      24.254   4.194  49.570  1.00  0.00     0.014 A 
HETATM   18  C19 UNL     1      24.951   3.256  50.267  1.00  0.00     0.006 A 
ENDROOT
BRANCH   7  19
HETATM   19  N1  UNL     1      27.031   0.246  53.324  1.00  0.00    -0.360 N 
HETATM   20  C8  UNL     1      27.560   0.964  54.480  1.00  0.00     0.151 C 
HETATM   21  C9  UNL     1      29.060   0.913  54.532  1.00  0.00     0.187 C 
HETATM   22  O2  UNL     1      29.623  -0.085  53.757  1.00  0.00    -0.388 OA
HETATM   23  C10 UNL     1      28.846  -1.218  53.651  1.00  0.00     0.187 C 
HETATM   24  C11 UNL     1      27.672  -0.909  52.711  1.00  0.00     0.151 C 
ENDBRANCH   7  19
BRANCH   1  25
HETATM   25  O1  UNL     1      20.240   0.359  54.736  1.00  0.00    -0.391 OA
HETATM   26  H1  UNL     1      20.055   0.365  55.733  1.00  0.00     0.210 HD
ENDBRANCH   1  25
TORSDOF 2
ENDMDL
MODEL 2
REMARK VINA RESULT:      -8.8      2.865      5.957
REMARK  2 active torsions:
REMARK  status: ('A' for Active; 'I' for Inactive)
REMARK    1  A    between atoms: O1_1  and  C1_2 
REMARK    2  A    between atoms: C7_8  and  N1_9 
ROOT
HETATM    1  C1  UNL     1      18.938  -1.292  53.443  1.00  0.00     0.062 C 
HETATM    2  C2  UNL     1      20.126  -1.632  54.047  1.00  0.00     0.113 C 
HETATM    3  C3  UNL     1      21.540  -1.251  54.157  1.00  0.00     0.027 C 
HETATM    4  C4  UNL     1      22.723  -0.575  53.992  1.00  0.00    -0.008 C 
HETATM    5  C5  UNL     1      23.469   0.584  53.366  1.00  0.00     0.085 C 
HETATM    6  C6  UNL     1      22.970   1.115  52.136  1.00  0.00     0.110 C 
HETATM    7  C7  UNL     1      21.924   1.401  51.319  1.00  0.00     0.156 C 
HETATM    8  N2  UNL     1      20.649   0.962  51.550  1.00  0.00    -0.241 NA
HETATM    9  C12 UNL     1      19.499   1.236  51.186  1.00  0.00     0.119 C 
HETATM   10  C13 UNL     1      18.392   0.474  51.694  1.00  0.00     0.018 C 
HETATM   11  C14 UNL     1      18.042  -0.489  52.519  1.00  0.00     0.007 C 
HETATM   12  O3  UNL     1      24.145   1.513  51.446  1.00  0.00    -0.291 OA
HETATM   13  C15 UNL     1      25.265   0.975  52.085  1.00  0.00     0.176 A 
HETATM   14  N3  UNL     1      26.614   0.982  51.863  1.00  0.00    -0.236 NA
HETATM   15  C16 UNL     1      27.464   0.306  52.692  1.00  0.00     0.119 A 
HETATM   16  C17 UNL     1      27.043  -0.426  53.803  1.00  0.00     0.020 A 
HETATM   17  C18 UNL     1      25.662  -0.438  54.045  1.00  0.00     0.014 A 
HETATM   18  C19 UNL     1      24.865   0.256  53.188  1.00  0.00     0.006 A 
ENDROOT
BRANCH   7  19
HETATM   19  N1  UNL     1      21.761   2.008  50.020  1.00  0.00    -0.360 N 
HETATM   20  C8  UNL     1      21.747   1.233  48.783  1.00  0.00     0.151 C 
HETATM   21  C9  UNL     1      22.282   2.022  47.622  1.00  0.00     0.187 C 
HETATM   22  O2  UNL     1      22.310   3.389  47.828  1.00  0.00    -0.388 OA
HETATM   23  C10 UNL     1      21.296   3.855  48.637  1.00  0.00     0.187 C 
HETATM   24  C11 UNL     1      21.614   3.455  50.084  1.00  0.00     0.151 C 
ENDBRANCH   7  19
BRANCH   1  25
HETATM   25  O1  UNL     1      18.334  -2.384  54.153  1.00  0.00    -0.391 OA
HETATM   26  H1  UNL     1      18.831  -2.740  54.963  1.00  0.00     0.210 HD
ENDBRANCH   1  25
TORSDOF 2
ENDMDL
MODEL 3
REMARK VINA RESULT:      -8.7      1.979      5.575
REMARK  2 active torsions:
REMARK  status: ('A' for Active; 'I' for Inactive)
REMARK    1  A    between atoms: O1_1  and  C1_2 
REMARK    2  A    between atoms: C7_8  and  N1_9 
ROOT
HETATM    1  C1  UNL     1      24.345   4.178  49.281  1.00  0.00     0.062 C 
HETATM    2  C2  UNL     1      23.067   3.769  49.585  1.00  0.00     0.113 C 
HETATM    3  C3  UNL     1      22.281   2.977  50.539  1.00  0.00     0.027 C 
HETATM    4  C4  UNL     1      21.945   2.188  51.611  1.00  0.00    -0.008 C 
HETATM    5  C5  UNL     1      22.388   1.438  52.848  1.00  0.00     0.085 C 
HETATM    6  C6  UNL     1      23.737   0.966  52.898  1.00  0.00     0.110 C 
HETATM    7  C7  UNL     1      25.046   1.116  52.571  1.00  0.00     0.156 C 
HETATM    8  N2  UNL     1      25.495   2.055  51.682  1.00  0.00    -0.241 NA
HETATM    9  C12 UNL     1      26.562   2.600  51.378  1.00  0.00     0.119 C 
HETATM   10  C13 UNL     1      26.587   3.574  50.321  1.00  0.00     0.018 C 
HETATM   11  C14 UNL     1      25.851   4.239  49.459  1.00  0.00     0.007 C 
HETATM   12  O3  UNL     1      23.638  -0.246  53.629  1.00  0.00    -0.291 OA
HETATM   13  C15 UNL     1      22.294  -0.619  53.732  1.00  0.00     0.176 A 
HETATM   14  N3  UNL     1      21.612  -1.675  54.269  1.00  0.00    -0.236 NA
HETATM   15  C16 UNL     1      20.252  -1.753  54.169  1.00  0.00     0.119 A 
HETATM   16  C17 UNL     1      19.466  -0.792  53.531  1.00  0.00     0.020 A 
HETATM   17  C18 UNL     1      20.153   0.299  52.981  1.00  0.00     0.014 A 
HETATM   18  C19 UNL     1      21.506   0.325  53.114  1.00  0.00     0.006 A 
ENDROOT
BRANCH   7  19
HETATM   19  N1  UNL     1      26.265   0.384  52.817  1.00  0.00    -0.360 N 
HETATM   20  C8  UNL     1      26.708  -0.720  51.972  1.00  0.00     0.151 C 
HETATM   21  C9  UNL     1      27.501  -1.735  52.746  1.00  0.00     0.187 C 
HETATM   22  O2  UNL     1      27.991  -1.272  53.954  1.00  0.00    -0.388 OA
HETATM   23  C10 UNL     1      28.301   0.070  53.956  1.00  0.00     0.187 C 
HETATM   24  C11 UNL     1      26.990   0.867  53.985  1.00  0.00     0.151 C 
ENDBRANCH   7  19
BRANCH   1  25
HETATM   25  O1  UNL     1      23.786   4.906  48.178  1.00  0.00    -0.391 OA
HETATM   26  H1  UNL     1      23.291   4.370  47.473  1.00  0.00     0.210 HD
ENDBRANCH   1  25
TORSDOF 2
ENDMDL
MODEL 4
REMARK VINA RESULT:      -8.7      1.710      2.461
REMARK  2 active torsions:
REMARK  status: ('A' for Active; 'I' for Inactive)
REMARK    1  A    between atoms: O1_1  and  C1_2 
REMARK    2  A    between atoms: C7_8  and  N1_9 
ROOT
HETATM    1  C1  UNL     1      20.791   2.539  52.396  1.00  0.00     0.062 C 
HETATM    2  C2  UNL     1      21.118   3.577  51.554  1.00  0.00     0.113 C 
HETATM    3  C3  UNL     1      22.175   4.087  50.673  1.00  0.00     0.027 C 
HETATM    4  C4  UNL     1      23.353   4.188  49.975  1.00  0.00    -0.008 C 
HETATM    5  C5  UNL     1      24.691   3.583  49.612  1.00  0.00     0.085 C 
HETATM    6  C6  UNL     1      25.300   2.691  50.549  1.00  0.00     0.110 C 
HETATM    7  C7  UNL     1      25.183   1.747  51.518  1.00  0.00     0.156 C 
HETATM    8  N2  UNL     1      23.990   1.411  52.099  1.00  0.00    -0.241 NA
HETATM    9  C12 UNL     1      23.519   0.484  52.767  1.00  0.00     0.119 C 
HETATM   10  C13 UNL     1      22.151   0.545  53.203  1.00  0.00     0.018 C 
HETATM   11  C14 UNL     1      21.038   1.245  53.150  1.00  0.00     0.007 C 
HETATM   12  O3  UNL     1      26.688   2.936  50.387  1.00  0.00    -0.291 OA
HETATM   13  C15 UNL     1      26.871   4.102  49.638  1.00  0.00     0.176 A 
HETATM   14  N3  UNL     1      27.947   4.830  49.211  1.00  0.00    -0.236 NA
HETATM   15  C16 UNL     1      27.773   5.980  48.494  1.00  0.00     0.119 A 
HETATM   16  C17 UNL     1      26.523   6.495  48.147  1.00  0.00     0.020 A 
HETATM   17  C18 UNL     1      25.412   5.755  48.574  1.00  0.00     0.014 A 
HETATM   18  C19 UNL     1      25.646   4.616  49.281  1.00  0.00     0.006 A 
ENDROOT
BRANCH   7  19
HETATM   19  N1  UNL     1      26.095   0.975  52.327  1.00  0.00    -0.360 N 
HETATM   20  C8  UNL     1      26.685  -0.280  51.872  1.00  0.00     0.151 C 
HETATM   21  C9  UNL     1      26.964  -1.215  53.015  1.00  0.00     0.187 C 
HETATM   22  O2  UNL     1      26.992  -0.603  54.255  1.00  0.00    -0.388 OA
HETATM   23  C10 UNL     1      27.451   0.696  54.230  1.00  0.00     0.187 C 
HETATM   24  C11 UNL     1      26.354   1.582  53.625  1.00  0.00     0.151 C 
ENDBRANCH   7  19
BRANCH   1  25
HETATM   25  O1  UNL     1      19.524   3.183  52.601  1.00  0.00    -0.391 OA
HETATM   26  H1  UNL     1      19.537   4.104  53.026  1.00  0.00     0.210 HD
ENDBRANCH   1  25
TORSDOF 2
ENDMDL
MODEL 5
REMARK VINA RESULT:      -8.6      2.301      6.535
REMARK  2 active torsions:
REMARK  status: ('A' for Active; 'I' for Inactive)
REMARK    1  A    between atoms: O1_1  and  C1_2 
REMARK    2  A    between atoms: C7_8  and  N1_9 
ROOT
HETATM    1  C1  UNL     1      27.713   0.829  54.279  1.00  0.00     0.062 C 
HETATM    2  C2  UNL     1      26.729  -0.006  54.757  1.00  0.00     0.113 C 
HETATM    3  C3  UNL     1      25.366  -0.484  54.499  1.00  0.00     0.027 C 
HETATM    4  C4  UNL     1      24.140  -0.670  53.909  1.00  0.00    -0.008 C 
HETATM    5  C5  UNL     1      23.199  -0.351  52.767  1.00  0.00     0.085 C 
HETATM    6  C6  UNL     1      23.350   0.907  52.105  1.00  0.00     0.110 C 
HETATM    7  C7  UNL     1      24.147   1.919  51.674  1.00  0.00     0.156 C 
HETATM    8  N2  UNL     1      25.464   2.040  52.028  1.00  0.00    -0.241 NA
HETATM    9  C12 UNL     1      26.472   2.639  51.636  1.00  0.00     0.119 C 
HETATM   10  C13 UNL     1      27.712   2.482  52.345  1.00  0.00     0.018 C 
HETATM   11  C14 UNL     1      28.309   1.860  53.338  1.00  0.00     0.007 C 
HETATM   12  O3  UNL     1      22.022   1.257  51.748  1.00  0.00    -0.291 OA
HETATM   13  C15 UNL     1      21.125   0.424  52.422  1.00  0.00     0.176 A 
HETATM   14  N3  UNL     1      19.764   0.317  52.504  1.00  0.00    -0.236 NA
HETATM   15  C16 UNL     1      19.183  -0.623  53.307  1.00  0.00     0.119 A 
HETATM   16  C17 UNL     1      19.904  -1.527  54.088  1.00  0.00     0.020 A 
HETATM   17  C18 UNL     1      21.300  -1.432  54.009  1.00  0.00     0.014 A 
HETATM   18  C19 UNL     1      21.823  -0.480  53.190  1.00  0.00     0.006 A 
ENDROOT
BRANCH   7  19
HETATM   19  N1  UNL     1      23.953   3.156  50.958  1.00  0.00    -0.360 N 
HETATM   20  C8  UNL     1      24.037   3.248  49.503  1.00  0.00     0.151 C 
HETATM   21  C9  UNL     1      24.517   4.599  49.054  1.00  0.00     0.187 C 
HETATM   22  O2  UNL     1      24.411   5.588  50.015  1.00  0.00    -0.388 OA
HETATM   23  C10 UNL     1      23.342   5.427  50.870  1.00  0.00     0.187 C 
HETATM   24  C11 UNL     1      23.668   4.281  51.837  1.00  0.00     0.151 C 
ENDBRANCH   7  19
BRANCH   1  25
HETATM   25  O1  UNL     1      28.534   0.388  55.371  1.00  0.00    -0.391 OA
HETATM   26  H1  UNL     1      28.217   0.613  56.308  1.00  0.00     0.210 HD
ENDBRANCH   1  25
TORSDOF 2
ENDMDL
MODEL 6
REMARK VINA RESULT:      -8.6      1.963      5.307
REMARK  2 active torsions:
REMARK  status: ('A' for Active; 'I' for Inactive)
REMARK    1  A    between atoms: O1_1  and  C1_2 
REMARK    2  A    between atoms: C7_8  and  N1_9 
ROOT
HETATM    1  C1  UNL     1      20.911  -0.599  53.829  1.00  0.00     0.062 C 
HETATM    2  C2  UNL     1      22.089  -1.135  54.297  1.00  0.00     0.113 C 
HETATM    3  C3  UNL     1      23.515  -0.849  54.493  1.00  0.00     0.027 C 
HETATM    4  C4  UNL     1      24.721  -0.194  54.512  1.00  0.00    -0.008 C 
HETATM    5  C5  UNL     1      25.506   1.069  54.231  1.00  0.00     0.085 C 
HETATM    6  C6  UNL     1      25.024   1.944  53.208  1.00  0.00     0.110 C 
HETATM    7  C7  UNL     1      23.987   2.486  52.519  1.00  0.00     0.156 C 
HETATM    8  N2  UNL     1      22.698   2.041  52.632  1.00  0.00    -0.241 NA
HETATM    9  C12 UNL     1      21.558   2.446  52.374  1.00  0.00     0.119 C 
HETATM   10  C13 UNL     1      20.425   1.608  52.659  1.00  0.00     0.018 C 
HETATM   11  C14 UNL     1      20.042   0.463  53.181  1.00  0.00     0.007 C 
HETATM   12  O3  UNL     1      26.210   2.482  52.646  1.00  0.00    -0.291 OA
HETATM   13  C15 UNL     1      27.313   1.747  53.092  1.00  0.00     0.176 A 
HETATM   14  N3  UNL     1      28.660   1.772  52.864  1.00  0.00    -0.236 NA
HETATM   15  C16 UNL     1      29.487   0.860  53.458  1.00  0.00     0.119 A 
HETATM   16  C17 UNL     1      29.043  -0.142  54.320  1.00  0.00     0.020 A 
HETATM   17  C18 UNL     1      27.663  -0.176  54.566  1.00  0.00     0.014 A 
HETATM   18  C19 UNL     1      26.889   0.758  53.951  1.00  0.00     0.006 A 
ENDROOT
BRANCH   7  19
HETATM   19  N1  UNL     1      23.843   3.441  51.447  1.00  0.00    -0.360 N 
HETATM   20  C8  UNL     1      23.738   4.878  51.680  1.00  0.00     0.151 C 
HETATM   21  C9  UNL     1      22.913   5.557  50.624  1.00  0.00     0.187 C 
HETATM   22  O2  UNL     1      22.751   4.818  49.466  1.00  0.00    -0.388 OA
HETATM   23  C10 UNL     1      23.824   4.008  49.163  1.00  0.00     0.187 C 
HETATM   24  C11 UNL     1      23.816   2.817  50.132  1.00  0.00     0.151 C 
ENDBRANCH   7  19
BRANCH   1  25
HETATM   25  O1  UNL     1      20.270  -1.826  54.208  1.00  0.00    -0.391 OA
HETATM   26  H1  UNL     1      20.813  -2.678  54.115  1.00  0.00     0.210 HD
ENDBRANCH   1  25
TORSDOF 2
ENDMDL
MODEL 7
REMARK VINA RESULT:      -8.5      2.919      6.197
REMARK  2 active torsions:
REMARK  status: ('A' for Active; 'I' for Inactive)
REMARK    1  A    between atoms: O1_1  and  C1_2 
REMARK    2  A    between atoms: C7_8  and  N1_9 
ROOT
HETATM    1  C1  UNL     1      24.954  -0.765  55.263  1.00  0.00     0.062 C 
HETATM    2  C2  UNL     1      23.664  -1.239  55.329  1.00  0.00     0.113 C 
HETATM    3  C3  UNL     1      22.373  -1.235  54.630  1.00  0.00     0.027 C 
HETATM    4  C4  UNL     1      21.400  -0.993  53.693  1.00  0.00    -0.008 C 
HETATM    5  C5  UNL     1      21.009  -0.356  52.377  1.00  0.00     0.085 C 
HETATM    6  C6  UNL     1      21.739   0.796  51.947  1.00  0.00     0.110 C 
HETATM    7  C7  UNL     1      22.900   1.498  51.894  1.00  0.00     0.156 C 
HETATM    8  N2  UNL     1      24.010   1.170  52.625  1.00  0.00    -0.241 NA
HETATM    9  C12 UNL     1      25.222   1.412  52.619  1.00  0.00     0.119 C 
HETATM   10  C13 UNL     1      26.066   0.840  53.631  1.00  0.00     0.018 C 
HETATM   11  C14 UNL     1      26.100   0.033  54.669  1.00  0.00     0.007 C 
HETATM   12  O3  UNL     1      20.764   1.572  51.268  1.00  0.00    -0.291 OA
HETATM   13  C15 UNL     1      19.491   1.067  51.545  1.00  0.00     0.176 A 
HETATM   14  N3  UNL     1      18.210   1.413  51.216  1.00  0.00    -0.236 NA
HETATM   15  C16 UNL     1      17.147   0.699  51.695  1.00  0.00     0.119 A 
HETATM   16  C17 UNL     1      17.273  -0.410  52.532  1.00  0.00     0.020 A 
HETATM   17  C18 UNL     1      18.583  -0.779  52.872  1.00  0.00     0.014 A 
HETATM   18  C19 UNL     1      19.601  -0.034  52.364  1.00  0.00     0.006 A 
ENDROOT
BRANCH   7  19
HETATM   19  N1  UNL     1      23.330   2.746  51.310  1.00  0.00    -0.360 N 
HETATM   20  C8  UNL     1      23.794   2.854  49.931  1.00  0.00     0.151 C 
HETATM   21  C9  UNL     1      24.808   3.951  49.766  1.00  0.00     0.187 C 
HETATM   22  O2  UNL     1      24.819   4.874  50.796  1.00  0.00    -0.388 OA
HETATM   23  C10 UNL     1      23.586   5.085  51.374  1.00  0.00     0.187 C 
HETATM   24  C11 UNL     1      23.246   3.864  52.240  1.00  0.00     0.151 C 
ENDBRANCH   7  19
BRANCH   1  25
HETATM   25  O1  UNL     1      25.215  -1.476  56.482  1.00  0.00    -0.391 OA
HETATM   26  H1  UNL     1      26.019  -1.180  57.026  1.00  0.00     0.210 HD
ENDBRANCH   1  25
TORSDOF 2
ENDMDL
MODEL 8
REMARK VINA RESULT:      -8.0      2.657      5.831
REMARK  2 active torsions:
REMARK  status: ('A' for Active; 'I' for Inactive)
REMARK    1  A    between atoms: O1_1  and  C1_2 
REMARK    2  A    between atoms: C7_8  and  N1_9 
ROOT
HETATM    1  C1  UNL     1      19.010   1.101  51.945  1.00  0.00     0.062 C 
HETATM    2  C2  UNL     1      19.909   0.135  52.334  1.00  0.00     0.113 C 
HETATM    3  C3  UNL     1      21.312  -0.085  52.707  1.00  0.00     0.027 C 
HETATM    4  C4  UNL     1      22.634   0.145  52.995  1.00  0.00    -0.008 C 
HETATM    5  C5  UNL     1      23.769   1.137  53.131  1.00  0.00     0.085 C 
HETATM    6  C6  UNL     1      23.709   2.336  52.354  1.00  0.00     0.110 C 
HETATM    7  C7  UNL     1      22.978   3.317  51.764  1.00  0.00     0.156 C 
HETATM    8  N2  UNL     1      21.615   3.275  51.655  1.00  0.00    -0.241 NA
HETATM    9  C12 UNL     1      20.683   4.058  51.434  1.00  0.00     0.119 C 
HETATM   10  C13 UNL     1      19.334   3.564  51.393  1.00  0.00     0.018 C 
HETATM   11  C14 UNL     1      18.576   2.500  51.550  1.00  0.00     0.007 C 
HETATM   12  O3  UNL     1      25.068   2.604  52.051  1.00  0.00    -0.291 OA
HETATM   13  C15 UNL     1      25.844   1.483  52.359  1.00  0.00     0.176 A 
HETATM   14  N3  UNL     1      27.165   1.149  52.248  1.00  0.00    -0.236 NA
HETATM   15  C16 UNL     1      27.609  -0.086  52.628  1.00  0.00     0.119 A 
HETATM   16  C17 UNL     1      26.780  -1.082  53.146  1.00  0.00     0.020 A 
HETATM   17  C18 UNL     1      25.423  -0.750  53.270  1.00  0.00     0.014 A 
HETATM   18  C19 UNL     1      25.039   0.495  52.879  1.00  0.00     0.006 A 
ENDROOT
BRANCH   7  19
HETATM   19  N1  UNL     1      23.268   4.499  50.989  1.00  0.00    -0.360 N 
HETATM   20  C8  UNL     1      23.533   5.798  51.598  1.00  0.00     0.151 C 
HETATM   21  C9  UNL     1      23.098   6.931  50.713  1.00  0.00     0.187 C 
HETATM   22  O2  UNL     1      22.911   6.578  49.389  1.00  0.00    -0.388 OA
HETATM   23  C10 UNL     1      23.749   5.576  48.952  1.00  0.00     0.187 C 
HETATM   24  C11 UNL     1      23.266   4.249  49.554  1.00  0.00     0.151 C 
ENDBRANCH   7  19
BRANCH   1  25
HETATM   25  O1  UNL     1      18.007   0.075  51.923  1.00  0.00    -0.391 OA
HETATM   26  H1  UNL     1      17.357   0.080  51.144  1.00  0.00     0.210 HD
ENDBRANCH   1  25
TORSDOF 2
ENDMDL
MODEL 9
REMARK VINA RESULT:      -7.9      6.993      9.998
REMARK  2 active torsions:
REMARK  status: ('A' for Active; 'I' for Inactive)
REMARK    1  A    between atoms: O1_1  and  C1_2 
REMARK    2  A    between atoms: C7_8  and  N1_9 
ROOT
HETATM    1  C1  UNL     1      25.824   6.630  49.436  1.00  0.00     0.062 C 
HETATM    2  C2  UNL     1      26.544   5.563  48.950  1.00  0.00     0.113 C 
HETATM    3  C3  UNL     1      27.890   5.137  48.550  1.00  0.00     0.027 C 
HETATM    4  C4  UNL     1      29.241   5.149  48.304  1.00  0.00    -0.008 C 
HETATM    5  C5  UNL     1      30.550   5.907  48.340  1.00  0.00     0.085 C 
HETATM    6  C6  UNL     1      30.501   7.334  48.252  1.00  0.00     0.110 C 
HETATM    7  C7  UNL     1      29.864   8.505  48.512  1.00  0.00     0.156 C 
HETATM    8  N2  UNL     1      28.586   8.573  48.996  1.00  0.00    -0.241 NA
HETATM    9  C12 UNL     1      27.854   9.400  49.553  1.00  0.00     0.119 C 
HETATM   10  C13 UNL     1      26.506   9.039  49.895  1.00  0.00     0.018 C 
HETATM   11  C14 UNL     1      25.626   8.062  49.900  1.00  0.00     0.007 C 
HETATM   12  O3  UNL     1      31.681   7.663  47.536  1.00  0.00    -0.291 OA
HETATM   13  C15 UNL     1      32.223   6.504  46.974  1.00  0.00     0.176 A 
HETATM   14  N3  UNL     1      33.293   6.215  46.173  1.00  0.00    -0.236 NA
HETATM   15  C16 UNL     1      33.535   4.934  45.764  1.00  0.00     0.119 A 
HETATM   16  C17 UNL     1      32.737   3.845  46.116  1.00  0.00     0.020 A 
HETATM   17  C18 UNL     1      31.639   4.127  46.941  1.00  0.00     0.014 A 
HETATM   18  C19 UNL     1      31.450   5.420  47.320  1.00  0.00     0.006 A 
ENDROOT
BRANCH   7  19
HETATM   19  N1  UNL     1      30.127   9.902  48.267  1.00  0.00    -0.360 N 
HETATM   20  C8  UNL     1      30.861  10.744  49.206  1.00  0.00     0.151 C 
HETATM   21  C9  UNL     1      30.413  12.177  49.142  1.00  0.00     0.187 C 
HETATM   22  O2  UNL     1      29.718  12.504  47.992  1.00  0.00    -0.388 OA
HETATM   23  C10 UNL     1      30.117  11.801  46.876  1.00  0.00     0.187 C 
HETATM   24  C11 UNL     1      29.587  10.366  46.996  1.00  0.00     0.151 C 
ENDBRANCH   7  19
BRANCH   1  25
HETATM   25  O1  UNL     1      24.667   5.782  49.420  1.00  0.00    -0.391 OA
HETATM   26  H1  UNL     1      24.773   4.848  49.802  1.00  0.00     0.210 HD
ENDBRANCH   1  25
TORSDOF 2
ENDMDL
