MODEL 1
REMARK VINA RESULT:      -8.6      0.000      0.000
REMARK  5 active torsions:
REMARK  status: ('A' for Active; 'I' for Inactive)
REMARK    1  A    between atoms: C1_2  and  C2_4 
REMARK    2  A    between atoms: C2_4  and  C3_5 
REMARK    3  A    between atoms: C3_5  and  C4_6 
REMARK    4  A    between atoms: C4_6  and  C15_20 
REMARK    5  A    between atoms: C5_7  and  C6_8 
ROOT
HETATM    1  C6  UNL     1      24.181   1.791  51.378  1.00  0.00    -0.002 C 
HETATM    2  C7  UNL     1      24.933   2.767  50.838  1.00  0.00     0.041 A 
HETATM    3  C8  UNL     1      26.369   2.961  50.994  1.00  0.00     0.256 A 
HETATM    4  O3  UNL     1      27.247   2.331  51.621  1.00  0.00    -0.267 OA
HETATM    5  N1  UNL     1      26.840   4.091  50.288  1.00  0.00    -0.322 N 
HETATM    6  C9  UNL     1      25.710   4.669  49.645  1.00  0.00     0.046 A 
HETATM    7  C10 UNL     1      25.474   5.754  48.826  1.00  0.00     0.032 A 
HETATM    8  C11 UNL     1      24.224   6.069  48.347  1.00  0.00     0.021 A 
HETATM    9  C12 UNL     1      23.133   5.292  48.675  1.00  0.00     0.011 A 
HETATM   10 BR1  UNL     1      21.394   5.721  48.015  1.00  0.00    -0.051 Br
HETATM   11  C13 UNL     1      23.356   4.213  49.487  1.00  0.00     0.033 A 
HETATM   12  C14 UNL     1      24.631   3.902  49.969  1.00  0.00     0.007 A 
HETATM   13  H8  UNL     1      27.764   4.548  50.153  1.00  0.00     0.169 HD
ENDROOT
BRANCH   1  14
HETATM   14  C5  UNL     1      24.988   0.844  52.217  1.00  0.00     0.069 C 
HETATM   15  C4  UNL     1      24.689  -0.025  53.150  1.00  0.00    -0.002 C 
BRANCH  15  16
HETATM   16  C3  UNL     1      25.800  -0.793  53.759  1.00  0.00     0.018 C 
BRANCH  16  17
HETATM   17  C2  UNL     1      27.108  -0.708  53.014  1.00  0.00     0.071 C 
BRANCH  17  18
HETATM   18  C1  UNL     1      27.647  -2.097  52.884  1.00  0.00     0.117 A 
HETATM   19  O1  UNL     1      28.751  -2.135  53.469  1.00  0.00    -0.194 OA
HETATM   20  O2  UNL     1      28.196  -3.354  52.801  1.00  0.00     0.000 OA
HETATM   21  H1  UNL     1      27.933  -3.946  51.998  1.00  0.00     0.000 HD
ENDBRANCH  17  18
ENDBRANCH  16  17
ENDBRANCH  15  16
BRANCH  15  22
HETATM   22  C15 UNL     1      23.563  -0.638  53.941  1.00  0.00     0.013 A 
HETATM   23  N2  UNL     1      22.655  -0.790  53.085  1.00  0.00    -0.298 NA
HETATM   24  C16 UNL     1      21.741  -1.350  54.002  1.00  0.00     0.154 A 
HETATM   25  C17 UNL     1      22.803  -1.172  55.017  1.00  0.00     0.076 A 
ENDBRANCH  15  22
ENDBRANCH   1  14
TORSDOF 5
ENDMDL
MODEL 2
REMARK VINA RESULT:      -8.6      2.738      3.944
REMARK  5 active torsions:
REMARK  status: ('A' for Active; 'I' for Inactive)
REMARK    1  A    between atoms: C1_2  and  C2_4 
REMARK    2  A    between atoms: C2_4  and  C3_5 
REMARK    3  A    between atoms: C3_5  and  C4_6 
REMARK    4  A    between atoms: C4_6  and  C15_20 
REMARK    5  A    between atoms: C5_7  and  C6_8 
ROOT
HETATM    1  C6  UNL     1      26.743   2.068  50.991  1.00  0.00    -0.002 C 
HETATM    2  C7  UNL     1      25.782   2.892  50.534  1.00  0.00     0.041 A 
HETATM    3  C8  UNL     1      24.343   2.752  50.716  1.00  0.00     0.256 A 
HETATM    4  O3  UNL     1      23.640   1.901  51.301  1.00  0.00    -0.267 OA
HETATM    5  N1  UNL     1      23.618   3.799  50.101  1.00  0.00    -0.322 N 
HETATM    6  C9  UNL     1      24.578   4.658  49.496  1.00  0.00     0.046 A 
HETATM    7  C10 UNL     1      24.550   5.824  48.760  1.00  0.00     0.032 A 
HETATM    8  C11 UNL     1      25.688   6.440  48.295  1.00  0.00     0.021 A 
HETATM    9  C12 UNL     1      26.931   5.901  48.555  1.00  0.00     0.011 A 
HETATM   10 BR1  UNL     1      28.517   6.749  47.914  1.00  0.00    -0.051 Br
HETATM   11  C13 UNL     1      26.970   4.744  49.284  1.00  0.00     0.033 A 
HETATM   12  C14 UNL     1      25.806   4.125  49.752  1.00  0.00     0.007 A 
HETATM   13  H8  UNL     1      22.613   4.049  50.009  1.00  0.00     0.169 HD
ENDROOT
BRANCH   1  14
HETATM   14  C5  UNL     1      26.183   0.908  51.761  1.00  0.00     0.069 C 
HETATM   15  C4  UNL     1      26.718  -0.050  52.476  1.00  0.00    -0.002 C 
BRANCH  15  16
HETATM   16  C3  UNL     1      25.805  -1.038  53.097  1.00  0.00     0.018 C 
BRANCH  16  17
HETATM   17  C2  UNL     1      24.686  -0.439  53.909  1.00  0.00     0.071 C 
BRANCH  17  18
HETATM   18  C1  UNL     1      24.784  -0.991  55.295  1.00  0.00     0.117 A 
HETATM   19  O1  UNL     1      25.905  -0.682  55.752  1.00  0.00    -0.194 OA
HETATM   20  O2  UNL     1      24.936  -1.472  56.574  1.00  0.00     0.000 OA
HETATM   21  H1  UNL     1      24.400  -2.312  56.843  1.00  0.00     0.000 HD
ENDBRANCH  17  18
ENDBRANCH  16  17
ENDBRANCH  15  16
BRANCH  15  22
HETATM   22  C15 UNL     1      28.014  -0.623  52.989  1.00  0.00     0.013 A 
HETATM   23  N2  UNL     1      28.546   0.349  53.584  1.00  0.00    -0.298 NA
HETATM   24  C16 UNL     1      29.692  -0.380  53.967  1.00  0.00     0.154 A 
HETATM   25  C17 UNL     1      29.075  -1.528  53.266  1.00  0.00     0.076 A 
ENDBRANCH  15  22
ENDBRANCH   1  14
TORSDOF 5
ENDMDL
MODEL 3
REMARK VINA RESULT:      -8.1      3.081      6.238
REMARK  5 active torsions:
REMARK  status: ('A' for Active; 'I' for Inactive)
REMARK    1  A    between atoms: C1_2  and  C2_4 
REMARK    2  A    between atoms: C2_4  and  C3_5 
REMARK    3  A    between atoms: C3_5  and  C4_6 
REMARK    4  A    between atoms: C4_6  and  C15_20 
REMARK    5  A    between atoms: C5_7  and  C6_8 
ROOT
HETATM    1  C6  UNL     1      22.343   0.919  51.767  1.00  0.00    -0.002 C 
HETATM    2  C7  UNL     1      21.482   0.222  52.531  1.00  0.00     0.041 A 
HETATM    3  C8  UNL     1      21.765  -0.437  53.800  1.00  0.00     0.256 A 
HETATM    4  O3  UNL     1      22.800  -0.537  54.492  1.00  0.00    -0.267 OA
HETATM    5  N1  UNL     1      20.628  -1.083  54.336  1.00  0.00    -0.322 N 
HETATM    6  C9  UNL     1      19.562  -0.859  53.420  1.00  0.00     0.046 A 
HETATM    7  C10 UNL     1      18.229  -1.203  53.337  1.00  0.00     0.032 A 
HETATM    8  C11 UNL     1      17.425  -0.826  52.286  1.00  0.00     0.021 A 
HETATM    9  C12 UNL     1      17.937  -0.071  51.251  1.00  0.00     0.011 A 
HETATM   10 BR1  UNL     1      16.830   0.458  49.788  1.00  0.00    -0.051 Br
HETATM   11  C13 UNL     1      19.259   0.275  51.324  1.00  0.00     0.033 A 
HETATM   12  C14 UNL     1      20.067  -0.114  52.396  1.00  0.00     0.007 A 
HETATM   13  H8  UNL     1      20.427  -1.641  55.191  1.00  0.00     0.169 HD
ENDROOT
BRANCH   1  14
HETATM   14  C5  UNL     1      23.719   0.975  52.362  1.00  0.00     0.069 C 
HETATM   15  C4  UNL     1      24.822   1.607  52.044  1.00  0.00    -0.002 C 
BRANCH  15  16
HETATM   16  C3  UNL     1      26.009   1.398  52.905  1.00  0.00     0.018 C 
BRANCH  16  17
HETATM   17  C2  UNL     1      26.630   0.029  52.801  1.00  0.00     0.071 C 
BRANCH  17  18
HETATM   18  C1  UNL     1      27.580  -0.127  53.946  1.00  0.00     0.117 A 
HETATM   19  O1  UNL     1      26.909  -0.379  54.969  1.00  0.00    -0.194 OA
HETATM   20  O2  UNL     1      28.400  -0.283  55.037  1.00  0.00     0.000 OA
HETATM   21  H1  UNL     1      29.311   0.203  55.033  1.00  0.00     0.000 HD
ENDBRANCH  17  18
ENDBRANCH  16  17
ENDBRANCH  15  16
BRANCH  15  22
HETATM   22  C15 UNL     1      25.448   2.566  51.065  1.00  0.00     0.013 A 
HETATM   23  N2  UNL     1      24.733   3.595  51.167  1.00  0.00    -0.298 NA
HETATM   24  C16 UNL     1      25.466   4.326  50.209  1.00  0.00     0.154 A 
HETATM   25  C17 UNL     1      26.312   3.119  50.080  1.00  0.00     0.076 A 
ENDBRANCH  15  22
ENDBRANCH   1  14
TORSDOF 5
ENDMDL
MODEL 4
REMARK VINA RESULT:      -8.1      4.232      8.347
REMARK  5 active torsions:
REMARK  status: ('A' for Active; 'I' for Inactive)
REMARK    1  A    between atoms: C1_2  and  C2_4 
REMARK    2  A    between atoms: C2_4  and  C3_5 
REMARK    3  A    between atoms: C3_5  and  C4_6 
REMARK    4  A    between atoms: C4_6  and  C15_20 
REMARK    5  A    between atoms: C5_7  and  C6_8 
ROOT
HETATM    1  C6  UNL     1      26.703   3.794  49.726  1.00  0.00    -0.002 C 
HETATM    2  C7  UNL     1      25.686   3.550  50.574  1.00  0.00     0.041 A 
HETATM    3  C8  UNL     1      24.554   4.421  50.863  1.00  0.00     0.256 A 
HETATM    4  O3  UNL     1      24.223   5.551  50.444  1.00  0.00    -0.267 OA
HETATM    5  N1  UNL     1      23.668   3.856  51.808  1.00  0.00    -0.322 N 
HETATM    6  C9  UNL     1      24.205   2.587  52.161  1.00  0.00     0.046 A 
HETATM    7  C10 UNL     1      23.852   1.553  53.003  1.00  0.00     0.032 A 
HETATM    8  C11 UNL     1      24.604   0.409  53.137  1.00  0.00     0.021 A 
HETATM    9  C12 UNL     1      25.768   0.250  52.416  1.00  0.00     0.011 A 
HETATM   10 BR1  UNL     1      26.820  -1.334  52.594  1.00  0.00    -0.051 Br
HETATM   11  C13 UNL     1      26.128   1.270  51.577  1.00  0.00     0.033 A 
HETATM   12  C14 UNL     1      25.356   2.429  51.449  1.00  0.00     0.007 A 
HETATM   13  H8  UNL     1      22.778   4.152  52.258  1.00  0.00     0.169 HD
ENDROOT
BRANCH   1  14
HETATM   14  C5  UNL     1      26.576   5.126  49.048  1.00  0.00     0.069 C 
HETATM   15  C4  UNL     1      27.436   5.963  48.522  1.00  0.00    -0.002 C 
BRANCH  15  16
HETATM   16  C3  UNL     1      26.906   7.214  47.930  1.00  0.00     0.018 C 
BRANCH  16  17
HETATM   17  C2  UNL     1      25.992   8.001  48.833  1.00  0.00     0.071 C 
BRANCH  17  18
HETATM   18  C1  UNL     1      26.832   8.604  49.914  1.00  0.00     0.117 A 
HETATM   19  O1  UNL     1      27.553   9.482  49.395  1.00  0.00    -0.194 OA
HETATM   20  O2  UNL     1      27.630   9.198  50.862  1.00  0.00     0.000 OA
HETATM   21  H1  UNL     1      27.880   8.649  51.700  1.00  0.00     0.000 HD
ENDBRANCH  17  18
ENDBRANCH  16  17
ENDBRANCH  15  16
BRANCH  15  22
HETATM   22  C15 UNL     1      28.894   6.206  48.234  1.00  0.00     0.013 A 
HETATM   23  N2  UNL     1      29.372   5.046  48.158  1.00  0.00    -0.298 NA
HETATM   24  C16 UNL     1      30.685   5.492  47.895  1.00  0.00     0.154 A 
HETATM   25  C17 UNL     1      30.132   6.861  47.986  1.00  0.00     0.076 A 
ENDBRANCH  15  22
ENDBRANCH   1  14
TORSDOF 5
ENDMDL
MODEL 5
REMARK VINA RESULT:      -7.7      3.216      4.154
REMARK  5 active torsions:
REMARK  status: ('A' for Active; 'I' for Inactive)
REMARK    1  A    between atoms: C1_2  and  C2_4 
REMARK    2  A    between atoms: C2_4  and  C3_5 
REMARK    3  A    between atoms: C3_5  and  C4_6 
REMARK    4  A    between atoms: C4_6  and  C15_20 
REMARK    5  A    between atoms: C5_7  and  C6_8 
ROOT
HETATM    1  C6  UNL     1      25.818   2.489  51.484  1.00  0.00    -0.002 C 
HETATM    2  C7  UNL     1      24.988   3.332  50.841  1.00  0.00     0.041 A 
HETATM    3  C8  UNL     1      23.533   3.348  50.900  1.00  0.00     0.256 A 
HETATM    4  O3  UNL     1      22.699   2.646  51.512  1.00  0.00    -0.267 OA
HETATM    5  N1  UNL     1      22.972   4.368  50.098  1.00  0.00    -0.322 N 
HETATM    6  C9  UNL     1      24.063   5.051  49.489  1.00  0.00     0.046 A 
HETATM    7  C10 UNL     1      24.215   6.110  48.619  1.00  0.00     0.032 A 
HETATM    8  C11 UNL     1      25.445   6.556  48.194  1.00  0.00     0.021 A 
HETATM    9  C12 UNL     1      26.600   5.944  48.635  1.00  0.00     0.011 A 
HETATM   10 BR1  UNL     1      28.313   6.555  48.052  1.00  0.00    -0.051 Br
HETATM   11  C13 UNL     1      26.459   4.892  49.498  1.00  0.00     0.033 A 
HETATM   12  C14 UNL     1      25.204   4.447  49.923  1.00  0.00     0.007 A 
HETATM   13  H8  UNL     1      22.009   4.694  49.880  1.00  0.00     0.169 HD
ENDROOT
BRANCH   1  14
HETATM   14  C5  UNL     1      25.081   1.494  52.330  1.00  0.00     0.069 C 
HETATM   15  C4  UNL     1      25.348   0.281  52.747  1.00  0.00    -0.002 C 
BRANCH  15  16
HETATM   16  C3  UNL     1      24.336  -0.396  53.591  1.00  0.00     0.018 C 
BRANCH  16  17
HETATM   17  C2  UNL     1      22.926  -0.326  53.064  1.00  0.00     0.071 C 
BRANCH  17  18
HETATM   18  C1  UNL     1      22.029  -0.961  54.079  1.00  0.00     0.117 A 
HETATM   19  O1  UNL     1      21.439  -0.047  54.692  1.00  0.00    -0.194 OA
HETATM   20  O2  UNL     1      21.186  -1.482  55.029  1.00  0.00     0.000 OA
HETATM   21  H1  UNL     1      21.414  -2.408  55.426  1.00  0.00     0.000 HD
ENDBRANCH  17  18
ENDBRANCH  16  17
ENDBRANCH  15  16
BRANCH  15  22
HETATM   22  C15 UNL     1      26.368  -0.827  52.727  1.00  0.00     0.013 A 
HETATM   23  N2  UNL     1      27.382  -0.299  53.250  1.00  0.00    -0.298 NA
HETATM   24  C16 UNL     1      28.175  -1.460  53.134  1.00  0.00     0.154 A 
HETATM   25  C17 UNL     1      26.988  -2.089  52.515  1.00  0.00     0.076 A 
ENDBRANCH  15  22
ENDBRANCH   1  14
TORSDOF 5
ENDMDL
MODEL 6
REMARK VINA RESULT:      -7.6      5.320      7.637
REMARK  5 active torsions:
REMARK  status: ('A' for Active; 'I' for Inactive)
REMARK    1  A    between atoms: C1_2  and  C2_4 
REMARK    2  A    between atoms: C2_4  and  C3_5 
REMARK    3  A    between atoms: C3_5  and  C4_6 
REMARK    4  A    between atoms: C4_6  and  C15_20 
REMARK    5  A    between atoms: C5_7  and  C6_8 
ROOT
HETATM    1  C6  UNL     1      21.066   0.275  52.427  1.00  0.00    -0.002 C 
HETATM    2  C7  UNL     1      22.099  -0.112  53.199  1.00  0.00     0.041 A 
HETATM    3  C8  UNL     1      22.052  -1.010  54.345  1.00  0.00     0.256 A 
HETATM    4  O3  UNL     1      21.121  -1.631  54.900  1.00  0.00    -0.267 OA
HETATM    5  N1  UNL     1      23.324  -1.201  54.931  1.00  0.00    -0.322 N 
HETATM    6  C9  UNL     1      24.243  -0.425  54.171  1.00  0.00     0.046 A 
HETATM    7  C10 UNL     1      25.598  -0.170  54.202  1.00  0.00     0.032 A 
HETATM    8  C11 UNL     1      26.222   0.659  53.299  1.00  0.00     0.021 A 
HETATM    9  C12 UNL     1      25.497   1.281  52.304  1.00  0.00     0.011 A 
HETATM   10 BR1  UNL     1      26.354   2.433  51.045  1.00  0.00    -0.051 Br
HETATM   11  C13 UNL     1      24.152   1.034  52.264  1.00  0.00     0.033 A 
HETATM   12  C14 UNL     1      23.527   0.190  53.188  1.00  0.00     0.007 A 
HETATM   13  H8  UNL     1      23.695  -1.748  55.734  1.00  0.00     0.169 HD
ENDROOT
BRANCH   1  14
HETATM   14  C5  UNL     1      19.765  -0.332  52.865  1.00  0.00     0.069 C 
HETATM   15  C4  UNL     1      18.585  -0.451  52.309  1.00  0.00    -0.002 C 
BRANCH  15  16
HETATM   16  C3  UNL     1      17.524  -1.134  53.084  1.00  0.00     0.018 C 
BRANCH  16  17
HETATM   17  C2  UNL     1      17.916  -2.479  53.639  1.00  0.00     0.071 C 
BRANCH  17  18
HETATM   18  C1  UNL     1      16.847  -3.455  53.260  1.00  0.00     0.117 A 
HETATM   19  O1  UNL     1      15.985  -2.841  52.599  1.00  0.00    -0.194 OA
HETATM   20  O2  UNL     1      15.835  -4.303  52.880  1.00  0.00     0.000 OA
HETATM   21  H1  UNL     1      15.649  -5.132  53.467  1.00  0.00     0.000 HD
ENDBRANCH  17  18
ENDBRANCH  16  17
ENDBRANCH  15  16
BRANCH  15  22
HETATM   22  C15 UNL     1      17.775  -0.156  51.073  1.00  0.00     0.013 A 
HETATM   23  N2  UNL     1      17.762   1.100  51.028  1.00  0.00    -0.298 NA
HETATM   24  C16 UNL     1      16.986   1.153  49.850  1.00  0.00     0.154 A 
HETATM   25  C17 UNL     1      16.994  -0.326  49.898  1.00  0.00     0.076 A 
ENDBRANCH  15  22
ENDBRANCH   1  14
TORSDOF 5
ENDMDL
MODEL 7
REMARK VINA RESULT:      -7.5      6.339      9.323
REMARK  5 active torsions:
REMARK  status: ('A' for Active; 'I' for Inactive)
REMARK    1  A    between atoms: C1_2  and  C2_4 
REMARK    2  A    between atoms: C2_4  and  C3_5 
REMARK    3  A    between atoms: C3_5  and  C4_6 
REMARK    4  A    between atoms: C4_6  and  C15_20 
REMARK    5  A    between atoms: C5_7  and  C6_8 
ROOT
HETATM    1  C6  UNL     1      29.625   5.745  47.888  1.00  0.00    -0.002 C 
HETATM    2  C7  UNL     1      30.687   6.504  48.217  1.00  0.00     0.041 A 
HETATM    3  C8  UNL     1      30.668   7.856  48.761  1.00  0.00     0.256 A 
HETATM    4  O3  UNL     1      29.740   8.639  49.056  1.00  0.00    -0.267 OA
HETATM    5  N1  UNL     1      31.967   8.361  48.993  1.00  0.00    -0.322 N 
HETATM    6  C9  UNL     1      32.877   7.339  48.602  1.00  0.00     0.046 A 
HETATM    7  C10 UNL     1      34.247   7.183  48.569  1.00  0.00     0.032 A 
HETATM    8  C11 UNL     1      34.856   6.034  48.119  1.00  0.00     0.021 A 
HETATM    9  C12 UNL     1      34.100   4.970  47.674  1.00  0.00     0.011 A 
HETATM   10 BR1  UNL     1      34.935   3.371  47.048  1.00  0.00    -0.051 Br
HETATM   11  C13 UNL     1      32.739   5.116  47.703  1.00  0.00     0.033 A 
HETATM   12  C14 UNL     1      32.130   6.288  48.162  1.00  0.00     0.007 A 
HETATM   13  H8  UNL     1      32.361   9.251  49.360  1.00  0.00     0.169 HD
ENDROOT
BRANCH   1  14
HETATM   14  C5  UNL     1      28.322   6.444  48.140  1.00  0.00     0.069 C 
HETATM   15  C4  UNL     1      27.158   6.058  48.600  1.00  0.00    -0.002 C 
BRANCH  15  16
HETATM   16  C3  UNL     1      26.086   7.075  48.704  1.00  0.00     0.018 C 
BRANCH  16  17
HETATM   17  C2  UNL     1      26.050   7.821  50.014  1.00  0.00     0.071 C 
BRANCH  17  18
HETATM   18  C1  UNL     1      26.581   9.197  49.767  1.00  0.00     0.117 A 
HETATM   19  O1  UNL     1      27.225   9.547  50.778  1.00  0.00    -0.194 OA
HETATM   20  O2  UNL     1      27.097  10.459  49.600  1.00  0.00     0.000 OA
HETATM   21  H1  UNL     1      26.605  11.105  48.961  1.00  0.00     0.000 HD
ENDBRANCH  17  18
ENDBRANCH  16  17
ENDBRANCH  15  16
BRANCH  15  22
HETATM   22  C15 UNL     1      26.375   4.884  49.129  1.00  0.00     0.013 A 
HETATM   23  N2  UNL     1      27.263   4.029  49.374  1.00  0.00    -0.298 NA
HETATM   24  C16 UNL     1      26.348   3.060  49.837  1.00  0.00     0.154 A 
HETATM   25  C17 UNL     1      25.296   4.059  49.548  1.00  0.00     0.076 A 
ENDBRANCH  15  22
ENDBRANCH   1  14
TORSDOF 5
ENDMDL
MODEL 8
REMARK VINA RESULT:      -7.5      2.843      3.482
REMARK  5 active torsions:
REMARK  status: ('A' for Active; 'I' for Inactive)
REMARK    1  A    between atoms: C1_2  and  C2_4 
REMARK    2  A    between atoms: C2_4  and  C3_5 
REMARK    3  A    between atoms: C3_5  and  C4_6 
REMARK    4  A    between atoms: C4_6  and  C15_20 
REMARK    5  A    between atoms: C5_7  and  C6_8 
ROOT
HETATM    1  C6  UNL     1      23.020   2.838  51.143  1.00  0.00    -0.002 C 
HETATM    2  C7  UNL     1      24.318   2.962  50.810  1.00  0.00     0.041 A 
HETATM    3  C8  UNL     1      25.412   2.076  51.189  1.00  0.00     0.256 A 
HETATM    4  O3  UNL     1      25.461   1.032  51.873  1.00  0.00    -0.267 OA
HETATM    5  N1  UNL     1      26.655   2.502  50.667  1.00  0.00    -0.322 N 
HETATM    6  C9  UNL     1      26.399   3.689  49.925  1.00  0.00     0.046 A 
HETATM    7  C10 UNL     1      27.145   4.584  49.187  1.00  0.00     0.032 A 
HETATM    8  C11 UNL     1      26.594   5.680  48.565  1.00  0.00     0.021 A 
HETATM    9  C12 UNL     1      25.241   5.930  48.659  1.00  0.00     0.011 A 
HETATM   10 BR1  UNL     1      24.466   7.449  47.799  1.00  0.00    -0.051 Br
HETATM   11  C13 UNL     1      24.492   5.048  49.390  1.00  0.00     0.033 A 
HETATM   12  C14 UNL     1      25.062   3.937  50.018  1.00  0.00     0.007 A 
HETATM   13  H8  UNL     1      27.634   2.154  50.709  1.00  0.00     0.169 HD
ENDROOT
BRANCH   1  14
HETATM   14  C5  UNL     1      22.760   1.631  51.996  1.00  0.00     0.069 C 
HETATM   15  C4  UNL     1      21.734   0.832  52.151  1.00  0.00    -0.002 C 
BRANCH  15  16
HETATM   16  C3  UNL     1      21.868  -0.282  53.118  1.00  0.00     0.018 C 
BRANCH  16  17
HETATM   17  C2  UNL     1      23.263  -0.494  53.647  1.00  0.00     0.071 C 
BRANCH  17  18
HETATM   18  C1  UNL     1      23.156  -1.296  54.905  1.00  0.00     0.117 A 
HETATM   19  O1  UNL     1      21.950  -1.342  55.228  1.00  0.00    -0.194 OA
HETATM   20  O2  UNL     1      22.991  -2.024  56.058  1.00  0.00     0.000 OA
HETATM   21  H1  UNL     1      23.781  -2.070  56.720  1.00  0.00     0.000 HD
ENDBRANCH  17  18
ENDBRANCH  16  17
ENDBRANCH  15  16
BRANCH  15  22
HETATM   22  C15 UNL     1      20.326   0.540  51.700  1.00  0.00     0.013 A 
HETATM   23  N2  UNL     1      19.827  -0.067  52.681  1.00  0.00    -0.298 NA
HETATM   24  C16 UNL     1      18.567  -0.235  52.068  1.00  0.00     0.154 A 
HETATM   25  C17 UNL     1      19.148   0.476  50.908  1.00  0.00     0.076 A 
ENDBRANCH  15  22
ENDBRANCH   1  14
TORSDOF 5
ENDMDL
MODEL 9
REMARK VINA RESULT:      -7.4      3.195      7.205
REMARK  5 active torsions:
REMARK  status: ('A' for Active; 'I' for Inactive)
REMARK    1  A    between atoms: C1_2  and  C2_4 
REMARK    2  A    between atoms: C2_4  and  C3_5 
REMARK    3  A    between atoms: C3_5  and  C4_6 
REMARK    4  A    between atoms: C4_6  and  C15_20 
REMARK    5  A    between atoms: C5_7  and  C6_8 
ROOT
HETATM    1  C6  UNL     1      24.030   2.865  50.740  1.00  0.00    -0.002 C 
HETATM    2  C7  UNL     1      24.868   2.174  51.536  1.00  0.00     0.041 A 
HETATM    3  C8  UNL     1      26.318   2.292  51.600  1.00  0.00     0.256 A 
HETATM    4  O3  UNL     1      27.140   3.007  50.988  1.00  0.00    -0.267 OA
HETATM    5  N1  UNL     1      26.889   1.414  52.549  1.00  0.00    -0.322 N 
HETATM    6  C9  UNL     1      25.811   0.694  53.136  1.00  0.00     0.046 A 
HETATM    7  C10 UNL     1      25.671  -0.286  54.097  1.00  0.00     0.032 A 
HETATM    8  C11 UNL     1      24.451  -0.805  54.462  1.00  0.00     0.021 A 
HETATM    9  C12 UNL     1      23.293  -0.353  53.865  1.00  0.00     0.011 A 
HETATM   10 BR1  UNL     1      21.593  -1.066  54.365  1.00  0.00    -0.051 Br
HETATM   11  C13 UNL     1      23.420   0.619  52.910  1.00  0.00     0.033 A 
HETATM   12  C14 UNL     1      24.666   1.139  52.546  1.00  0.00     0.007 A 
HETATM   13  H8  UNL     1      27.852   1.204  52.880  1.00  0.00     0.169 HD
ENDROOT
BRANCH   1  14
HETATM   14  C5  UNL     1      24.753   3.838  49.856  1.00  0.00     0.069 C 
HETATM   15  C4  UNL     1      24.747   5.143  49.746  1.00  0.00    -0.002 C 
BRANCH  15  16
HETATM   16  C3  UNL     1      25.627   5.753  48.722  1.00  0.00     0.018 C 
BRANCH  16  17
HETATM   17  C2  UNL     1      27.009   5.157  48.642  1.00  0.00     0.071 C 
BRANCH  17  18
HETATM   18  C1  UNL     1      27.993   6.273  48.792  1.00  0.00     0.117 A 
HETATM   19  O1  UNL     1      27.354   7.345  48.836  1.00  0.00    -0.194 OA
HETATM   20  O2  UNL     1      28.846   7.341  48.930  1.00  0.00     0.000 OA
HETATM   21  H1  UNL     1      29.809   7.243  48.571  1.00  0.00     0.000 HD
ENDBRANCH  17  18
ENDBRANCH  16  17
ENDBRANCH  15  16
BRANCH  15  22
HETATM   22  C15 UNL     1      24.159   6.418  50.292  1.00  0.00     0.013 A 
HETATM   23  N2  UNL     1      22.934   6.309  50.030  1.00  0.00    -0.298 NA
HETATM   24  C16 UNL     1      22.595   7.554  50.602  1.00  0.00     0.154 A 
HETATM   25  C17 UNL     1      24.035   7.692  50.912  1.00  0.00     0.076 A 
ENDBRANCH  15  22
ENDBRANCH   1  14
TORSDOF 5
ENDMDL
