MODEL 1
REMARK VINA RESULT:      -7.9      0.000      0.000
REMARK  6 active torsions:
REMARK  status: ('A' for Active; 'I' for Inactive)
REMARK    1  A    between atoms: C2_2  and  C3_3 
REMARK    2  A    between atoms: C3_3  and  C4_4 
REMARK    3  A    between atoms: C4_4  and  O1_5 
REMARK    4  A    between atoms: O1_5  and  C5_6 
REMARK    5  A    between atoms: C14_18  and  N3_19 
REMARK    6  A    between atoms: N3_19  and  C15_20 
ROOT
HETATM    1  C5  UNL     1      26.329   1.128  51.820  1.00  0.00     0.146 C 
HETATM    2  C6  UNL     1      24.865   1.222  51.935  1.00  0.00     0.017 C 
HETATM    3  C7  UNL     1      24.016   2.136  52.391  1.00  0.00     0.006 C 
HETATM    4  C8  UNL     1      23.862   3.509  53.025  1.00  0.00     0.193 C 
HETATM    5  N1  UNL     1      22.732   4.058  52.190  1.00  0.00    -0.270 NA
HETATM    6  C9  UNL     1      22.904   3.846  50.897  1.00  0.00     0.125 C 
HETATM    7  C10 UNL     1      23.132   3.844  49.430  1.00  0.00     0.106 C 
HETATM    8  C11 UNL     1      24.669   4.046  49.213  1.00  0.00     0.175 C 
HETATM    9  O2  UNL     1      25.209   3.252  50.223  1.00  0.00    -0.391 OA
HETATM   10  C12 UNL     1      26.556   3.149  50.283  1.00  0.00     0.170 C 
HETATM   11  C13 UNL     1      26.974   2.460  51.556  1.00  0.00     0.062 C 
HETATM   12  N2  UNL     1      22.743   2.415  51.088  1.00  0.00    -0.216 NA
HETATM   13  C14 UNL     1      22.531   1.947  52.263  1.00  0.00     0.134 C 
ENDROOT
BRANCH  13  14
HETATM   14  N3  UNL     1      21.484   1.474  53.086  1.00  0.00    -0.363 N 
HETATM   15  H22 UNL     1      21.085   2.344  53.506  1.00  0.00     0.162 HD
BRANCH  14  16
HETATM   16  C15 UNL     1      21.492   0.043  52.933  1.00  0.00     0.135 A 
HETATM   17  C16 UNL     1      22.423  -0.643  53.837  1.00  0.00     0.003 A 
HETATM   18  C17 UNL     1      21.799  -1.568  54.551  1.00  0.00    -0.001 A 
HETATM   19  C18 UNL     1      20.398  -1.534  54.143  1.00  0.00     0.005 A 
HETATM   20  C19 UNL     1      20.212  -0.604  53.207  1.00  0.00    -0.058 A 
HETATM   21  C20 UNL     1      18.864  -0.363  52.616  1.00  0.00     0.046 C 
ENDBRANCH  14  16
ENDBRANCH  13  14
BRANCH   1  22
HETATM   22  O1  UNL     1      26.832   0.544  52.995  1.00  0.00    -0.382 OA
BRANCH  22  23
HETATM   23  C4  UNL     1      27.858   1.256  53.570  1.00  0.00     0.168 C 
BRANCH  23  24
HETATM   24  C3  UNL     1      28.624   0.284  54.477  1.00  0.00     0.026 C 
BRANCH  24  25
HETATM   25  C2  UNL     1      29.723  -0.368  53.679  1.00  0.00    -0.002 C 
HETATM   26  C1  UNL     1      29.395  -1.796  53.312  1.00  0.00     0.005 C 
ENDBRANCH  24  25
ENDBRANCH  23  24
ENDBRANCH  22  23
ENDBRANCH   1  22
TORSDOF 6
ENDMDL
MODEL 2
REMARK VINA RESULT:      -7.7      2.319      5.528
REMARK  6 active torsions:
REMARK  status: ('A' for Active; 'I' for Inactive)
REMARK    1  A    between atoms: C2_2  and  C3_3 
REMARK    2  A    between atoms: C3_3  and  C4_4 
REMARK    3  A    between atoms: C4_4  and  O1_5 
REMARK    4  A    between atoms: O1_5  and  C5_6 
REMARK    5  A    between atoms: C14_18  and  N3_19 
REMARK    6  A    between atoms: N3_19  and  C15_20 
ROOT
HETATM    1  C5  UNL     1      25.585   3.718  49.332  1.00  0.00     0.146 C 
HETATM    2  C6  UNL     1      25.615   2.734  50.425  1.00  0.00     0.017 C 
HETATM    3  C7  UNL     1      25.082   2.663  51.641  1.00  0.00     0.006 C 
HETATM    4  C8  UNL     1      24.216   3.357  52.679  1.00  0.00     0.193 C 
HETATM    5  N1  UNL     1      23.365   2.195  53.129  1.00  0.00    -0.270 NA
HETATM    6  C9  UNL     1      22.897   1.485  52.117  1.00  0.00     0.125 C 
HETATM    7  C10 UNL     1      22.158   0.778  51.041  1.00  0.00     0.106 C 
HETATM    8  C11 UNL     1      21.819   1.847  49.950  1.00  0.00     0.175 C 
HETATM    9  O2  UNL     1      22.990   2.602  49.912  1.00  0.00    -0.391 OA
HETATM   10  C12 UNL     1      23.061   3.600  49.003  1.00  0.00     0.170 C 
HETATM   11  C13 UNL     1      24.276   4.453  49.253  1.00  0.00     0.062 C 
HETATM   12  N2  UNL     1      24.237   1.033  51.787  1.00  0.00    -0.216 NA
HETATM   13  C14 UNL     1      25.236   1.430  52.485  1.00  0.00     0.134 C 
ENDROOT
BRANCH  13  14
HETATM   14  N3  UNL     1      26.094   0.999  53.522  1.00  0.00    -0.363 N 
HETATM   15  H22 UNL     1      25.516   1.106  54.384  1.00  0.00     0.162 HD
BRANCH  14  16
HETATM   16  C15 UNL     1      27.326   0.632  52.873  1.00  0.00     0.135 A 
HETATM   17  C16 UNL     1      28.512   1.279  53.446  1.00  0.00     0.003 A 
HETATM   18  C17 UNL     1      29.417   0.382  53.806  1.00  0.00    -0.001 A 
HETATM   19  C18 UNL     1      28.858  -0.926  53.482  1.00  0.00     0.005 A 
HETATM   20  C19 UNL     1      27.648  -0.790  52.940  1.00  0.00    -0.058 A 
HETATM   21  C20 UNL     1      26.853  -1.980  52.516  1.00  0.00     0.046 C 
ENDBRANCH  14  16
ENDBRANCH  13  14
BRANCH   1  22
HETATM   22  O1  UNL     1      26.659   4.608  49.505  1.00  0.00    -0.382 OA
BRANCH  22  23
HETATM   23  C4  UNL     1      26.364   5.904  49.152  1.00  0.00     0.168 C 
BRANCH  23  24
HETATM   24  C3  UNL     1      27.455   6.361  48.174  1.00  0.00     0.026 C 
BRANCH  24  25
HETATM   25  C2  UNL     1      28.640   5.439  48.296  1.00  0.00    -0.002 C 
HETATM   26  C1  UNL     1      29.951   6.190  48.326  1.00  0.00     0.005 C 
ENDBRANCH  24  25
ENDBRANCH  23  24
ENDBRANCH  22  23
ENDBRANCH   1  22
TORSDOF 6
ENDMDL
MODEL 3
REMARK VINA RESULT:      -7.6      2.129      5.575
REMARK  6 active torsions:
REMARK  status: ('A' for Active; 'I' for Inactive)
REMARK    1  A    between atoms: C2_2  and  C3_3 
REMARK    2  A    between atoms: C3_3  and  C4_4 
REMARK    3  A    between atoms: C4_4  and  O1_5 
REMARK    4  A    between atoms: O1_5  and  C5_6 
REMARK    5  A    between atoms: C14_18  and  N3_19 
REMARK    6  A    between atoms: N3_19  and  C15_20 
ROOT
HETATM    1  C5  UNL     1      21.369   1.740  52.371  1.00  0.00     0.146 C 
HETATM    2  C6  UNL     1      22.804   2.016  52.210  1.00  0.00     0.017 C 
HETATM    3  C7  UNL     1      23.589   2.341  51.188  1.00  0.00     0.006 C 
HETATM    4  C8  UNL     1      23.664   2.625  49.697  1.00  0.00     0.193 C 
HETATM    5  N1  UNL     1      24.551   3.846  49.708  1.00  0.00    -0.270 NA
HETATM    6  C9  UNL     1      24.190   4.730  50.621  1.00  0.00     0.125 C 
HETATM    7  C10 UNL     1      23.717   5.858  51.462  1.00  0.00     0.106 C 
HETATM    8  C11 UNL     1      22.153   5.812  51.440  1.00  0.00     0.175 C 
HETATM    9  O2  UNL     1      21.904   4.443  51.522  1.00  0.00    -0.391 OA
HETATM   10  C12 UNL     1      20.614   4.046  51.591  1.00  0.00     0.170 C 
HETATM   11  C13 UNL     1      20.516   2.551  51.436  1.00  0.00     0.062 C 
HETATM   12  N2  UNL     1      24.572   3.818  51.685  1.00  0.00    -0.216 NA
HETATM   13  C14 UNL     1      25.042   2.661  51.397  1.00  0.00     0.134 C 
ENDROOT
BRANCH  13  14
HETATM   14  N3  UNL     1      26.268   1.964  51.303  1.00  0.00    -0.363 N 
HETATM   15  H22 UNL     1      26.644   2.247  50.370  1.00  0.00     0.162 HD
BRANCH  14  16
HETATM   16  C15 UNL     1      26.383   1.221  52.530  1.00  0.00     0.135 A 
HETATM   17  C16 UNL     1      26.109  -0.213  52.381  1.00  0.00     0.003 A 
HETATM   18  C17 UNL     1      27.120  -0.941  52.832  1.00  0.00    -0.001 A 
HETATM   19  C18 UNL     1      28.129  -0.001  53.308  1.00  0.00     0.005 A 
HETATM   20  C19 UNL     1      27.710   1.253  53.138  1.00  0.00    -0.058 A 
HETATM   21  C20 UNL     1      28.557   2.412  53.543  1.00  0.00     0.046 C 
ENDBRANCH  14  16
ENDBRANCH  13  14
BRANCH   1  22
HETATM   22  O1  UNL     1      21.157   0.363  52.187  1.00  0.00    -0.382 OA
BRANCH  22  23
HETATM   23  C4  UNL     1      20.203  -0.167  53.024  1.00  0.00     0.168 C 
BRANCH  23  24
HETATM   24  C3  UNL     1      20.804  -0.180  54.436  1.00  0.00     0.026 C 
BRANCH  24  25
HETATM   25  C2  UNL     1      21.615  -1.438  54.612  1.00  0.00    -0.002 C 
HETATM   26  C1  UNL     1      23.027  -1.152  55.065  1.00  0.00     0.005 C 
ENDBRANCH  24  25
ENDBRANCH  23  24
ENDBRANCH  22  23
ENDBRANCH   1  22
TORSDOF 6
ENDMDL
MODEL 4
REMARK VINA RESULT:      -7.6      2.517      6.953
REMARK  6 active torsions:
REMARK  status: ('A' for Active; 'I' for Inactive)
REMARK    1  A    between atoms: C2_2  and  C3_3 
REMARK    2  A    between atoms: C3_3  and  C4_4 
REMARK    3  A    between atoms: C4_4  and  O1_5 
REMARK    4  A    between atoms: O1_5  and  C5_6 
REMARK    5  A    between atoms: C14_18  and  N3_19 
REMARK    6  A    between atoms: N3_19  and  C15_20 
ROOT
HETATM    1  C5  UNL     1      22.680   1.064  51.987  1.00  0.00     0.146 C 
HETATM    2  C6  UNL     1      23.984   1.624  51.597  1.00  0.00     0.017 C 
HETATM    3  C7  UNL     1      25.023   2.130  52.252  1.00  0.00     0.006 C 
HETATM    4  C8  UNL     1      25.607   2.480  53.611  1.00  0.00     0.193 C 
HETATM    5  N1  UNL     1      27.013   1.960  53.434  1.00  0.00    -0.270 NA
HETATM    6  C9  UNL     1      27.045   0.755  52.894  1.00  0.00     0.125 C 
HETATM    7  C10 UNL     1      27.156  -0.673  52.501  1.00  0.00     0.106 C 
HETATM    8  C11 UNL     1      25.935  -1.412  53.145  1.00  0.00     0.175 C 
HETATM    9  O2  UNL     1      24.908  -0.489  52.958  1.00  0.00    -0.391 OA
HETATM   10  C12 UNL     1      23.666  -0.848  53.355  1.00  0.00     0.170 C 
HETATM   11  C13 UNL     1      22.736   0.335  53.301  1.00  0.00     0.062 C 
HETATM   12  N2  UNL     1      26.539   1.281  51.638  1.00  0.00    -0.216 NA
HETATM   13  C14 UNL     1      26.276   2.531  51.528  1.00  0.00     0.134 C 
ENDROOT
BRANCH  13  14
HETATM   14  N3  UNL     1      26.822   3.727  51.010  1.00  0.00    -0.363 N 
HETATM   15  H22 UNL     1      27.474   4.049  51.759  1.00  0.00     0.162 HD
BRANCH  14  16
HETATM   16  C15 UNL     1      26.209   3.901  49.719  1.00  0.00     0.135 A 
HETATM   17  C16 UNL     1      24.800   4.307  49.782  1.00  0.00     0.003 A 
HETATM   18  C17 UNL     1      24.593   5.420  49.093  1.00  0.00    -0.001 A 
HETATM   19  C18 UNL     1      25.883   5.807  48.532  1.00  0.00     0.005 A 
HETATM   20  C19 UNL     1      26.824   4.933  48.889  1.00  0.00    -0.058 A 
HETATM   21  C20 UNL     1      28.239   5.098  48.446  1.00  0.00     0.046 C 
ENDBRANCH  14  16
ENDBRANCH  13  14
BRANCH   1  22
HETATM   22  O1  UNL     1      21.740   2.108  52.025  1.00  0.00    -0.382 OA
BRANCH  22  23
HETATM   23  C4  UNL     1      20.478   1.728  51.635  1.00  0.00     0.168 C 
BRANCH  23  24
HETATM   24  C3  UNL     1      20.634   0.902  50.352  1.00  0.00     0.026 C 
BRANCH  24  25
HETATM   25  C2  UNL     1      20.718   1.837  49.174  1.00  0.00    -0.002 C 
HETATM   26  C1  UNL     1      21.930   1.568  48.312  1.00  0.00     0.005 C 
ENDBRANCH  24  25
ENDBRANCH  23  24
ENDBRANCH  22  23
ENDBRANCH   1  22
TORSDOF 6
ENDMDL
MODEL 5
REMARK VINA RESULT:      -7.6      2.226      5.649
REMARK  6 active torsions:
REMARK  status: ('A' for Active; 'I' for Inactive)
REMARK    1  A    between atoms: C2_2  and  C3_3 
REMARK    2  A    between atoms: C3_3  and  C4_4 
REMARK    3  A    between atoms: C4_4  and  O1_5 
REMARK    4  A    between atoms: O1_5  and  C5_6 
REMARK    5  A    between atoms: C14_18  and  N3_19 
REMARK    6  A    between atoms: N3_19  and  C15_20 
ROOT
HETATM    1  C5  UNL     1      22.948   0.782  53.118  1.00  0.00     0.146 C 
HETATM    2  C6  UNL     1      23.247   1.708  52.014  1.00  0.00     0.017 C 
HETATM    3  C7  UNL     1      22.839   1.831  50.755  1.00  0.00     0.006 C 
HETATM    4  C8  UNL     1      21.952   1.269  49.657  1.00  0.00     0.193 C 
HETATM    5  N1  UNL     1      21.366   2.549  49.113  1.00  0.00    -0.270 NA
HETATM    6  C9  UNL     1      20.952   3.365  50.066  1.00  0.00     0.125 C 
HETATM    7  C10 UNL     1      20.266   4.229  51.060  1.00  0.00     0.106 C 
HETATM    8  C11 UNL     1      19.649   3.275  52.136  1.00  0.00     0.175 C 
HETATM    9  O2  UNL     1      20.656   2.325  52.291  1.00  0.00    -0.391 OA
HETATM   10  C12 UNL     1      20.468   1.361  53.221  1.00  0.00     0.170 C 
HETATM   11  C13 UNL     1      21.525   0.296  53.094  1.00  0.00     0.062 C 
HETATM   12  N2  UNL     1      22.319   3.581  50.505  1.00  0.00    -0.216 NA
HETATM   13  C14 UNL     1      23.284   2.987  49.906  1.00  0.00     0.134 C 
ENDROOT
BRANCH  13  14
HETATM   14  N3  UNL     1      24.290   3.222  48.941  1.00  0.00    -0.363 N 
HETATM   15  H22 UNL     1      23.979   2.664  48.115  1.00  0.00     0.162 HD
BRANCH  14  16
HETATM   16  C15 UNL     1      25.232   4.106  49.576  1.00  0.00     0.135 A 
HETATM   17  C16 UNL     1      26.625   3.653  49.483  1.00  0.00     0.003 A 
HETATM   18  C17 UNL     1      27.396   4.587  48.945  1.00  0.00    -0.001 A 
HETATM   19  C18 UNL     1      26.528   5.723  48.652  1.00  0.00     0.005 A 
HETATM   20  C19 UNL     1      25.274   5.454  49.014  1.00  0.00    -0.058 A 
HETATM   21  C20 UNL     1      24.183   6.452  48.822  1.00  0.00     0.046 C 
ENDBRANCH  14  16
ENDBRANCH  13  14
BRANCH   1  22
HETATM   22  O1  UNL     1      23.853  -0.291  53.057  1.00  0.00    -0.382 OA
BRANCH  22  23
HETATM   23  C4  UNL     1      25.009  -0.081  53.771  1.00  0.00     0.168 C 
BRANCH  23  24
HETATM   24  C3  UNL     1      26.109  -0.909  53.095  1.00  0.00     0.026 C 
BRANCH  24  25
HETATM   25  C2  UNL     1      26.683  -0.120  51.947  1.00  0.00    -0.002 C 
HETATM   26  C1  UNL     1      26.937   1.324  52.313  1.00  0.00     0.005 C 
ENDBRANCH  24  25
ENDBRANCH  23  24
ENDBRANCH  22  23
ENDBRANCH   1  22
TORSDOF 6
ENDMDL
MODEL 6
REMARK VINA RESULT:      -7.3      7.269      9.711
REMARK  6 active torsions:
REMARK  status: ('A' for Active; 'I' for Inactive)
REMARK    1  A    between atoms: C2_2  and  C3_3 
REMARK    2  A    between atoms: C3_3  and  C4_4 
REMARK    3  A    between atoms: C4_4  and  O1_5 
REMARK    4  A    between atoms: O1_5  and  C5_6 
REMARK    5  A    between atoms: C14_18  and  N3_19 
REMARK    6  A    between atoms: N3_19  and  C15_20 
ROOT
HETATM    1  C5  UNL     1      32.435   5.548  46.770  1.00  0.00     0.146 C 
HETATM    2  C6  UNL     1      31.277   6.308  47.266  1.00  0.00     0.017 C 
HETATM    3  C7  UNL     1      31.050   7.097  48.311  1.00  0.00     0.006 C 
HETATM    4  C8  UNL     1      31.632   7.725  49.567  1.00  0.00     0.193 C 
HETATM    5  N1  UNL     1      31.104   9.131  49.425  1.00  0.00    -0.270 NA
HETATM    6  C9  UNL     1      31.262   9.614  48.205  1.00  0.00     0.125 C 
HETATM    7  C10 UNL     1      31.601  10.300  46.933  1.00  0.00     0.106 C 
HETATM    8  C11 UNL     1      32.996   9.751  46.483  1.00  0.00     0.175 C 
HETATM    9  O2  UNL     1      32.885   8.396  46.790  1.00  0.00    -0.391 OA
HETATM   10  C12 UNL     1      33.923   7.594  46.462  1.00  0.00     0.170 C 
HETATM   11  C13 UNL     1      33.743   6.227  47.068  1.00  0.00     0.062 C 
HETATM   12  N2  UNL     1      30.302   8.658  47.680  1.00  0.00    -0.216 NA
HETATM   13  C14 UNL     1      29.741   7.817  48.468  1.00  0.00     0.134 C 
ENDROOT
BRANCH  13  14
HETATM   14  N3  UNL     1      28.530   7.601  49.165  1.00  0.00    -0.363 N 
HETATM   15  H22 UNL     1      28.627   8.191  50.021  1.00  0.00     0.162 HD
BRANCH  14  16
HETATM   16  C15 UNL     1      27.777   6.684  48.350  1.00  0.00     0.135 A 
HETATM   17  C16 UNL     1      28.115   5.274  48.578  1.00  0.00     0.003 A 
HETATM   18  C17 UNL     1      27.036   4.569  48.885  1.00  0.00    -0.001 A 
HETATM   19  C18 UNL     1      25.913   5.501  48.872  1.00  0.00     0.005 A 
HETATM   20  C19 UNL     1      26.333   6.728  48.563  1.00  0.00    -0.058 A 
HETATM   21  C20 UNL     1      25.381   7.873  48.482  1.00  0.00     0.046 C 
ENDBRANCH  14  16
ENDBRANCH  13  14
BRANCH   1  22
HETATM   22  O1  UNL     1      32.394   4.259  47.328  1.00  0.00    -0.382 OA
BRANCH  22  23
HETATM   23  C4  UNL     1      33.636   3.729  47.589  1.00  0.00     0.168 C 
BRANCH  23  24
HETATM   24  C3  UNL     1      33.476   2.203  47.613  1.00  0.00     0.026 C 
BRANCH  24  25
HETATM   25  C2  UNL     1      32.300   1.820  46.753  1.00  0.00    -0.002 C 
HETATM   26  C1  UNL     1      32.076   0.326  46.719  1.00  0.00     0.005 C 
ENDBRANCH  24  25
ENDBRANCH  23  24
ENDBRANCH  22  23
ENDBRANCH   1  22
TORSDOF 6
ENDMDL
MODEL 7
REMARK VINA RESULT:      -7.1      1.369      1.775
REMARK  6 active torsions:
REMARK  status: ('A' for Active; 'I' for Inactive)
REMARK    1  A    between atoms: C2_2  and  C3_3 
REMARK    2  A    between atoms: C3_3  and  C4_4 
REMARK    3  A    between atoms: C4_4  and  O1_5 
REMARK    4  A    between atoms: O1_5  and  C5_6 
REMARK    5  A    between atoms: C14_18  and  N3_19 
REMARK    6  A    between atoms: N3_19  and  C15_20 
ROOT
HETATM    1  C5  UNL     1      25.331   2.697  50.804  1.00  0.00     0.146 C 
HETATM    2  C6  UNL     1      23.969   2.336  51.228  1.00  0.00     0.017 C 
HETATM    3  C7  UNL     1      22.962   2.984  51.805  1.00  0.00     0.006 C 
HETATM    4  C8  UNL     1      22.478   4.305  52.380  1.00  0.00     0.193 C 
HETATM    5  N1  UNL     1      21.094   4.360  51.779  1.00  0.00    -0.270 NA
HETATM    6  C9  UNL     1      21.085   4.055  50.494  1.00  0.00     0.125 C 
HETATM    7  C10 UNL     1      21.023   3.942  49.015  1.00  0.00     0.106 C 
HETATM    8  C11 UNL     1      22.334   4.591  48.459  1.00  0.00     0.175 C 
HETATM    9  O2  UNL     1      23.287   4.142  49.371  1.00  0.00    -0.391 OA
HETATM   10  C12 UNL     1      24.577   4.478  49.144  1.00  0.00     0.170 C 
HETATM   11  C13 UNL     1      25.430   4.121  50.332  1.00  0.00     0.062 C 
HETATM   12  N2  UNL     1      21.451   2.682  50.795  1.00  0.00    -0.216 NA
HETATM   13  C14 UNL     1      21.631   2.321  52.012  1.00  0.00     0.134 C 
ENDROOT
BRANCH  13  14
HETATM   14  N3  UNL     1      20.975   1.647  53.068  1.00  0.00    -0.363 N 
HETATM   15  H22 UNL     1      20.453   2.405  53.561  1.00  0.00     0.162 HD
BRANCH  14  16
HETATM   16  C15 UNL     1      21.353   0.264  52.934  1.00  0.00     0.135 A 
HETATM   17  C16 UNL     1      22.597  -0.080  53.633  1.00  0.00     0.003 A 
HETATM   18  C17 UNL     1      22.409  -1.087  54.472  1.00  0.00    -0.001 A 
HETATM   19  C18 UNL     1      21.003  -1.462  54.363  1.00  0.00     0.005 A 
HETATM   20  C19 UNL     1      20.384  -0.685  53.475  1.00  0.00    -0.058 A 
HETATM   21  C20 UNL     1      18.933  -0.859  53.174  1.00  0.00     0.046 C 
ENDBRANCH  14  16
ENDBRANCH  13  14
BRANCH   1  22
HETATM   22  O1  UNL     1      26.209   2.453  51.873  1.00  0.00    -0.382 OA
BRANCH  22  23
HETATM   23  C4  UNL     1      26.852   1.241  51.795  1.00  0.00     0.168 C 
BRANCH  23  24
HETATM   24  C3  UNL     1      26.478   0.453  53.057  1.00  0.00     0.026 C 
BRANCH  24  25
HETATM   25  C2  UNL     1      27.136  -0.902  53.003  1.00  0.00    -0.002 C 
HETATM   26  C1  UNL     1      28.605  -0.839  53.350  1.00  0.00     0.005 C 
ENDBRANCH  24  25
ENDBRANCH  23  24
ENDBRANCH  22  23
ENDBRANCH   1  22
TORSDOF 6
ENDMDL
MODEL 8
REMARK VINA RESULT:      -7.0      2.660      5.318
REMARK  6 active torsions:
REMARK  status: ('A' for Active; 'I' for Inactive)
REMARK    1  A    between atoms: C2_2  and  C3_3 
REMARK    2  A    between atoms: C3_3  and  C4_4 
REMARK    3  A    between atoms: C4_4  and  O1_5 
REMARK    4  A    between atoms: O1_5  and  C5_6 
REMARK    5  A    between atoms: C14_18  and  N3_19 
REMARK    6  A    between atoms: N3_19  and  C15_20 
ROOT
HETATM    1  C5  UNL     1      25.542   5.929  48.822  1.00  0.00     0.146 C 
HETATM    2  C6  UNL     1      25.506   4.751  49.704  1.00  0.00     0.017 C 
HETATM    3  C7  UNL     1      24.752   4.368  50.728  1.00  0.00     0.006 C 
HETATM    4  C8  UNL     1      23.587   4.721  51.639  1.00  0.00     0.193 C 
HETATM    5  N1  UNL     1      22.865   3.396  51.666  1.00  0.00    -0.270 NA
HETATM    6  C9  UNL     1      22.740   2.859  50.466  1.00  0.00     0.125 C 
HETATM    7  C10 UNL     1      22.368   2.305  49.140  1.00  0.00     0.106 C 
HETATM    8  C11 UNL     1      22.090   3.527  48.202  1.00  0.00     0.175 C 
HETATM    9  O2  UNL     1      23.103   4.410  48.572  1.00  0.00    -0.391 OA
HETATM   10  C12 UNL     1      23.194   5.576  47.894  1.00  0.00     0.170 C 
HETATM   11  C13 UNL     1      24.174   6.500  48.567  1.00  0.00     0.062 C 
HETATM   12  N2  UNL     1      24.176   2.651  50.386  1.00  0.00    -0.216 NA
HETATM   13  C14 UNL     1      24.929   3.015  51.357  1.00  0.00     0.134 C 
ENDROOT
BRANCH  13  14
HETATM   14  N3  UNL     1      25.613   2.487  52.476  1.00  0.00    -0.363 N 
HETATM   15  H22 UNL     1      25.734   3.311  53.106  1.00  0.00     0.162 HD
BRANCH  14  16
HETATM   16  C15 UNL     1      25.799   1.089  52.188  1.00  0.00     0.135 A 
HETATM   17  C16 UNL     1      27.165   0.611  52.427  1.00  0.00     0.003 A 
HETATM   18  C17 UNL     1      27.171  -0.423  53.255  1.00  0.00    -0.001 A 
HETATM   19  C18 UNL     1      25.779  -0.682  53.607  1.00  0.00     0.005 A 
HETATM   20  C19 UNL     1      24.977   0.189  52.993  1.00  0.00    -0.058 A 
HETATM   21  C20 UNL     1      23.498   0.145  53.184  1.00  0.00     0.046 C 
ENDBRANCH  14  16
ENDBRANCH  13  14
BRANCH   1  22
HETATM   22  O1  UNL     1      26.394   6.888  49.395  1.00  0.00    -0.382 OA
BRANCH  22  23
HETATM   23  C4  UNL     1      26.838   7.836  48.503  1.00  0.00     0.168 C 
BRANCH  23  24
HETATM   24  C3  UNL     1      28.371   7.802  48.539  1.00  0.00     0.026 C 
BRANCH  24  25
HETATM   25  C2  UNL     1      28.864   6.799  47.528  1.00  0.00    -0.002 C 
HETATM   26  C1  UNL     1      29.334   5.516  48.174  1.00  0.00     0.005 C 
ENDBRANCH  24  25
ENDBRANCH  23  24
ENDBRANCH  22  23
ENDBRANCH   1  22
TORSDOF 6
ENDMDL
MODEL 9
REMARK VINA RESULT:      -6.9      2.156      5.424
REMARK  6 active torsions:
REMARK  status: ('A' for Active; 'I' for Inactive)
REMARK    1  A    between atoms: C2_2  and  C3_3 
REMARK    2  A    between atoms: C3_3  and  C4_4 
REMARK    3  A    between atoms: C4_4  and  O1_5 
REMARK    4  A    between atoms: O1_5  and  C5_6 
REMARK    5  A    between atoms: C14_18  and  N3_19 
REMARK    6  A    between atoms: N3_19  and  C15_20 
ROOT
HETATM    1  C5  UNL     1      24.882   1.974  53.031  1.00  0.00     0.146 C 
HETATM    2  C6  UNL     1      23.435   2.227  52.939  1.00  0.00     0.017 C 
HETATM    3  C7  UNL     1      22.434   1.712  52.234  1.00  0.00     0.006 C 
HETATM    4  C8  UNL     1      22.026   0.690  51.185  1.00  0.00     0.193 C 
HETATM    5  N1  UNL     1      20.776   0.140  51.828  1.00  0.00    -0.270 NA
HETATM    6  C9  UNL     1      20.939  -0.128  53.111  1.00  0.00     0.125 C 
HETATM    7  C10 UNL     1      21.106  -0.659  54.488  1.00  0.00     0.106 C 
HETATM    8  C11 UNL     1      22.560  -1.234  54.575  1.00  0.00     0.175 C 
HETATM    9  O2  UNL     1      23.289  -0.280  53.868  1.00  0.00    -0.391 OA
HETATM   10  C12 UNL     1      24.630  -0.443  53.802  1.00  0.00     0.170 C 
HETATM   11  C13 UNL     1      25.229   0.526  52.816  1.00  0.00     0.062 C 
HETATM   12  N2  UNL     1      21.082   1.286  53.411  1.00  0.00    -0.216 NA
HETATM   13  C14 UNL     1      21.016   2.149  52.466  1.00  0.00     0.134 C 
ENDROOT
BRANCH  13  14
HETATM   14  N3  UNL     1      20.121   3.073  51.881  1.00  0.00    -0.363 N 
HETATM   15  H22 UNL     1      19.307   3.080  52.536  1.00  0.00     0.162 HD
BRANCH  14  16
HETATM   16  C15 UNL     1      20.775   3.538  50.686  1.00  0.00     0.135 A 
HETATM   17  C16 UNL     1      19.919   3.511  49.494  1.00  0.00     0.003 A 
HETATM   18  C17 UNL     1      19.867   4.703  48.917  1.00  0.00    -0.001 A 
HETATM   19  C18 UNL     1      20.705   5.589  49.718  1.00  0.00     0.005 A 
HETATM   20  C19 UNL     1      21.234   4.923  50.744  1.00  0.00    -0.058 A 
HETATM   21  C20 UNL     1      22.134   5.600  51.723  1.00  0.00     0.046 C 
ENDBRANCH  14  16
ENDBRANCH  13  14
BRANCH   1  22
HETATM   22  O1  UNL     1      25.538   2.796  52.100  1.00  0.00    -0.382 OA
BRANCH  22  23
HETATM   23  C4  UNL     1      26.026   2.117  51.009  1.00  0.00     0.168 C 
BRANCH  23  24
HETATM   24  C3  UNL     1      26.333   3.163  49.930  1.00  0.00     0.026 C 
BRANCH  24  25
HETATM   25  C2  UNL     1      25.090   3.970  49.661  1.00  0.00    -0.002 C 
HETATM   26  C1  UNL     1      23.969   3.128  49.099  1.00  0.00     0.005 C 
ENDBRANCH  24  25
ENDBRANCH  23  24
ENDBRANCH  22  23
ENDBRANCH   1  22
TORSDOF 6
ENDMDL
