MODEL 1
REMARK VINA RESULT:      -9.6      0.000      0.000
REMARK  0 active torsions:
REMARK  status: ('A' for Active; 'I' for Inactive)
ROOT
HETATM    1  O1  UNL     1      25.970   0.338  53.430  1.00  0.00    -0.290 OA
HETATM    2  C1  UNL     1      25.420   1.117  52.550  1.00  0.00     0.179 C 
HETATM    3  C2  UNL     1      26.620   1.868  52.163  1.00  0.00     0.259 C 
HETATM    4  O2  UNL     1      26.589   2.728  51.123  1.00  0.00    -0.344 OA
HETATM    5  C3  UNL     1      26.030   3.821  50.634  1.00  0.00     0.069 A 
HETATM    6  C4  UNL     1      25.120   4.707  51.148  1.00  0.00     0.039 A 
HETATM    7  C5  UNL     1      24.657   5.784  50.459  1.00  0.00     0.036 A 
HETATM    8  C6  UNL     1      25.090   6.044  49.187  1.00  0.00     0.079 A 
HETATM    9  C7  UNL     1      26.013   5.202  48.590  1.00  0.00     0.036 A 
HETATM   10  C8  UNL     1      26.481   4.086  49.322  1.00  0.00     0.039 A 
HETATM   11  N1  UNL     1      24.795   7.075  48.261  1.00  0.00    -0.156 NA
HETATM   12  N2  UNL     1      23.866   7.073  47.513  1.00  0.00    -0.193 NA
HETATM   13  C9  UNL     1      22.751   6.396  47.062  1.00  0.00     0.173 C 
HETATM   14  C10 UNL     1      22.680   4.954  47.520  1.00  0.00     0.024 C 
HETATM   15  C11 UNL     1      21.448   4.255  47.043  1.00  0.00     0.003 C 
HETATM   16  C12 UNL     1      21.418   2.796  47.540  1.00  0.00     0.016 C 
HETATM   17  C13 UNL     1      21.585   2.769  49.030  1.00  0.00     0.113 C 
HETATM   18  N3  UNL     1      21.453   1.524  49.679  1.00  0.00    -0.231 NA
HETATM   19  C14 UNL     1      21.760   1.635  51.115  1.00  0.00     0.141 C 
HETATM   20  C15 UNL     1      23.211   1.785  51.382  1.00  0.00     0.001 C 
HETATM   21  C16 UNL     1      23.985   1.062  52.217  1.00  0.00    -0.004 C 
HETATM   22  C17 UNL     1      23.589  -0.009  53.169  1.00  0.00     0.057 C 
HETATM   23  C18 UNL     1      22.838  -0.857  53.848  1.00  0.00    -0.016 C 
HETATM   24  C19 UNL     1      21.627  -1.548  54.300  1.00  0.00    -0.003 C 
HETATM   25  C20 UNL     1      20.353  -1.509  54.073  1.00  0.00     0.001 C 
HETATM   26  C21 UNL     1      19.280  -0.879  53.339  1.00  0.00     0.017 C 
HETATM   27  C22 UNL     1      18.915   0.022  52.468  1.00  0.00     0.084 C 
HETATM   28  N4  UNL     1      18.976   1.082  51.523  1.00  0.00    -0.382 N 
HETATM   29  C23 UNL     1      19.130   1.101  50.118  1.00  0.00     0.255 C 
HETATM   30  N5  UNL     1      20.340   0.775  49.502  1.00  0.00    -0.337 N 
HETATM   31  H26 UNL     1      18.894   2.054  51.984  1.00  0.00     0.160 HD
HETATM   32  H29 UNL     1      20.204   0.344  48.577  1.00  0.00     0.176 HD
ENDROOT
TORSDOF 0
ENDMDL
MODEL 2
REMARK VINA RESULT:      -9.5      3.011      5.347
REMARK  0 active torsions:
REMARK  status: ('A' for Active; 'I' for Inactive)
ROOT
HETATM    1  O1  UNL     1      19.185  -0.737  53.308  1.00  0.00    -0.290 OA
HETATM    2  C1  UNL     1      19.808   0.141  52.585  1.00  0.00     0.179 C 
HETATM    3  C2  UNL     1      18.694   0.508  51.702  1.00  0.00     0.259 C 
HETATM    4  O2  UNL     1      18.809   1.540  50.840  1.00  0.00    -0.344 OA
HETATM    5  C3  UNL     1      19.480   2.025  49.810  1.00  0.00     0.069 A 
HETATM    6  C4  UNL     1      20.487   1.512  49.034  1.00  0.00     0.039 A 
HETATM    7  C5  UNL     1      21.059   2.196  48.007  1.00  0.00     0.036 A 
HETATM    8  C6  UNL     1      20.644   3.461  47.688  1.00  0.00     0.079 A 
HETATM    9  C7  UNL     1      19.628   4.056  48.417  1.00  0.00     0.036 A 
HETATM   10  C8  UNL     1      19.048   3.329  49.483  1.00  0.00     0.039 A 
HETATM   11  N1  UNL     1      21.042   4.380  46.686  1.00  0.00    -0.156 NA
HETATM   12  N2  UNL     1      21.958   5.139  46.782  1.00  0.00    -0.193 NA
HETATM   13  C9  UNL     1      22.987   5.608  47.572  1.00  0.00     0.173 C 
HETATM   14  C10 UNL     1      22.903   5.165  49.019  1.00  0.00     0.024 C 
HETATM   15  C11 UNL     1      24.046   5.662  49.843  1.00  0.00     0.003 C 
HETATM   16  C12 UNL     1      23.921   5.179  51.302  1.00  0.00     0.016 C 
HETATM   17  C13 UNL     1      23.766   3.688  51.326  1.00  0.00     0.113 C 
HETATM   18  N3  UNL     1      23.767   3.053  52.585  1.00  0.00    -0.231 NA
HETATM   19  C14 UNL     1      23.488   1.612  52.457  1.00  0.00     0.141 C 
HETATM   20  C15 UNL     1      22.065   1.328  52.151  1.00  0.00     0.001 C 
HETATM   21  C16 UNL     1      21.225   0.491  52.793  1.00  0.00    -0.004 C 
HETATM   22  C17 UNL     1      21.510  -0.446  53.911  1.00  0.00     0.057 C 
HETATM   23  C18 UNL     1      22.170  -1.108  54.844  1.00  0.00    -0.016 C 
HETATM   24  C19 UNL     1      23.302  -1.541  55.669  1.00  0.00    -0.003 C 
HETATM   25  C20 UNL     1      24.570  -1.300  55.767  1.00  0.00     0.001 C 
HETATM   26  C21 UNL     1      25.699  -0.561  55.251  1.00  0.00     0.017 C 
HETATM   27  C22 UNL     1      26.152   0.306  54.386  1.00  0.00     0.084 C 
HETATM   28  N4  UNL     1      26.198   1.240  53.317  1.00  0.00    -0.382 N 
HETATM   29  C23 UNL     1      26.033   2.643  53.265  1.00  0.00     0.255 C 
HETATM   30  N5  UNL     1      24.789   3.248  53.450  1.00  0.00    -0.337 N 
HETATM   31  H26 UNL     1      26.391   0.771  52.364  1.00  0.00     0.160 HD
HETATM   32  H29 UNL     1      24.867   4.179  53.883  1.00  0.00     0.176 HD
ENDROOT
TORSDOF 0
ENDMDL
MODEL 3
REMARK VINA RESULT:      -9.3      2.056      3.162
REMARK  0 active torsions:
REMARK  status: ('A' for Active; 'I' for Inactive)
ROOT
HETATM    1  O1  UNL     1      27.119   2.453  51.312  1.00  0.00    -0.290 OA
HETATM    2  C1  UNL     1      25.902   2.812  51.042  1.00  0.00     0.179 C 
HETATM    3  C2  UNL     1      26.211   3.877  50.081  1.00  0.00     0.259 C 
HETATM    4  O2  UNL     1      25.228   4.475  49.375  1.00  0.00    -0.344 OA
HETATM    5  C3  UNL     1      24.115   5.184  49.448  1.00  0.00     0.069 A 
HETATM    6  C4  UNL     1      23.439   5.743  50.501  1.00  0.00     0.039 A 
HETATM    7  C5  UNL     1      22.279   6.438  50.358  1.00  0.00     0.036 A 
HETATM    8  C6  UNL     1      21.718   6.620  49.123  1.00  0.00     0.079 A 
HETATM    9  C7  UNL     1      22.336   6.093  48.002  1.00  0.00     0.036 A 
HETATM   10  C8  UNL     1      23.540   5.371  48.173  1.00  0.00     0.039 A 
HETATM   11  N1  UNL     1      20.551   7.296  48.687  1.00  0.00    -0.156 NA
HETATM   12  N2  UNL     1      19.456   6.823  48.670  1.00  0.00    -0.193 NA
HETATM   13  C9  UNL     1      18.675   5.716  48.931  1.00  0.00     0.173 C 
HETATM   14  C10 UNL     1      19.468   4.449  49.183  1.00  0.00     0.024 C 
HETATM   15  C11 UNL     1      18.598   3.274  49.491  1.00  0.00     0.003 C 
HETATM   16  C12 UNL     1      19.450   2.014  49.748  1.00  0.00     0.016 C 
HETATM   17  C13 UNL     1      20.469   2.303  50.809  1.00  0.00     0.113 C 
HETATM   18  N3  UNL     1      21.256   1.227  51.267  1.00  0.00    -0.231 NA
HETATM   19  C14 UNL     1      22.286   1.685  52.216  1.00  0.00     0.141 C 
HETATM   20  C15 UNL     1      23.399   2.405  51.551  1.00  0.00     0.001 C 
HETATM   21  C16 UNL     1      24.723   2.173  51.654  1.00  0.00    -0.004 C 
HETATM   22  C17 UNL     1      25.438   1.209  52.531  1.00  0.00     0.057 C 
HETATM   23  C18 UNL     1      25.655   0.271  53.435  1.00  0.00    -0.016 C 
HETATM   24  C19 UNL     1      25.354  -0.733  54.460  1.00  0.00    -0.003 C 
HETATM   25  C20 UNL     1      24.314  -1.208  55.067  1.00  0.00     0.001 C 
HETATM   26  C21 UNL     1      22.878  -1.155  55.216  1.00  0.00     0.017 C 
HETATM   27  C22 UNL     1      21.747  -0.614  54.852  1.00  0.00     0.084 C 
HETATM   28  N4  UNL     1      20.807   0.216  54.185  1.00  0.00    -0.382 N 
HETATM   29  C23 UNL     1      20.065   0.054  52.992  1.00  0.00     0.255 C 
HETATM   30  N5  UNL     1      20.669   0.101  51.734  1.00  0.00    -0.337 N 
HETATM   31  H26 UNL     1      20.642   1.152  54.697  1.00  0.00     0.160 HD
HETATM   32  H29 UNL     1      20.190  -0.500  51.048  1.00  0.00     0.176 HD
ENDROOT
TORSDOF 0
ENDMDL
MODEL 4
REMARK VINA RESULT:      -9.1      5.023      7.877
REMARK  0 active torsions:
REMARK  status: ('A' for Active; 'I' for Inactive)
ROOT
HETATM    1  O1  UNL     1      29.731   4.744  47.844  1.00  0.00    -0.290 OA
HETATM    2  C1  UNL     1      29.278   5.958  47.920  1.00  0.00     0.179 C 
HETATM    3  C2  UNL     1      30.408   6.638  47.275  1.00  0.00     0.259 C 
HETATM    4  O2  UNL     1      30.339   7.951  46.970  1.00  0.00    -0.344 OA
HETATM    5  C3  UNL     1      30.180   9.171  47.452  1.00  0.00     0.069 A 
HETATM    6  C4  UNL     1      30.063   9.656  48.728  1.00  0.00     0.039 A 
HETATM    7  C5  UNL     1      29.891  10.974  49.012  1.00  0.00     0.036 A 
HETATM    8  C6  UNL     1      29.827  11.906  48.011  1.00  0.00     0.079 A 
HETATM    9  C7  UNL     1      29.941  11.505  46.690  1.00  0.00     0.036 A 
HETATM   10  C8  UNL     1      30.117  10.129  46.416  1.00  0.00     0.039 A 
HETATM   11  N1  UNL     1      29.670  13.314  48.015  1.00  0.00    -0.156 NA
HETATM   12  N2  UNL     1      28.623  13.883  48.062  1.00  0.00    -0.193 NA
HETATM   13  C9  UNL     1      27.250  13.765  48.124  1.00  0.00     0.173 C 
HETATM   14  C10 UNL     1      26.739  12.367  47.841  1.00  0.00     0.024 C 
HETATM   15  C11 UNL     1      25.252  12.262  47.945  1.00  0.00     0.003 C 
HETATM   16  C12 UNL     1      24.783  10.821  47.658  1.00  0.00     0.016 C 
HETATM   17  C13 UNL     1      25.517   9.866  48.551  1.00  0.00     0.113 C 
HETATM   18  N3  UNL     1      25.124   8.512  48.520  1.00  0.00    -0.231 NA
HETATM   19  C14 UNL     1      26.008   7.680  49.354  1.00  0.00     0.141 C 
HETATM   20  C15 UNL     1      27.339   7.460  48.738  1.00  0.00     0.001 C 
HETATM   21  C16 UNL     1      27.976   6.291  48.523  1.00  0.00    -0.004 C 
HETATM   22  C17 UNL     1      27.576   4.919  48.930  1.00  0.00     0.057 C 
HETATM   23  C18 UNL     1      26.880   3.930  49.462  1.00  0.00    -0.016 C 
HETATM   24  C19 UNL     1      25.795   3.257  50.184  1.00  0.00    -0.003 C 
HETATM   25  C20 UNL     1      24.706   3.580  50.805  1.00  0.00     0.001 C 
HETATM   26  C21 UNL     1      23.831   4.650  51.225  1.00  0.00     0.017 C 
HETATM   27  C22 UNL     1      23.584   5.932  51.250  1.00  0.00     0.084 C 
HETATM   28  N4  UNL     1      23.716   7.331  51.041  1.00  0.00    -0.382 N 
HETATM   29  C23 UNL     1      23.269   8.190  50.011  1.00  0.00     0.255 C 
HETATM   30  N5  UNL     1      23.833   8.169  48.735  1.00  0.00    -0.337 N 
HETATM   31  H26 UNL     1      24.273   7.817  51.827  1.00  0.00     0.160 HD
HETATM   32  H29 UNL     1      23.152   8.416  48.002  1.00  0.00     0.176 HD
ENDROOT
TORSDOF 0
ENDMDL
MODEL 5
REMARK VINA RESULT:      -9.0      3.481      7.962
REMARK  0 active torsions:
REMARK  status: ('A' for Active; 'I' for Inactive)
ROOT
HETATM    1  O1  UNL     1      17.528   2.440  50.541  1.00  0.00    -0.290 OA
HETATM    2  C1  UNL     1      18.654   2.114  51.099  1.00  0.00     0.179 C 
HETATM    3  C2  UNL     1      18.263   0.786  51.588  1.00  0.00     0.259 C 
HETATM    4  O2  UNL     1      19.178  -0.047  52.126  1.00  0.00    -0.344 OA
HETATM    5  C3  UNL     1      20.065  -0.208  53.093  1.00  0.00     0.069 A 
HETATM    6  C4  UNL     1      20.408   0.561  54.174  1.00  0.00     0.039 A 
HETATM    7  C5  UNL     1      21.378   0.211  55.060  1.00  0.00     0.036 A 
HETATM    8  C6  UNL     1      22.075  -0.958  54.913  1.00  0.00     0.079 A 
HETATM    9  C7  UNL     1      21.791  -1.799  53.850  1.00  0.00     0.036 A 
HETATM   10  C8  UNL     1      20.781  -1.415  52.938  1.00  0.00     0.039 A 
HETATM   11  N1  UNL     1      23.104  -1.567  55.673  1.00  0.00    -0.156 NA
HETATM   12  N2  UNL     1      24.267  -1.329  55.559  1.00  0.00    -0.193 NA
HETATM   13  C9  UNL     1      25.234  -0.597  54.902  1.00  0.00     0.173 C 
HETATM   14  C10 UNL     1      24.733   0.106  53.656  1.00  0.00     0.024 C 
HETATM   15  C11 UNL     1      25.793   0.914  52.982  1.00  0.00     0.003 C 
HETATM   16  C12 UNL     1      25.233   1.615  51.727  1.00  0.00     0.016 C 
HETATM   17  C13 UNL     1      24.015   2.408  52.096  1.00  0.00     0.113 C 
HETATM   18  N3  UNL     1      23.441   3.222  51.098  1.00  0.00    -0.231 NA
HETATM   19  C14 UNL     1      22.191   3.842  51.569  1.00  0.00     0.141 C 
HETATM   20  C15 UNL     1      21.064   2.881  51.639  1.00  0.00     0.001 C 
HETATM   21  C16 UNL     1      19.833   2.998  51.100  1.00  0.00    -0.004 C 
HETATM   22  C17 UNL     1      19.232   4.150  50.379  1.00  0.00     0.057 C 
HETATM   23  C18 UNL     1      19.099   5.345  49.832  1.00  0.00    -0.016 C 
HETATM   24  C19 UNL     1      19.457   6.706  49.419  1.00  0.00    -0.003 C 
HETATM   25  C20 UNL     1      20.465   7.510  49.523  1.00  0.00     0.001 C 
HETATM   26  C21 UNL     1      21.804   7.703  50.031  1.00  0.00     0.017 C 
HETATM   27  C22 UNL     1      22.819   7.212  50.690  1.00  0.00     0.084 C 
HETATM   28  N4  UNL     1      23.633   6.318  51.435  1.00  0.00    -0.382 N 
HETATM   29  C23 UNL     1      24.577   5.338  51.051  1.00  0.00     0.255 C 
HETATM   30  N5  UNL     1      24.193   4.139  50.447  1.00  0.00    -0.337 N 
HETATM   31  H26 UNL     1      23.485   6.412  52.500  1.00  0.00     0.160 HD
HETATM   32  H29 UNL     1      24.906   3.785  49.793  1.00  0.00     0.176 HD
ENDROOT
TORSDOF 0
ENDMDL
MODEL 6
REMARK VINA RESULT:      -8.9      2.516      4.199
REMARK  0 active torsions:
REMARK  status: ('A' for Active; 'I' for Inactive)
ROOT
HETATM    1  O1  UNL     1      27.871   4.312  49.255  1.00  0.00    -0.290 OA
HETATM    2  C1  UNL     1      26.644   4.734  49.268  1.00  0.00     0.179 C 
HETATM    3  C2  UNL     1      26.840   5.957  48.480  1.00  0.00     0.259 C 
HETATM    4  O2  UNL     1      25.783   6.693  48.076  1.00  0.00    -0.344 OA
HETATM    5  C3  UNL     1      24.733   7.392  48.469  1.00  0.00     0.069 A 
HETATM    6  C4  UNL     1      24.269   7.753  49.706  1.00  0.00     0.039 A 
HETATM    7  C5  UNL     1      23.137   8.481  49.895  1.00  0.00     0.036 A 
HETATM    8  C6  UNL     1      22.387   8.902  48.830  1.00  0.00     0.079 A 
HETATM    9  C7  UNL     1      22.783   8.586  47.542  1.00  0.00     0.036 A 
HETATM   10  C8  UNL     1      23.963   7.826  47.367  1.00  0.00     0.039 A 
HETATM   11  N1  UNL     1      21.197   9.666  48.733  1.00  0.00    -0.156 NA
HETATM   12  N2  UNL     1      20.093   9.223  48.819  1.00  0.00    -0.193 NA
HETATM   13  C9  UNL     1      19.315   8.099  49.003  1.00  0.00     0.173 C 
HETATM   14  C10 UNL     1      20.077   6.795  48.878  1.00  0.00     0.024 C 
HETATM   15  C11 UNL     1      19.215   5.597  49.112  1.00  0.00     0.003 C 
HETATM   16  C12 UNL     1      20.037   4.297  48.983  1.00  0.00     0.016 C 
HETATM   17  C13 UNL     1      21.231   4.365  49.887  1.00  0.00     0.113 C 
HETATM   18  N3  UNL     1      22.030   3.209  49.998  1.00  0.00    -0.231 NA
HETATM   19  C14 UNL     1      23.225   3.464  50.822  1.00  0.00     0.141 C 
HETATM   20  C15 UNL     1      24.244   4.279  50.118  1.00  0.00     0.001 C 
HETATM   21  C16 UNL     1      25.555   4.010  49.948  1.00  0.00    -0.004 C 
HETATM   22  C17 UNL     1      26.359   2.887  50.497  1.00  0.00     0.057 C 
HETATM   23  C18 UNL     1      26.678   1.792  51.162  1.00  0.00    -0.016 C 
HETATM   24  C19 UNL     1      26.504   0.618  52.023  1.00  0.00    -0.003 C 
HETATM   25  C20 UNL     1      25.559   0.054  52.703  1.00  0.00     0.001 C 
HETATM   26  C21 UNL     1      24.172   0.101  53.105  1.00  0.00     0.017 C 
HETATM   27  C22 UNL     1      23.023   0.718  53.046  1.00  0.00     0.084 C 
HETATM   28  N4  UNL     1      22.025   1.674  52.715  1.00  0.00    -0.382 N 
HETATM   29  C23 UNL     1      21.089   1.751  51.658  1.00  0.00     0.255 C 
HETATM   30  N5  UNL     1      21.476   2.025  50.346  1.00  0.00    -0.337 N 
HETATM   31  H26 UNL     1      21.993   2.499  53.410  1.00  0.00     0.160 HD
HETATM   32  H29 UNL     1      20.862   1.572  49.654  1.00  0.00     0.176 HD
ENDROOT
TORSDOF 0
ENDMDL
MODEL 7
REMARK VINA RESULT:      -8.6      2.263      7.349
REMARK  0 active torsions:
REMARK  status: ('A' for Active; 'I' for Inactive)
ROOT
HETATM    1  O1  UNL     1      27.134   3.188  50.557  1.00  0.00    -0.290 OA
HETATM    2  C1  UNL     1      25.871   3.360  50.316  1.00  0.00     0.179 C 
HETATM    3  C2  UNL     1      25.359   2.221  51.087  1.00  0.00     0.259 C 
HETATM    4  O2  UNL     1      24.033   2.058  51.277  1.00  0.00    -0.344 OA
HETATM    5  C3  UNL     1      22.864   1.884  50.685  1.00  0.00     0.069 A 
HETATM    6  C4  UNL     1      22.506   1.706  49.374  1.00  0.00     0.039 A 
HETATM    7  C5  UNL     1      21.217   1.554  48.968  1.00  0.00     0.036 A 
HETATM    8  C6  UNL     1      20.189   1.568  49.871  1.00  0.00     0.079 A 
HETATM    9  C7  UNL     1      20.460   1.739  51.219  1.00  0.00     0.036 A 
HETATM   10  C8  UNL     1      21.806   1.898  51.620  1.00  0.00     0.039 A 
HETATM   11  N1  UNL     1      18.786   1.424  49.735  1.00  0.00    -0.156 NA
HETATM   12  N2  UNL     1      18.032   2.310  49.471  1.00  0.00    -0.193 NA
HETATM   13  C9  UNL     1      17.886   3.653  49.189  1.00  0.00     0.173 C 
HETATM   14  C10 UNL     1      19.119   4.481  49.486  1.00  0.00     0.024 C 
HETATM   15  C11 UNL     1      18.943   5.925  49.143  1.00  0.00     0.003 C 
HETATM   16  C12 UNL     1      20.225   6.724  49.455  1.00  0.00     0.016 C 
HETATM   17  C13 UNL     1      21.395   6.082  48.772  1.00  0.00     0.113 C 
HETATM   18  N3  UNL     1      22.635   6.750  48.839  1.00  0.00    -0.231 NA
HETATM   19  C14 UNL     1      23.708   5.946  48.229  1.00  0.00     0.141 C 
HETATM   20  C15 UNL     1      24.116   4.797  49.074  1.00  0.00     0.001 C 
HETATM   21  C16 UNL     1      25.357   4.459  49.479  1.00  0.00    -0.004 C 
HETATM   22  C17 UNL     1      26.661   5.073  49.115  1.00  0.00     0.057 C 
HETATM   23  C18 UNL     1      27.546   5.874  48.551  1.00  0.00    -0.016 C 
HETATM   24  C19 UNL     1      28.068   6.956  47.710  1.00  0.00    -0.003 C 
HETATM   25  C20 UNL     1      27.608   7.849  46.893  1.00  0.00     0.001 C 
HETATM   26  C21 UNL     1      26.439   8.407  46.254  1.00  0.00     0.017 C 
HETATM   27  C22 UNL     1      25.144   8.374  46.092  1.00  0.00     0.084 C 
HETATM   28  N4  UNL     1      23.784   7.984  46.213  1.00  0.00    -0.382 N 
HETATM   29  C23 UNL     1      22.748   8.389  47.087  1.00  0.00     0.255 C 
HETATM   30  N5  UNL     1      22.741   8.038  48.437  1.00  0.00    -0.337 N 
HETATM   31  H26 UNL     1      23.503   7.227  45.497  1.00  0.00     0.160 HD
HETATM   32  H29 UNL     1      22.288   8.752  49.025  1.00  0.00     0.176 HD
ENDROOT
TORSDOF 0
ENDMDL
MODEL 8
REMARK VINA RESULT:      -8.3     18.759     21.823
REMARK  0 active torsions:
REMARK  status: ('A' for Active; 'I' for Inactive)
ROOT
HETATM    1  O1  UNL     1      39.338   6.813  53.116  1.00  0.00    -0.290 OA
HETATM    2  C1  UNL     1      40.252   7.595  52.629  1.00  0.00     0.179 C 
HETATM    3  C2  UNL     1      39.486   8.122  51.494  1.00  0.00     0.259 C 
HETATM    4  O2  UNL     1      39.975   9.129  50.740  1.00  0.00    -0.344 OA
HETATM    5  C3  UNL     1      40.964   9.516  49.953  1.00  0.00     0.069 A 
HETATM    6  C4  UNL     1      42.065   8.865  49.459  1.00  0.00     0.039 A 
HETATM    7  C5  UNL     1      42.986   9.462  48.657  1.00  0.00     0.036 A 
HETATM    8  C6  UNL     1      42.854  10.775  48.292  1.00  0.00     0.079 A 
HETATM    9  C7  UNL     1      41.769  11.509  48.743  1.00  0.00     0.036 A 
HETATM   10  C8  UNL     1      40.824  10.869  49.578  1.00  0.00     0.039 A 
HETATM   11  N1  UNL     1      43.636  11.631  47.477  1.00  0.00    -0.156 NA
HETATM   12  N2  UNL     1      44.585  12.248  47.851  1.00  0.00    -0.193 NA
HETATM   13  C9  UNL     1      45.412  12.560  48.910  1.00  0.00     0.173 C 
HETATM   14  C10 UNL     1      44.873  12.129  50.259  1.00  0.00     0.024 C 
HETATM   15  C11 UNL     1      45.802  12.453  51.384  1.00  0.00     0.003 C 
HETATM   16  C12 UNL     1      45.214  11.988  52.732  1.00  0.00     0.016 C 
HETATM   17  C13 UNL     1      44.854  10.534  52.648  1.00  0.00     0.113 C 
HETATM   18  N3  UNL     1      44.421   9.902  53.831  1.00  0.00    -0.231 NA
HETATM   19  C14 UNL     1      43.992   8.517  53.570  1.00  0.00     0.141 C 
HETATM   20  C15 UNL     1      42.683   8.443  52.877  1.00  0.00     0.001 C 
HETATM   21  C16 UNL     1      41.591   7.735  53.230  1.00  0.00    -0.004 C 
HETATM   22  C17 UNL     1      41.425   6.762  54.341  1.00  0.00     0.057 C 
HETATM   23  C18 UNL     1      41.704   6.008  55.389  1.00  0.00    -0.016 C 
HETATM   24  C19 UNL     1      42.495   5.413  56.471  1.00  0.00    -0.003 C 
HETATM   25  C20 UNL     1      43.707   5.467  56.921  1.00  0.00     0.001 C 
HETATM   26  C21 UNL     1      45.025   6.037  56.764  1.00  0.00     0.017 C 
HETATM   27  C22 UNL     1      45.814   6.832  56.093  1.00  0.00     0.084 C 
HETATM   28  N4  UNL     1      46.282   7.753  55.118  1.00  0.00    -0.382 N 
HETATM   29  C23 UNL     1      46.333   9.166  55.084  1.00  0.00     0.255 C 
HETATM   30  N5  UNL     1      45.183   9.944  54.949  1.00  0.00    -0.337 N 
HETATM   31  H26 UNL     1      46.663   7.264  54.233  1.00  0.00     0.160 HD
HETATM   32  H29 UNL     1      45.266  10.852  55.427  1.00  0.00     0.176 HD
ENDROOT
TORSDOF 0
ENDMDL
MODEL 9
REMARK VINA RESULT:      -8.2      3.179      5.320
REMARK  0 active torsions:
REMARK  status: ('A' for Active; 'I' for Inactive)
ROOT
HETATM    1  O1  UNL     1      17.691   2.056  51.710  1.00  0.00    -0.290 OA
HETATM    2  C1  UNL     1      18.653   2.817  51.287  1.00  0.00     0.179 C 
HETATM    3  C2  UNL     1      17.840   3.771  50.524  1.00  0.00     0.259 C 
HETATM    4  O2  UNL     1      18.395   4.885  50.001  1.00  0.00    -0.344 OA
HETATM    5  C3  UNL     1      19.309   5.356  49.171  1.00  0.00     0.069 A 
HETATM    6  C4  UNL     1      20.177   4.746  48.304  1.00  0.00     0.039 A 
HETATM    7  C5  UNL     1      21.064   5.430  47.533  1.00  0.00     0.036 A 
HETATM    8  C6  UNL     1      21.133   6.796  47.585  1.00  0.00     0.079 A 
HETATM    9  C7  UNL     1      20.290   7.495  48.432  1.00  0.00     0.036 A 
HETATM   10  C8  UNL     1      19.376   6.765  49.227  1.00  0.00     0.039 A 
HETATM   11  N1  UNL     1      21.933   7.746  46.902  1.00  0.00    -0.156 NA
HETATM   12  N2  UNL     1      23.028   8.080  47.235  1.00  0.00    -0.193 NA
HETATM   13  C9  UNL     1      24.050   7.930  48.150  1.00  0.00     0.173 C 
HETATM   14  C10 UNL     1      23.648   7.180  49.404  1.00  0.00     0.024 C 
HETATM   15  C11 UNL     1      24.780   7.007  50.363  1.00  0.00     0.003 C 
HETATM   16  C12 UNL     1      24.324   6.232  51.616  1.00  0.00     0.016 C 
HETATM   17  C13 UNL     1      23.684   4.941  51.203  1.00  0.00     0.113 C 
HETATM   18  N3  UNL     1      23.320   4.039  52.224  1.00  0.00    -0.231 NA
HETATM   19  C14 UNL     1      22.599   2.876  51.676  1.00  0.00     0.141 C 
HETATM   20  C15 UNL     1      21.211   3.202  51.268  1.00  0.00     0.001 C 
HETATM   21  C16 UNL     1      20.069   2.577  51.621  1.00  0.00    -0.004 C 
HETATM   22  C17 UNL     1      19.889   1.340  52.425  1.00  0.00     0.057 C 
HETATM   23  C18 UNL     1      20.173   0.267  53.140  1.00  0.00    -0.016 C 
HETATM   24  C19 UNL     1      20.988  -0.738  53.830  1.00  0.00    -0.003 C 
HETATM   25  C20 UNL     1      22.242  -0.994  54.024  1.00  0.00     0.001 C 
HETATM   26  C21 UNL     1      23.606  -0.590  53.770  1.00  0.00     0.017 C 
HETATM   27  C22 UNL     1      24.423   0.257  53.205  1.00  0.00     0.084 C 
HETATM   28  N4  UNL     1      24.906   1.362  52.454  1.00  0.00    -0.382 N 
HETATM   29  C23 UNL     1      25.222   2.694  52.807  1.00  0.00     0.255 C 
HETATM   30  N5  UNL     1      24.235   3.626  53.131  1.00  0.00    -0.337 N 
HETATM   31  H26 UNL     1      25.049   1.124  51.410  1.00  0.00     0.160 HD
HETATM   32  H29 UNL     1      24.563   4.320  53.817  1.00  0.00     0.176 HD
ENDROOT
TORSDOF 0
ENDMDL
