MODEL 1
REMARK VINA RESULT:      -8.2      0.000      0.000
REMARK  6 active torsions:
REMARK  status: ('A' for Active; 'I' for Inactive)
REMARK    1  A    between atoms: O1_2  and  N1_3 
REMARK    2  A    between atoms: N1_3  and  C2_4 
REMARK    3  A    between atoms: N2_8  and  C6_9 
REMARK    4  A    between atoms: C6_9  and  C7_10 
REMARK    5  A    between atoms: C7_10  and  C8_11 
REMARK    6  A    between atoms: C8_11  and  C9_12 
ROOT
HETATM    1  C2  UNL     1      27.373   0.580  53.768  1.00  0.00     0.040 A 
HETATM    2  C3  UNL     1      26.120   0.272  53.532  1.00  0.00     0.073 A 
HETATM    3  C4  UNL     1      24.800  -0.079  53.356  1.00  0.00     0.035 C 
HETATM    4  C5  UNL     1      23.588  -0.421  53.250  1.00  0.00     0.122 C 
HETATM    5  N2  UNL     1      22.286  -0.749  53.027  1.00  0.00    -0.368 N 
HETATM    6  N3  UNL     1      23.365   0.551  52.049  1.00  0.00    -0.225 NA
HETATM    7  C11 UNL     1      23.325   1.803  52.507  1.00  0.00     0.235 C 
HETATM    8  N4  UNL     1      23.268   3.155  52.899  1.00  0.00    -0.249 NA
HETATM    9  C12 UNL     1      23.516   4.122  52.141  1.00  0.00     0.045 C 
HETATM   10  C13 UNL     1      23.288   5.276  53.054  1.00  0.00     0.068 C 
HETATM   11  C14 UNL     1      23.974   3.882  50.734  1.00  0.00     0.293 C 
HETATM   12  C15 UNL     1      22.981   4.455  49.806  1.00  0.00     0.209 C 
HETATM   13  O2  UNL     1      23.415   5.064  48.682  1.00  0.00    -0.387 OA
HETATM   14  C16 UNL     1      24.662   5.583  48.622  1.00  0.00     0.198 C 
HETATM   15  C17 UNL     1      25.340   5.700  49.955  1.00  0.00     0.299 C 
HETATM   16  N5  UNL     1      25.313   4.430  50.647  1.00  0.00     0.102 N 
HETATM   17  C18 UNL     1      26.239   3.559  49.971  1.00  0.00     0.273 C 
HETATM   18  C19 UNL     1      26.451   2.234  50.551  1.00  0.00     0.030 C 
HETATM   19  C20 UNL     1      27.095   2.259  51.918  1.00  0.00     0.002 C 
HETATM   20  O3  UNL     1      27.107   0.963  52.474  1.00  0.00     0.000 OA
HETATM   21  H7  UNL     1      22.616  -1.447  52.303  1.00  0.00     0.161 HD
ENDROOT
BRANCH   5  22
HETATM   22  C6  UNL     1      21.879   0.240  54.053  1.00  0.00     0.141 C 
BRANCH  22  23
HETATM   23  C7  UNL     1      20.570  -0.459  54.018  1.00  0.00     0.024 C 
BRANCH  23  24
HETATM   24  C8  UNL     1      19.291  -0.572  53.051  1.00  0.00     0.013 C 
BRANCH  24  25
HETATM   25  C9  UNL     1      18.316  -0.570  52.186  1.00  0.00     0.086 C 
HETATM   26  C10 UNL     1      16.939  -1.006  52.729  1.00  0.00     0.081 C 
HETATM   27  F1  UNL     1      19.197  -0.147  51.272  1.00  0.00    -0.212 F 
ENDBRANCH  24  25
ENDBRANCH  23  24
ENDBRANCH  22  23
ENDBRANCH   5  22
BRANCH   1  28
HETATM   28  N1  UNL     1      28.172   0.394  54.962  1.00  0.00    -0.173 NA
HETATM   29  H4  UNL     1      27.857   1.346  55.340  1.00  0.00     0.160 HD
BRANCH  28  30
HETATM   30  O1  UNL     1      28.425  -0.770  54.274  1.00  0.00    -0.306 OA
HETATM   31  C1  UNL     1      29.760  -0.714  53.826  1.00  0.00     0.230 C 
ENDBRANCH  28  30
ENDBRANCH   1  28
TORSDOF 6
ENDMDL
MODEL 2
REMARK VINA RESULT:      -8.0      3.395      6.809
REMARK  6 active torsions:
REMARK  status: ('A' for Active; 'I' for Inactive)
REMARK    1  A    between atoms: O1_2  and  N1_3 
REMARK    2  A    between atoms: N1_3  and  C2_4 
REMARK    3  A    between atoms: N2_8  and  C6_9 
REMARK    4  A    between atoms: C6_9  and  C7_10 
REMARK    5  A    between atoms: C7_10  and  C8_11 
REMARK    6  A    between atoms: C8_11  and  C9_12 
ROOT
HETATM    1  C2  UNL     1      25.984  -0.803  52.713  1.00  0.00     0.040 A 
HETATM    2  C3  UNL     1      26.069   0.419  52.244  1.00  0.00     0.073 A 
HETATM    3  C4  UNL     1      26.223   1.682  51.714  1.00  0.00     0.035 C 
HETATM    4  C5  UNL     1      26.412   2.821  51.200  1.00  0.00     0.122 C 
HETATM    5  N2  UNL     1      26.520   4.082  50.702  1.00  0.00    -0.368 N 
HETATM    6  N3  UNL     1      24.920   3.223  51.418  1.00  0.00    -0.225 NA
HETATM    7  C11 UNL     1      24.162   2.574  50.533  1.00  0.00     0.235 C 
HETATM    8  N4  UNL     1      23.285   1.933  49.637  1.00  0.00    -0.249 NA
HETATM    9  C12 UNL     1      22.064   1.749  49.852  1.00  0.00     0.045 C 
HETATM   10  C13 UNL     1      21.644   1.063  48.598  1.00  0.00     0.068 C 
HETATM   11  C14 UNL     1      21.457   2.156  51.161  1.00  0.00     0.293 C 
HETATM   12  C15 UNL     1      20.430   3.184  50.910  1.00  0.00     0.209 C 
HETATM   13  O2  UNL     1      19.293   3.161  51.639  1.00  0.00    -0.387 OA
HETATM   14  C16 UNL     1      18.865   2.010  52.203  1.00  0.00     0.198 C 
HETATM   15  C17 UNL     1      19.556   0.783  51.689  1.00  0.00     0.299 C 
HETATM   16  N5  UNL     1      20.991   0.935  51.787  1.00  0.00     0.102 N 
HETATM   17  C18 UNL     1      21.333   0.847  53.182  1.00  0.00     0.273 C 
HETATM   18  C19 UNL     1      22.754   0.883  53.524  1.00  0.00     0.030 C 
HETATM   19  C20 UNL     1      23.539  -0.300  53.007  1.00  0.00     0.002 C 
HETATM   20  O3  UNL     1      24.918  -0.104  53.230  1.00  0.00     0.000 OA
HETATM   21  H7  UNL     1      26.678   4.427  51.690  1.00  0.00     0.161 HD
ENDROOT
BRANCH   5  22
HETATM   22  C6  UNL     1      26.296   3.545  49.340  1.00  0.00     0.141 C 
BRANCH  22  23
HETATM   23  C7  UNL     1      26.908   4.817  48.880  1.00  0.00     0.024 C 
BRANCH  23  24
HETATM   24  C8  UNL     1      28.361   5.380  48.484  1.00  0.00     0.013 C 
BRANCH  24  25
HETATM   25  C9  UNL     1      29.495   5.834  48.032  1.00  0.00     0.086 C 
HETATM   26  C10 UNL     1      29.717   7.354  48.186  1.00  0.00     0.081 C 
HETATM   27  F1  UNL     1      29.799   4.579  47.682  1.00  0.00    -0.212 F 
ENDBRANCH  24  25
ENDBRANCH  23  24
ENDBRANCH  22  23
ENDBRANCH   5  22
BRANCH   1  28
HETATM   28  N1  UNL     1      26.845  -1.948  52.498  1.00  0.00    -0.173 NA
HETATM   29  H4  UNL     1      26.179  -2.328  51.749  1.00  0.00     0.160 HD
BRANCH  28  30
HETATM   30  O1  UNL     1      27.529  -1.265  53.478  1.00  0.00    -0.306 OA
HETATM   31  C1  UNL     1      28.891  -1.605  53.356  1.00  0.00     0.230 C 
ENDBRANCH  28  30
ENDBRANCH   1  28
TORSDOF 6
ENDMDL
MODEL 3
REMARK VINA RESULT:      -7.7      3.252      6.187
REMARK  6 active torsions:
REMARK  status: ('A' for Active; 'I' for Inactive)
REMARK    1  A    between atoms: O1_2  and  N1_3 
REMARK    2  A    between atoms: N1_3  and  C2_4 
REMARK    3  A    between atoms: N2_8  and  C6_9 
REMARK    4  A    between atoms: C6_9  and  C7_10 
REMARK    5  A    between atoms: C7_10  and  C8_11 
REMARK    6  A    between atoms: C8_11  and  C9_12 
ROOT
HETATM    1  C2  UNL     1      21.530  -0.191  53.618  1.00  0.00     0.040 A 
HETATM    2  C3  UNL     1      22.540   0.620  53.413  1.00  0.00     0.073 A 
HETATM    3  C4  UNL     1      23.648   1.413  53.209  1.00  0.00     0.035 C 
HETATM    4  C5  UNL     1      24.699   2.092  53.030  1.00  0.00     0.122 C 
HETATM    5  N2  UNL     1      25.761   2.916  52.820  1.00  0.00    -0.368 N 
HETATM    6  N3  UNL     1      23.911   3.203  52.266  1.00  0.00    -0.225 NA
HETATM    7  C11 UNL     1      23.591   2.749  51.053  1.00  0.00     0.235 C 
HETATM    8  N4  UNL     1      23.209   2.357  49.755  1.00  0.00    -0.249 NA
HETATM    9  C12 UNL     1      22.252   2.856  49.117  1.00  0.00     0.045 C 
HETATM   10  C13 UNL     1      22.322   2.095  47.839  1.00  0.00     0.068 C 
HETATM   11  C14 UNL     1      21.380   3.896  49.754  1.00  0.00     0.293 C 
HETATM   12  C15 UNL     1      21.491   5.148  48.983  1.00  0.00     0.209 C 
HETATM   13  O2  UNL     1      20.386   5.903  48.803  1.00  0.00    -0.387 OA
HETATM   14  C16 UNL     1      19.157   5.344  48.865  1.00  0.00     0.198 C 
HETATM   15  C17 UNL     1      19.165   3.845  48.822  1.00  0.00     0.299 C 
HETATM   16  N5  UNL     1      20.054   3.316  49.833  1.00  0.00     0.102 N 
HETATM   17  C18 UNL     1      19.419   3.526  51.109  1.00  0.00     0.273 C 
HETATM   18  C19 UNL     1      20.096   2.988  52.286  1.00  0.00     0.030 C 
HETATM   19  C20 UNL     1      20.187   1.479  52.306  1.00  0.00     0.002 C 
HETATM   20  O3  UNL     1      20.996   1.054  53.379  1.00  0.00     0.000 OA
HETATM   21  H7  UNL     1      25.493   3.438  53.701  1.00  0.00     0.161 HD
ENDROOT
BRANCH   5  22
HETATM   22  C6  UNL     1      26.093   2.148  51.597  1.00  0.00     0.141 C 
BRANCH  22  23
HETATM   23  C7  UNL     1      27.368   1.845  52.293  1.00  0.00     0.024 C 
BRANCH  23  24
HETATM   24  C8  UNL     1      27.918   0.826  53.409  1.00  0.00     0.013 C 
BRANCH  24  25
HETATM   25  C9  UNL     1      28.378  -0.092  54.212  1.00  0.00     0.086 C 
HETATM   26  C10 UNL     1      29.686  -0.778  53.764  1.00  0.00     0.081 C 
HETATM   27  F1  UNL     1      27.331   0.153  55.008  1.00  0.00    -0.212 F 
ENDBRANCH  24  25
ENDBRANCH  23  24
ENDBRANCH  22  23
ENDBRANCH   5  22
BRANCH   1  28
HETATM   28  N1  UNL     1      21.516  -1.609  53.919  1.00  0.00    -0.173 NA
HETATM   29  H4  UNL     1      21.310  -1.840  52.894  1.00  0.00     0.160 HD
BRANCH  28  30
HETATM   30  O1  UNL     1      21.779  -1.063  55.155  1.00  0.00    -0.306 OA
HETATM   31  C1  UNL     1      23.010  -1.590  55.594  1.00  0.00     0.230 C 
ENDBRANCH  28  30
ENDBRANCH   1  28
TORSDOF 6
ENDMDL
MODEL 4
REMARK VINA RESULT:      -7.3      3.408      6.874
REMARK  6 active torsions:
REMARK  status: ('A' for Active; 'I' for Inactive)
REMARK    1  A    between atoms: O1_2  and  N1_3 
REMARK    2  A    between atoms: N1_3  and  C2_4 
REMARK    3  A    between atoms: N2_8  and  C6_9 
REMARK    4  A    between atoms: C6_9  and  C7_10 
REMARK    5  A    between atoms: C7_10  and  C8_11 
REMARK    6  A    between atoms: C8_11  and  C9_12 
ROOT
HETATM    1  C2  UNL     1      24.676   0.334  53.182  1.00  0.00     0.040 A 
HETATM    2  C3  UNL     1      24.364   1.597  53.014  1.00  0.00     0.073 A 
HETATM    3  C4  UNL     1      24.108   2.935  52.811  1.00  0.00     0.035 C 
HETATM    4  C5  UNL     1      23.928   4.169  52.605  1.00  0.00     0.122 C 
HETATM    5  N2  UNL     1      23.626   5.483  52.422  1.00  0.00    -0.368 N 
HETATM    6  N3  UNL     1      22.378   3.988  52.558  1.00  0.00    -0.225 NA
HETATM    7  C11 UNL     1      22.046   3.401  51.407  1.00  0.00     0.235 C 
HETATM    8  N4  UNL     1      21.602   2.786  50.220  1.00  0.00    -0.249 NA
HETATM    9  C12 UNL     1      20.520   2.163  50.108  1.00  0.00     0.045 C 
HETATM   10  C13 UNL     1      20.562   1.755  48.676  1.00  0.00     0.068 C 
HETATM   11  C14 UNL     1      19.632   1.970  51.300  1.00  0.00     0.293 C 
HETATM   12  C15 UNL     1      18.341   2.635  51.045  1.00  0.00     0.209 C 
HETATM   13  O2  UNL     1      17.206   2.043  51.474  1.00  0.00    -0.387 OA
HETATM   14  C16 UNL     1      17.163   0.706  51.671  1.00  0.00     0.198 C 
HETATM   15  C17 UNL     1      18.325  -0.036  51.080  1.00  0.00     0.299 C 
HETATM   16  N5  UNL     1      19.573   0.540  51.532  1.00  0.00     0.102 N 
HETATM   17  C18 UNL     1      19.728   0.184  52.918  1.00  0.00     0.273 C 
HETATM   18  C19 UNL     1      20.972   0.583  53.574  1.00  0.00     0.030 C 
HETATM   19  C20 UNL     1      22.204  -0.088  53.011  1.00  0.00     0.002 C 
HETATM   20  O3  UNL     1      23.366   0.476  53.578  1.00  0.00     0.000 OA
HETATM   21  H7  UNL     1      23.507   5.572  53.470  1.00  0.00     0.161 HD
ENDROOT
BRANCH   5  22
HETATM   22  C6  UNL     1      23.807   5.304  50.963  1.00  0.00     0.141 C 
BRANCH  22  23
HETATM   23  C7  UNL     1      24.515   6.607  51.023  1.00  0.00     0.024 C 
BRANCH  23  24
HETATM   24  C8  UNL     1      25.708   7.366  50.258  1.00  0.00     0.013 C 
BRANCH  24  25
HETATM   25  C9  UNL     1      26.711   7.858  49.588  1.00  0.00     0.086 C 
HETATM   26  C10 UNL     1      27.166   7.036  48.364  1.00  0.00     0.081 C 
HETATM   27  F1  UNL     1      26.728   8.874  50.459  1.00  0.00    -0.212 F 
ENDBRANCH  24  25
ENDBRANCH  23  24
ENDBRANCH  22  23
ENDBRANCH   5  22
BRANCH   1  28
HETATM   28  N1  UNL     1      25.922  -0.362  52.933  1.00  0.00    -0.173 NA
HETATM   29  H4  UNL     1      25.687  -0.441  51.891  1.00  0.00     0.160 HD
BRANCH  28  30
HETATM   30  O1  UNL     1      25.995  -0.137  54.289  1.00  0.00    -0.306 OA
HETATM   31  C1  UNL     1      27.343   0.133  54.599  1.00  0.00     0.230 C 
ENDBRANCH  28  30
ENDBRANCH   1  28
TORSDOF 6
ENDMDL
MODEL 5
REMARK VINA RESULT:      -7.2      2.149      2.725
REMARK  6 active torsions:
REMARK  status: ('A' for Active; 'I' for Inactive)
REMARK    1  A    between atoms: O1_2  and  N1_3 
REMARK    2  A    between atoms: N1_3  and  C2_4 
REMARK    3  A    between atoms: N2_8  and  C6_9 
REMARK    4  A    between atoms: C6_9  and  C7_10 
REMARK    5  A    between atoms: C7_10  and  C8_11 
REMARK    6  A    between atoms: C8_11  and  C9_12 
ROOT
HETATM    1  C2  UNL     1      26.182   1.250  52.397  1.00  0.00     0.040 A 
HETATM    2  C3  UNL     1      24.982   1.388  51.889  1.00  0.00     0.073 A 
HETATM    3  C4  UNL     1      23.691   1.502  51.419  1.00  0.00     0.035 C 
HETATM    4  C5  UNL     1      22.489   1.584  51.040  1.00  0.00     0.122 C 
HETATM    5  N2  UNL     1      21.233   1.719  50.532  1.00  0.00    -0.368 N 
HETATM    6  N3  UNL     1      22.844   2.674  49.980  1.00  0.00    -0.225 NA
HETATM    7  C11 UNL     1      23.080   3.827  50.608  1.00  0.00     0.235 C 
HETATM    8  N4  UNL     1      23.345   5.085  51.183  1.00  0.00    -0.249 NA
HETATM    9  C12 UNL     1      24.036   5.980  50.642  1.00  0.00     0.045 C 
HETATM   10  C13 UNL     1      23.967   7.063  51.661  1.00  0.00     0.068 C 
HETATM   11  C14 UNL     1      24.704   5.725  49.324  1.00  0.00     0.293 C 
HETATM   12  C15 UNL     1      24.164   6.667  48.326  1.00  0.00     0.209 C 
HETATM   13  O2  UNL     1      25.002   7.195  47.408  1.00  0.00    -0.387 OA
HETATM   14  C16 UNL     1      26.327   7.283  47.661  1.00  0.00     0.198 C 
HETATM   15  C17 UNL     1      26.691   7.058  49.098  1.00  0.00     0.299 C 
HETATM   16  N5  UNL     1      26.130   5.812  49.571  1.00  0.00     0.102 N 
HETATM   17  C18 UNL     1      26.878   4.748  48.954  1.00  0.00     0.273 C 
HETATM   18  C19 UNL     1      26.547   3.382  49.355  1.00  0.00     0.030 C 
HETATM   19  C20 UNL     1      26.844   3.078  50.806  1.00  0.00     0.002 C 
HETATM   20  O3  UNL     1      26.342   1.807  51.149  1.00  0.00     0.000 OA
HETATM   21  H7  UNL     1      21.493   1.016  49.784  1.00  0.00     0.161 HD
ENDROOT
BRANCH   5  22
HETATM   22  C6  UNL     1      20.924   2.695  51.602  1.00  0.00     0.141 C 
BRANCH  22  23
HETATM   23  C7  UNL     1      20.368   1.524  52.327  1.00  0.00     0.024 C 
BRANCH  23  24
HETATM   24  C8  UNL     1      20.743   0.599  53.587  1.00  0.00     0.013 C 
BRANCH  24  25
HETATM   25  C9  UNL     1      21.087  -0.246  54.517  1.00  0.00     0.086 C 
HETATM   26  C10 UNL     1      21.774  -1.538  54.027  1.00  0.00     0.081 C 
HETATM   27  F1  UNL     1      20.586   0.614  55.412  1.00  0.00    -0.212 F 
ENDBRANCH  24  25
ENDBRANCH  23  24
ENDBRANCH  22  23
ENDBRANCH   5  22
BRANCH   1  28
HETATM   28  N1  UNL     1      26.600   0.712  53.676  1.00  0.00    -0.173 NA
HETATM   29  H4  UNL     1      25.999   1.433  54.193  1.00  0.00     0.160 HD
BRANCH  28  30
HETATM   30  O1  UNL     1      27.280  -0.100  52.797  1.00  0.00    -0.306 OA
HETATM   31  C1  UNL     1      28.487  -0.477  53.420  1.00  0.00     0.230 C 
ENDBRANCH  28  30
ENDBRANCH   1  28
TORSDOF 6
ENDMDL
MODEL 6
REMARK VINA RESULT:      -7.0      3.272      6.945
REMARK  6 active torsions:
REMARK  status: ('A' for Active; 'I' for Inactive)
REMARK    1  A    between atoms: O1_2  and  N1_3 
REMARK    2  A    between atoms: N1_3  and  C2_4 
REMARK    3  A    between atoms: N2_8  and  C6_9 
REMARK    4  A    between atoms: C6_9  and  C7_10 
REMARK    5  A    between atoms: C7_10  and  C8_11 
REMARK    6  A    between atoms: C8_11  and  C9_12 
ROOT
HETATM    1  C2  UNL     1      26.280   3.357  50.226  1.00  0.00     0.040 A 
HETATM    2  C3  UNL     1      25.264   4.066  50.656  1.00  0.00     0.073 A 
HETATM    3  C4  UNL     1      24.201   4.852  51.043  1.00  0.00     0.035 C 
HETATM    4  C5  UNL     1      23.231   5.603  51.348  1.00  0.00     0.122 C 
HETATM    5  N2  UNL     1      22.177   6.351  51.774  1.00  0.00    -0.368 N 
HETATM    6  N3  UNL     1      22.682   4.563  52.374  1.00  0.00    -0.225 NA
HETATM    7  C11 UNL     1      22.128   3.548  51.709  1.00  0.00     0.235 C 
HETATM    8  N4  UNL     1      21.523   2.436  51.093  1.00  0.00    -0.249 NA
HETATM    9  C12 UNL     1      21.391   1.312  51.633  1.00  0.00     0.045 C 
HETATM   10  C13 UNL     1      20.689   0.552  50.561  1.00  0.00     0.068 C 
HETATM   11  C14 UNL     1      21.957   1.059  52.997  1.00  0.00     0.293 C 
HETATM   12  C15 UNL     1      20.852   0.730  53.917  1.00  0.00     0.209 C 
HETATM   13  O2  UNL     1      21.046  -0.219  54.857  1.00  0.00    -0.387 OA
HETATM   14  C16 UNL     1      21.983  -1.177  54.679  1.00  0.00     0.198 C 
HETATM   15  C17 UNL     1      22.510  -1.264  53.278  1.00  0.00     0.299 C 
HETATM   16  N5  UNL     1      22.968   0.033  52.831  1.00  0.00     0.102 N 
HETATM   17  C18 UNL     1      24.188   0.321  53.539  1.00  0.00     0.273 C 
HETATM   18  C19 UNL     1      24.891   1.552  53.183  1.00  0.00     0.030 C 
HETATM   19  C20 UNL     1      25.422   1.568  51.768  1.00  0.00     0.002 C 
HETATM   20  O3  UNL     1      25.931   2.845  51.454  1.00  0.00     0.000 OA
HETATM   21  H7  UNL     1      22.784   6.700  52.568  1.00  0.00     0.161 HD
ENDROOT
BRANCH   5  22
HETATM   22  C6  UNL     1      21.373   5.832  50.644  1.00  0.00     0.141 C 
BRANCH  22  23
HETATM   23  C7  UNL     1      21.453   7.219  50.122  1.00  0.00     0.024 C 
BRANCH  23  24
HETATM   24  C8  UNL     1      22.480   8.136  49.291  1.00  0.00     0.013 C 
BRANCH  24  25
HETATM   25  C9  UNL     1      23.381   8.763  48.590  1.00  0.00     0.086 C 
HETATM   26  C10 UNL     1      24.602   7.921  48.163  1.00  0.00     0.081 C 
HETATM   27  F1  UNL     1      22.616   9.857  48.680  1.00  0.00    -0.212 F 
ENDBRANCH  24  25
ENDBRANCH  23  24
ENDBRANCH  22  23
ENDBRANCH   5  22
BRANCH   1  28
HETATM   28  N1  UNL     1      27.044   3.467  49.000  1.00  0.00    -0.173 NA
HETATM   29  H4  UNL     1      27.087   2.400  48.913  1.00  0.00     0.160 HD
BRANCH  28  30
HETATM   30  O1  UNL     1      26.852   4.790  49.328  1.00  0.00    -0.306 OA
HETATM   31  C1  UNL     1      27.690   5.557  48.493  1.00  0.00     0.230 C 
ENDBRANCH  28  30
ENDBRANCH   1  28
TORSDOF 6
ENDMDL
MODEL 7
REMARK VINA RESULT:      -7.0      2.235      3.148
REMARK  6 active torsions:
REMARK  status: ('A' for Active; 'I' for Inactive)
REMARK    1  A    between atoms: O1_2  and  N1_3 
REMARK    2  A    between atoms: N1_3  and  C2_4 
REMARK    3  A    between atoms: N2_8  and  C6_9 
REMARK    4  A    between atoms: C6_9  and  C7_10 
REMARK    5  A    between atoms: C7_10  and  C8_11 
REMARK    6  A    between atoms: C8_11  and  C9_12 
ROOT
HETATM    1  C2  UNL     1      24.343   1.110  52.352  1.00  0.00     0.040 A 
HETATM    2  C3  UNL     1      23.417   1.214  51.430  1.00  0.00     0.073 A 
HETATM    3  C4  UNL     1      22.395   1.288  50.509  1.00  0.00     0.035 C 
HETATM    4  C5  UNL     1      21.421   1.330  49.703  1.00  0.00     0.122 C 
HETATM    5  N2  UNL     1      20.445   1.428  48.761  1.00  0.00    -0.368 N 
HETATM    6  N3  UNL     1      22.086   2.478  48.880  1.00  0.00    -0.225 NA
HETATM    7  C11 UNL     1      22.001   3.614  49.574  1.00  0.00     0.235 C 
HETATM    8  N4  UNL     1      21.957   4.858  50.233  1.00  0.00    -0.249 NA
HETATM    9  C12 UNL     1      22.748   5.805  50.011  1.00  0.00     0.045 C 
HETATM   10  C13 UNL     1      22.237   6.841  50.951  1.00  0.00     0.068 C 
HETATM   11  C14 UNL     1      23.877   5.634  49.040  1.00  0.00     0.293 C 
HETATM   12  C15 UNL     1      23.700   6.591  47.932  1.00  0.00     0.209 C 
HETATM   13  O2  UNL     1      24.790   7.194  47.410  1.00  0.00    -0.387 OA
HETATM   14  C16 UNL     1      25.914   7.332  48.148  1.00  0.00     0.198 C 
HETATM   15  C17 UNL     1      25.722   7.065  49.611  1.00  0.00     0.299 C 
HETATM   16  N5  UNL     1      25.097   5.777  49.810  1.00  0.00     0.102 N 
HETATM   17  C18 UNL     1      26.082   4.774  49.502  1.00  0.00     0.273 C 
HETATM   18  C19 UNL     1      25.704   3.379  49.719  1.00  0.00     0.030 C 
HETATM   19  C20 UNL     1      25.449   3.031  51.167  1.00  0.00     0.002 C 
HETATM   20  O3  UNL     1      24.929   1.724  51.269  1.00  0.00     0.000 OA
HETATM   21  H7  UNL     1      21.007   0.768  48.153  1.00  0.00     0.161 HD
ENDROOT
BRANCH   5  22
HETATM   22  C6  UNL     1      19.698   2.344  49.654  1.00  0.00     0.141 C 
BRANCH  22  23
HETATM   23  C7  UNL     1      18.848   1.161  49.938  1.00  0.00     0.024 C 
BRANCH  23  24
HETATM   24  C8  UNL     1      18.476   0.217  51.186  1.00  0.00     0.013 C 
BRANCH  24  25
HETATM   25  C9  UNL     1      18.311  -0.555  52.222  1.00  0.00     0.086 C 
HETATM   26  C10 UNL     1      16.869  -1.048  52.465  1.00  0.00     0.081 C 
HETATM   27  F1  UNL     1      19.622  -0.434  52.457  1.00  0.00    -0.212 F 
ENDBRANCH  24  25
ENDBRANCH  23  24
ENDBRANCH  22  23
ENDBRANCH   5  22
BRANCH   1  28
HETATM   28  N1  UNL     1      24.277   0.540  53.683  1.00  0.00    -0.173 NA
HETATM   29  H4  UNL     1      23.269   0.884  53.797  1.00  0.00     0.160 HD
BRANCH  28  30
HETATM   30  O1  UNL     1      25.557   0.208  53.300  1.00  0.00    -0.306 OA
HETATM   31  C1  UNL     1      26.375   0.298  54.444  1.00  0.00     0.230 C 
ENDBRANCH  28  30
ENDBRANCH   1  28
TORSDOF 6
ENDMDL
MODEL 8
REMARK VINA RESULT:      -6.9      3.640      6.559
REMARK  6 active torsions:
REMARK  status: ('A' for Active; 'I' for Inactive)
REMARK    1  A    between atoms: O1_2  and  N1_3 
REMARK    2  A    between atoms: N1_3  and  C2_4 
REMARK    3  A    between atoms: N2_8  and  C6_9 
REMARK    4  A    between atoms: C6_9  and  C7_10 
REMARK    5  A    between atoms: C7_10  and  C8_11 
REMARK    6  A    between atoms: C8_11  and  C9_12 
ROOT
HETATM    1  C2  UNL     1      25.979   5.574  49.420  1.00  0.00     0.040 A 
HETATM    2  C3  UNL     1      26.104   4.409  50.008  1.00  0.00     0.073 A 
HETATM    3  C4  UNL     1      26.290   3.216  50.672  1.00  0.00     0.035 C 
HETATM    4  C5  UNL     1      26.502   2.148  51.313  1.00  0.00     0.122 C 
HETATM    5  N2  UNL     1      26.648   0.948  51.939  1.00  0.00    -0.368 N 
HETATM    6  N3  UNL     1      25.111   1.567  50.905  1.00  0.00    -0.225 NA
HETATM    7  C11 UNL     1      24.159   2.195  51.597  1.00  0.00     0.235 C 
HETATM    8  N4  UNL     1      23.089   2.802  52.282  1.00  0.00    -0.249 NA
HETATM    9  C12 UNL     1      21.908   2.833  51.864  1.00  0.00     0.045 C 
HETATM   10  C13 UNL     1      21.224   3.563  52.967  1.00  0.00     0.068 C 
HETATM   11  C14 UNL     1      21.567   2.261  50.520  1.00  0.00     0.293 C 
HETATM   12  C15 UNL     1      20.617   1.149  50.704  1.00  0.00     0.209 C 
HETATM   13  O2  UNL     1      19.618   0.989  49.809  1.00  0.00    -0.387 OA
HETATM   14  C16 UNL     1      19.179   2.039  49.079  1.00  0.00     0.198 C 
HETATM   15  C17 UNL     1      19.654   3.371  49.577  1.00  0.00     0.299 C 
HETATM   16  N5  UNL     1      21.093   3.372  49.718  1.00  0.00     0.102 N 
HETATM   17  C18 UNL     1      21.650   3.389  48.390  1.00  0.00     0.273 C 
HETATM   18  C19 UNL     1      23.104   3.484  48.279  1.00  0.00     0.030 C 
HETATM   19  C20 UNL     1      23.676   4.784  48.798  1.00  0.00     0.002 C 
HETATM   20  O3  UNL     1      25.085   4.724  48.811  1.00  0.00     0.000 OA
HETATM   21  H7  UNL     1      26.999   0.548  51.024  1.00  0.00     0.161 HD
ENDROOT
BRANCH   5  22
HETATM   22  C6  UNL     1      26.152   1.561  53.193  1.00  0.00     0.141 C 
BRANCH  22  23
HETATM   23  C7  UNL     1      27.462   1.148  53.756  1.00  0.00     0.024 C 
BRANCH  23  24
HETATM   24  C8  UNL     1      28.594   0.039  53.485  1.00  0.00     0.013 C 
BRANCH  24  25
HETATM   25  C9  UNL     1      29.504  -0.889  53.399  1.00  0.00     0.086 C 
HETATM   26  C10 UNL     1      28.977  -2.324  53.187  1.00  0.00     0.081 C 
HETATM   27  F1  UNL     1      30.424   0.069  53.560  1.00  0.00    -0.212 F 
ENDBRANCH  24  25
ENDBRANCH  23  24
ENDBRANCH  22  23
ENDBRANCH   5  22
BRANCH   1  28
HETATM   28  N1  UNL     1      26.678   6.821  49.657  1.00  0.00    -0.173 NA
HETATM   29  H4  UNL     1      27.434   6.550  48.948  1.00  0.00     0.160 HD
BRANCH  28  30
HETATM   30  O1  UNL     1      25.601   6.940  50.505  1.00  0.00    -0.306 OA
HETATM   31  C1  UNL     1      24.929   8.132  50.168  1.00  0.00     0.230 C 
ENDBRANCH  28  30
ENDBRANCH   1  28
TORSDOF 6
ENDMDL
MODEL 9
REMARK VINA RESULT:      -6.8      6.978      9.676
REMARK  6 active torsions:
REMARK  status: ('A' for Active; 'I' for Inactive)
REMARK    1  A    between atoms: O1_2  and  N1_3 
REMARK    2  A    between atoms: N1_3  and  C2_4 
REMARK    3  A    between atoms: N2_8  and  C6_9 
REMARK    4  A    between atoms: C6_9  and  C7_10 
REMARK    5  A    between atoms: C7_10  and  C8_11 
REMARK    6  A    between atoms: C8_11  and  C9_12 
ROOT
HETATM    1  C2  UNL     1      31.742   5.469  48.021  1.00  0.00     0.040 A 
HETATM    2  C3  UNL     1      30.503   5.895  47.977  1.00  0.00     0.073 A 
HETATM    3  C4  UNL     1      29.187   6.302  47.996  1.00  0.00     0.035 C 
HETATM    4  C5  UNL     1      27.972   6.644  48.063  1.00  0.00     0.122 C 
HETATM    5  N2  UNL     1      26.681   7.074  48.037  1.00  0.00    -0.368 N 
HETATM    6  N3  UNL     1      28.218   7.884  47.146  1.00  0.00    -0.225 NA
HETATM    7  C11 UNL     1      28.870   8.815  47.844  1.00  0.00     0.235 C 
HETATM    8  N4  UNL     1      29.557   9.855  48.500  1.00  0.00    -0.249 NA
HETATM    9  C12 UNL     1      30.229  10.738  47.917  1.00  0.00     0.045 C 
HETATM   10  C13 UNL     1      30.700  11.557  49.068  1.00  0.00     0.068 C 
HETATM   11  C14 UNL     1      30.402  10.696  46.428  1.00  0.00     0.293 C 
HETATM   12  C15 UNL     1      29.802  11.911  45.845  1.00  0.00     0.209 C 
HETATM   13  O2  UNL     1      30.419  12.507  44.802  1.00  0.00    -0.387 OA
HETATM   14  C16 UNL     1      31.746  12.339  44.605  1.00  0.00     0.198 C 
HETATM   15  C17 UNL     1      32.466  11.740  45.776  1.00  0.00     0.299 C 
HETATM   16  N5  UNL     1      31.820  10.515  46.192  1.00  0.00     0.102 N 
HETATM   17  C18 UNL     1      32.105   9.522  45.189  1.00  0.00     0.273 C 
HETATM   18  C19 UNL     1      31.626   8.164  45.441  1.00  0.00     0.030 C 
HETATM   19  C20 UNL     1      32.271   7.497  46.633  1.00  0.00     0.002 C 
HETATM   20  O3  UNL     1      31.636   6.268  46.906  1.00  0.00     0.000 OA
HETATM   21  H7  UNL     1      26.549   6.531  47.138  1.00  0.00     0.161 HD
ENDROOT
BRANCH   5  22
HETATM   22  C6  UNL     1      26.921   7.814  49.298  1.00  0.00     0.141 C 
BRANCH  22  23
HETATM   23  C7  UNL     1      25.841   6.958  49.851  1.00  0.00     0.024 C 
BRANCH  23  24
HETATM   24  C8  UNL     1      25.479   5.395  49.958  1.00  0.00     0.013 C 
BRANCH  24  25
HETATM   25  C9  UNL     1      25.319   4.104  50.023  1.00  0.00     0.086 C 
HETATM   26  C10 UNL     1      26.514   3.257  49.536  1.00  0.00     0.081 C 
HETATM   27  F1  UNL     1      24.099   4.332  50.524  1.00  0.00    -0.212 F 
ENDBRANCH  24  25
ENDBRANCH  23  24
ENDBRANCH  22  23
ENDBRANCH   5  22
BRANCH   1  28
HETATM   28  N1  UNL     1      32.398   4.597  48.974  1.00  0.00    -0.173 NA
HETATM   29  H4  UNL     1      32.556   5.421  49.641  1.00  0.00     0.160 HD
BRANCH  28  30
HETATM   30  O1  UNL     1      32.081   3.717  47.965  1.00  0.00    -0.306 OA
HETATM   31  C1  UNL     1      33.286   3.149  47.506  1.00  0.00     0.230 C 
ENDBRANCH  28  30
ENDBRANCH   1  28
TORSDOF 6
ENDMDL
