MODEL 1
REMARK VINA RESULT:      -8.6      0.000      0.000
REMARK  3 active torsions:
REMARK  status: ('A' for Active; 'I' for Inactive)
REMARK    1  A    between atoms: C2_2  and  C3_3 
REMARK    2  A    between atoms: C3_3  and  C4_4 
REMARK       I    between atoms: C4_4  and  N1_6 
REMARK    3  A    between atoms: N1_6  and  C5_7 
ROOT
HETATM    1  C5  UNL     1      24.129  -0.669  54.095  1.00  0.00     0.037 A 
HETATM    2  C6  UNL     1      23.302  -0.957  55.155  1.00  0.00     0.032 A 
HETATM    3  C7  UNL     1      21.931  -0.908  55.042  1.00  0.00     0.035 A 
HETATM    4  C8  UNL     1      21.316  -0.569  53.859  1.00  0.00     0.068 A 
HETATM    5  C9  UNL     1      22.123  -0.277  52.783  1.00  0.00     0.102 A 
HETATM    6  C10 UNL     1      23.484  -0.335  52.934  1.00  0.00     0.068 A 
HETATM    7  O2  UNL     1      21.519   0.069  51.582  1.00  0.00    -0.303 OA
HETATM    8  C11 UNL     1      20.198   0.572  51.649  1.00  0.00     0.269 C 
HETATM    9  N2  UNL     1      19.571   0.617  50.344  1.00  0.00    -0.344 N 
HETATM   10  C12 UNL     1      18.637   1.693  50.359  1.00  0.00     0.043 A 
HETATM   11  C13 UNL     1      17.519   1.890  49.556  1.00  0.00     0.030 A 
HETATM   12  C14 UNL     1      16.783   3.035  49.792  1.00  0.00     0.002 A 
HETATM   13  C15 UNL     1      17.125   3.945  50.771  1.00  0.00     0.001 A 
HETATM   14  C16 UNL     1      18.252   3.706  51.551  1.00  0.00     0.016 A 
HETATM   15  C17 UNL     1      19.036   2.575  51.365  1.00  0.00     0.020 A 
HETATM   16  C18 UNL     1      20.247   2.021  51.978  1.00  0.00     0.103 C 
HETATM   17  N3  UNL     1      21.074   2.764  52.629  1.00  0.00    -0.298 NA
HETATM   18  C19 UNL     1      19.326  -0.185  52.573  1.00  0.00     0.285 C 
HETATM   19  O3  UNL     1      18.142  -0.504  52.282  1.00  0.00    -0.267 OA
HETATM   20  N4  UNL     1      19.893  -0.546  53.833  1.00  0.00    -0.320 N 
HETATM   21  H12 UNL     1      19.748  -0.011  49.515  1.00  0.00     0.163 HD
HETATM   22  H17 UNL     1      21.948   2.404  53.080  1.00  0.00     0.187 HD
HETATM   23  H18 UNL     1      19.288  -0.767  54.646  1.00  0.00     0.169 HD
ENDROOT
BRANCH   1  24
HETATM   24  N1  UNL     1      25.527  -0.744  54.303  1.00  0.00    -0.327 N 
HETATM   25  C4  UNL     1      26.466   0.295  54.505  1.00  0.00     0.222 C 
HETATM   26  O1  UNL     1      26.071   1.479  54.513  1.00  0.00    -0.273 OA
HETATM   27  H8  UNL     1      25.999  -1.674  54.322  1.00  0.00     0.169 HD
BRANCH  25  28
HETATM   28  C3  UNL     1      27.916   0.098  54.713  1.00  0.00     0.103 C 
BRANCH  28  29
HETATM   29  C2  UNL     1      28.473  -0.631  53.508  1.00  0.00     0.005 C 
HETATM   30  C1  UNL     1      29.967  -0.779  53.588  1.00  0.00     0.005 C 
ENDBRANCH  28  29
ENDBRANCH  25  28
ENDBRANCH   1  24
TORSDOF 3
ENDMDL
MODEL 2
REMARK VINA RESULT:      -8.2      3.968      4.598
REMARK  3 active torsions:
REMARK  status: ('A' for Active; 'I' for Inactive)
REMARK    1  A    between atoms: C2_2  and  C3_3 
REMARK    2  A    between atoms: C3_3  and  C4_4 
REMARK       I    between atoms: C4_4  and  N1_6 
REMARK    3  A    between atoms: N1_6  and  C5_7 
ROOT
HETATM    1  C5  UNL     1      25.608   0.798  52.642  1.00  0.00     0.037 A 
HETATM    2  C6  UNL     1      24.339   0.437  53.028  1.00  0.00     0.032 A 
HETATM    3  C7  UNL     1      23.218   0.986  52.447  1.00  0.00     0.035 A 
HETATM    4  C8  UNL     1      23.310   1.925  51.446  1.00  0.00     0.068 A 
HETATM    5  C9  UNL     1      24.570   2.302  51.041  1.00  0.00     0.102 A 
HETATM    6  C10 UNL     1      25.663   1.734  51.644  1.00  0.00     0.068 A 
HETATM    7  O2  UNL     1      24.681   3.249  50.033  1.00  0.00    -0.303 OA
HETATM    8  C11 UNL     1      23.574   4.107  49.832  1.00  0.00     0.269 C 
HETATM    9  N2  UNL     1      23.678   4.841  48.587  1.00  0.00    -0.344 N 
HETATM   10  C12 UNL     1      23.003   6.082  48.769  1.00  0.00     0.043 A 
HETATM   11  C13 UNL     1      22.458   6.929  47.810  1.00  0.00     0.030 A 
HETATM   12  C14 UNL     1      21.855   8.081  48.274  1.00  0.00     0.002 A 
HETATM   13  C15 UNL     1      21.788   8.391  49.617  1.00  0.00     0.001 A 
HETATM   14  C16 UNL     1      22.347   7.515  50.541  1.00  0.00     0.016 A 
HETATM   15  C17 UNL     1      22.969   6.339  50.142  1.00  0.00     0.020 A 
HETATM   16  C18 UNL     1      23.642   5.223  50.813  1.00  0.00     0.103 C 
HETATM   17  N3  UNL     1      24.132   5.345  51.998  1.00  0.00    -0.298 NA
HETATM   18  C19 UNL     1      22.272   3.406  49.868  1.00  0.00     0.285 C 
HETATM   19  O3  UNL     1      21.352   3.639  49.038  1.00  0.00    -0.267 OA
HETATM   20  N4  UNL     1      22.098   2.436  50.902  1.00  0.00    -0.320 N 
HETATM   21  H12 UNL     1      24.155   4.543  47.695  1.00  0.00     0.163 HD
HETATM   22  H17 UNL     1      24.619   4.571  52.508  1.00  0.00     0.187 HD
HETATM   23  H18 UNL     1      21.150   2.150  51.209  1.00  0.00     0.169 HD
ENDROOT
BRANCH   1  24
HETATM   24  N1  UNL     1      26.702   0.183  53.295  1.00  0.00    -0.327 N 
HETATM   25  C4  UNL     1      27.674   0.749  54.152  1.00  0.00     0.222 C 
HETATM   26  O1  UNL     1      27.619   1.968  54.415  1.00  0.00    -0.273 OA
HETATM   27  H8  UNL     1      26.874  -0.838  53.169  1.00  0.00     0.169 HD
BRANCH  25  28
HETATM   28  C3  UNL     1      28.784   0.003  54.784  1.00  0.00     0.103 C 
BRANCH  28  29
HETATM   29  C2  UNL     1      29.714  -0.477  53.691  1.00  0.00     0.005 C 
HETATM   30  C1  UNL     1      29.460  -1.916  53.336  1.00  0.00     0.005 C 
ENDBRANCH  28  29
ENDBRANCH  25  28
ENDBRANCH   1  24
TORSDOF 3
ENDMDL
MODEL 3
REMARK VINA RESULT:      -8.0     23.295     25.901
REMARK  3 active torsions:
REMARK  status: ('A' for Active; 'I' for Inactive)
REMARK    1  A    between atoms: C2_2  and  C3_3 
REMARK    2  A    between atoms: C3_3  and  C4_4 
REMARK       I    between atoms: C4_4  and  N1_6 
REMARK    3  A    between atoms: N1_6  and  C5_7 
ROOT
HETATM    1  C5  UNL     1      44.220   3.161  67.760  1.00  0.00     0.037 A 
HETATM    2  C6  UNL     1      43.416   3.659  68.757  1.00  0.00     0.032 A 
HETATM    3  C7  UNL     1      42.551   2.853  69.464  1.00  0.00     0.035 A 
HETATM    4  C8  UNL     1      42.449   1.506  69.210  1.00  0.00     0.068 A 
HETATM    5  C9  UNL     1      43.244   0.983  68.216  1.00  0.00     0.102 A 
HETATM    6  C10 UNL     1      44.092   1.816  67.533  1.00  0.00     0.068 A 
HETATM    7  O2  UNL     1      43.152  -0.375  67.945  1.00  0.00    -0.303 OA
HETATM    8  C11 UNL     1      41.955  -1.026  68.326  1.00  0.00     0.269 C 
HETATM    9  N2  UNL     1      42.084  -2.468  68.269  1.00  0.00    -0.344 N 
HETATM   10  C12 UNL     1      40.794  -2.997  67.974  1.00  0.00     0.043 A 
HETATM   11  C13 UNL     1      40.295  -4.271  68.224  1.00  0.00     0.030 A 
HETATM   12  C14 UNL     1      38.995  -4.514  67.827  1.00  0.00     0.002 A 
HETATM   13  C15 UNL     1      38.218  -3.553  67.213  1.00  0.00     0.001 A 
HETATM   14  C16 UNL     1      38.759  -2.292  66.984  1.00  0.00     0.016 A 
HETATM   15  C17 UNL     1      40.060  -1.982  67.358  1.00  0.00     0.020 A 
HETATM   16  C18 UNL     1      40.927  -0.803  67.275  1.00  0.00     0.103 C 
HETATM   17  N3  UNL     1      40.708   0.137  66.422  1.00  0.00    -0.298 NA
HETATM   18  C19 UNL     1      41.477  -0.640  69.671  1.00  0.00     0.285 C 
HETATM   19  O3  UNL     1      41.043  -1.481  70.504  1.00  0.00    -0.267 OA
HETATM   20  N4  UNL     1      41.530   0.751  69.992  1.00  0.00    -0.320 N 
HETATM   21  H12 UNL     1      42.952  -3.050  68.414  1.00  0.00     0.163 HD
HETATM   22  H17 UNL     1      41.305   0.993  66.334  1.00  0.00     0.187 HD
HETATM   23  H18 UNL     1      40.931   1.147  70.741  1.00  0.00     0.169 HD
ENDROOT
BRANCH   1  24
HETATM   24  N1  UNL     1      45.077   4.062  67.085  1.00  0.00    -0.327 N 
HETATM   25  C4  UNL     1      45.087   4.449  65.725  1.00  0.00     0.222 C 
HETATM   26  O1  UNL     1      44.242   3.962  64.947  1.00  0.00    -0.273 OA
HETATM   27  H8  UNL     1      45.836   4.547  67.610  1.00  0.00     0.169 HD
BRANCH  25  28
HETATM   28  C3  UNL     1      46.039   5.408  65.124  1.00  0.00     0.103 C 
BRANCH  28  29
HETATM   29  C2  UNL     1      45.269   6.320  64.193  1.00  0.00     0.005 C 
HETATM   30  C1  UNL     1      44.619   7.454  64.937  1.00  0.00     0.005 C 
ENDBRANCH  28  29
ENDBRANCH  25  28
ENDBRANCH   1  24
TORSDOF 3
ENDMDL
MODEL 4
REMARK VINA RESULT:      -8.0      5.438      6.885
REMARK  3 active torsions:
REMARK  status: ('A' for Active; 'I' for Inactive)
REMARK    1  A    between atoms: C2_2  and  C3_3 
REMARK    2  A    between atoms: C3_3  and  C4_4 
REMARK       I    between atoms: C4_4  and  N1_6 
REMARK    3  A    between atoms: N1_6  and  C5_7 
ROOT
HETATM    1  C5  UNL     1      25.239   5.757  50.376  1.00  0.00     0.037 A 
HETATM    2  C6  UNL     1      25.493   4.942  49.298  1.00  0.00     0.032 A 
HETATM    3  C7  UNL     1      24.806   3.765  49.100  1.00  0.00     0.035 A 
HETATM    4  C8  UNL     1      23.828   3.344  49.970  1.00  0.00     0.068 A 
HETATM    5  C9  UNL     1      23.556   4.143  51.057  1.00  0.00     0.102 A 
HETATM    6  C10 UNL     1      24.261   5.307  51.222  1.00  0.00     0.068 A 
HETATM    7  O2  UNL     1      22.573   3.732  51.946  1.00  0.00    -0.303 OA
HETATM    8  C11 UNL     1      22.270   2.350  51.975  1.00  0.00     0.269 C 
HETATM    9  N2  UNL     1      21.049   2.081  52.707  1.00  0.00    -0.344 N 
HETATM   10  C12 UNL     1      21.173   0.780  53.275  1.00  0.00     0.043 A 
HETATM   11  C13 UNL     1      20.171  -0.093  53.686  1.00  0.00     0.030 A 
HETATM   12  C14 UNL     1      20.583  -1.304  54.207  1.00  0.00     0.002 A 
HETATM   13  C15 UNL     1      21.915  -1.645  54.322  1.00  0.00     0.001 A 
HETATM   14  C16 UNL     1      22.883  -0.740  53.898  1.00  0.00     0.016 A 
HETATM   15  C17 UNL     1      22.537   0.495  53.365  1.00  0.00     0.020 A 
HETATM   16  C18 UNL     1      23.263   1.655  52.836  1.00  0.00     0.103 C 
HETATM   17  N3  UNL     1      24.492   1.881  53.148  1.00  0.00    -0.298 NA
HETATM   18  C19 UNL     1      22.167   1.741  50.631  1.00  0.00     0.285 C 
HETATM   19  O3  UNL     1      21.251   0.934  50.319  1.00  0.00    -0.267 OA
HETATM   20  N4  UNL     1      23.170   2.115  49.685  1.00  0.00    -0.320 N 
HETATM   21  H12 UNL     1      20.206   2.706  52.818  1.00  0.00     0.163 HD
HETATM   22  H17 UNL     1      25.042   2.697  52.790  1.00  0.00     0.187 HD
HETATM   23  H18 UNL     1      23.377   1.514  48.864  1.00  0.00     0.169 HD
ENDROOT
BRANCH   1  24
HETATM   24  N1  UNL     1      25.994   6.947  50.501  1.00  0.00    -0.327 N 
HETATM   25  C4  UNL     1      25.810   8.202  49.875  1.00  0.00     0.222 C 
HETATM   26  O1  UNL     1      24.858   8.353  49.082  1.00  0.00    -0.273 OA
HETATM   27  H8  UNL     1      26.823   6.971  51.133  1.00  0.00     0.169 HD
BRANCH  25  28
HETATM   28  C3  UNL     1      26.669   9.387  50.082  1.00  0.00     0.103 C 
BRANCH  28  29
HETATM   29  C2  UNL     1      27.628   9.486  48.915  1.00  0.00     0.005 C 
HETATM   30  C1  UNL     1      29.045   9.201  49.332  1.00  0.00     0.005 C 
ENDBRANCH  28  29
ENDBRANCH  25  28
ENDBRANCH   1  24
TORSDOF 3
ENDMDL
MODEL 5
REMARK VINA RESULT:      -8.0      2.445      3.548
REMARK  3 active torsions:
REMARK  status: ('A' for Active; 'I' for Inactive)
REMARK    1  A    between atoms: C2_2  and  C3_3 
REMARK    2  A    between atoms: C3_3  and  C4_4 
REMARK       I    between atoms: C4_4  and  N1_6 
REMARK    3  A    between atoms: N1_6  and  C5_7 
ROOT
HETATM    1  C5  UNL     1      25.980   1.601  52.454  1.00  0.00     0.037 A 
HETATM    2  C6  UNL     1      26.257   2.172  51.234  1.00  0.00     0.032 A 
HETATM    3  C7  UNL     1      25.302   2.860  50.521  1.00  0.00     0.035 A 
HETATM    4  C8  UNL     1      24.020   3.014  50.993  1.00  0.00     0.068 A 
HETATM    5  C9  UNL     1      23.718   2.452  52.212  1.00  0.00     0.102 A 
HETATM    6  C10 UNL     1      24.695   1.773  52.893  1.00  0.00     0.068 A 
HETATM    7  O2  UNL     1      22.428   2.597  52.703  1.00  0.00    -0.303 OA
HETATM    8  C11 UNL     1      21.407   2.858  51.758  1.00  0.00     0.269 C 
HETATM    9  N2  UNL     1      20.176   3.279  52.397  1.00  0.00    -0.344 N 
HETATM   10  C12 UNL     1      19.101   2.857  51.562  1.00  0.00     0.043 A 
HETATM   11  C13 UNL     1      17.805   3.357  51.489  1.00  0.00     0.030 A 
HETATM   12  C14 UNL     1      16.959   2.751  50.581  1.00  0.00     0.002 A 
HETATM   13  C15 UNL     1      17.365   1.704  49.778  1.00  0.00     0.001 A 
HETATM   14  C16 UNL     1      18.671   1.237  49.886  1.00  0.00     0.016 A 
HETATM   15  C17 UNL     1      19.571   1.801  50.780  1.00  0.00     0.020 A 
HETATM   16  C18 UNL     1      20.972   1.573  51.148  1.00  0.00     0.103 C 
HETATM   17  N3  UNL     1      21.554   0.446  50.923  1.00  0.00    -0.298 NA
HETATM   18  C19 UNL     1      21.787   3.862  50.742  1.00  0.00     0.285 C 
HETATM   19  O3  UNL     1      21.009   4.782  50.371  1.00  0.00    -0.267 OA
HETATM   20  N4  UNL     1      23.099   3.743  50.188  1.00  0.00    -0.320 N 
HETATM   21  H12 UNL     1      20.061   3.800  53.306  1.00  0.00     0.163 HD
HETATM   22  H17 UNL     1      22.551   0.247  51.172  1.00  0.00     0.187 HD
HETATM   23  H18 UNL     1      23.329   4.167  49.269  1.00  0.00     0.169 HD
ENDROOT
BRANCH   1  24
HETATM   24  N1  UNL     1      27.023   0.911  53.116  1.00  0.00    -0.327 N 
HETATM   25  C4  UNL     1      28.066   1.415  53.928  1.00  0.00     0.222 C 
HETATM   26  O1  UNL     1      28.137   2.644  54.133  1.00  0.00    -0.273 OA
HETATM   27  H8  UNL     1      27.091  -0.127  53.036  1.00  0.00     0.169 HD
BRANCH  25  28
HETATM   28  C3  UNL     1      29.110   0.592  54.574  1.00  0.00     0.103 C 
BRANCH  28  29
HETATM   29  C2  UNL     1      29.870  -0.145  53.492  1.00  0.00     0.005 C 
HETATM   30  C1  UNL     1      29.531  -1.609  53.472  1.00  0.00     0.005 C 
ENDBRANCH  28  29
ENDBRANCH  25  28
ENDBRANCH   1  24
TORSDOF 3
ENDMDL
MODEL 6
REMARK VINA RESULT:      -7.9      6.443      8.082
REMARK  3 active torsions:
REMARK  status: ('A' for Active; 'I' for Inactive)
REMARK    1  A    between atoms: C2_2  and  C3_3 
REMARK    2  A    between atoms: C3_3  and  C4_4 
REMARK       I    between atoms: C4_4  and  N1_6 
REMARK    3  A    between atoms: N1_6  and  C5_7 
ROOT
HETATM    1  C5  UNL     1      22.780   2.930  52.047  1.00  0.00     0.037 A 
HETATM    2  C6  UNL     1      23.113   3.731  53.113  1.00  0.00     0.032 A 
HETATM    3  C7  UNL     1      23.667   4.980  52.940  1.00  0.00     0.035 A 
HETATM    4  C8  UNL     1      23.917   5.491  51.688  1.00  0.00     0.068 A 
HETATM    5  C9  UNL     1      23.592   4.708  50.603  1.00  0.00     0.102 A 
HETATM    6  C10 UNL     1      23.042   3.470  50.816  1.00  0.00     0.068 A 
HETATM    7  O2  UNL     1      23.838   5.208  49.333  1.00  0.00    -0.303 OA
HETATM    8  C11 UNL     1      24.820   6.222  49.221  1.00  0.00     0.269 C 
HETATM    9  N2  UNL     1      24.783   6.867  47.924  1.00  0.00    -0.344 N 
HETATM   10  C12 UNL     1      26.107   7.305  47.631  1.00  0.00     0.043 A 
HETATM   11  C13 UNL     1      26.523   8.309  46.762  1.00  0.00     0.030 A 
HETATM   12  C14 UNL     1      27.884   8.524  46.673  1.00  0.00     0.002 A 
HETATM   13  C15 UNL     1      28.798   7.789  47.401  1.00  0.00     0.001 A 
HETATM   14  C16 UNL     1      28.336   6.795  48.258  1.00  0.00     0.016 A 
HETATM   15  C17 UNL     1      26.980   6.528  48.395  1.00  0.00     0.020 A 
HETATM   16  C18 UNL     1      26.165   5.590  49.173  1.00  0.00     0.103 C 
HETATM   17  N3  UNL     1      26.658   4.498  49.645  1.00  0.00    -0.298 NA
HETATM   18  C19 UNL     1      24.721   7.256  50.273  1.00  0.00     0.285 C 
HETATM   19  O3  UNL     1      24.832   8.487  50.028  1.00  0.00    -0.267 OA
HETATM   20  N4  UNL     1      24.490   6.791  51.604  1.00  0.00    -0.320 N 
HETATM   21  H12 UNL     1      23.952   7.004  47.289  1.00  0.00     0.163 HD
HETATM   22  H17 UNL     1      26.108   3.805  50.205  1.00  0.00     0.187 HD
HETATM   23  H18 UNL     1      24.734   7.380  52.422  1.00  0.00     0.169 HD
ENDROOT
BRANCH   1  24
HETATM   24  N1  UNL     1      22.216   1.662  52.319  1.00  0.00    -0.327 N 
HETATM   25  C4  UNL     1      22.852   0.448  52.672  1.00  0.00     0.222 C 
HETATM   26  O1  UNL     1      24.095   0.421  52.777  1.00  0.00    -0.273 OA
HETATM   27  H8  UNL     1      21.182   1.532  52.270  1.00  0.00     0.169 HD
BRANCH  25  28
HETATM   28  C3  UNL     1      22.155  -0.829  52.935  1.00  0.00     0.103 C 
BRANCH  28  29
HETATM   29  C2  UNL     1      21.699  -0.831  54.378  1.00  0.00     0.005 C 
HETATM   30  C1  UNL     1      22.714  -1.476  55.282  1.00  0.00     0.005 C 
ENDBRANCH  28  29
ENDBRANCH  25  28
ENDBRANCH   1  24
TORSDOF 3
ENDMDL
MODEL 7
REMARK VINA RESULT:      -7.8      5.010      9.292
REMARK  3 active torsions:
REMARK  status: ('A' for Active; 'I' for Inactive)
REMARK    1  A    between atoms: C2_2  and  C3_3 
REMARK    2  A    between atoms: C3_3  and  C4_4 
REMARK       I    between atoms: C4_4  and  N1_6 
REMARK    3  A    between atoms: N1_6  and  C5_7 
ROOT
HETATM    1  C5  UNL     1      22.466   7.009  50.806  1.00  0.00     0.037 A 
HETATM    2  C6  UNL     1      23.691   7.575  50.543  1.00  0.00     0.032 A 
HETATM    3  C7  UNL     1      24.834   6.815  50.438  1.00  0.00     0.035 A 
HETATM    4  C8  UNL     1      24.810   5.449  50.588  1.00  0.00     0.068 A 
HETATM    5  C9  UNL     1      23.594   4.859  50.852  1.00  0.00     0.102 A 
HETATM    6  C10 UNL     1      22.478   5.648  50.951  1.00  0.00     0.068 A 
HETATM    7  O2  UNL     1      23.552   3.480  51.008  1.00  0.00    -0.303 OA
HETATM    8  C11 UNL     1      24.758   2.838  51.374  1.00  0.00     0.269 C 
HETATM    9  N2  UNL     1      24.672   1.400  51.221  1.00  0.00    -0.344 N 
HETATM   10  C12 UNL     1      25.540   0.817  52.189  1.00  0.00     0.043 A 
HETATM   11  C13 UNL     1      26.133  -0.441  52.186  1.00  0.00     0.030 A 
HETATM   12  C14 UNL     1      26.937  -0.747  53.266  1.00  0.00     0.002 A 
HETATM   13  C15 UNL     1      27.153   0.138  54.302  1.00  0.00     0.001 A 
HETATM   14  C16 UNL     1      26.539   1.386  54.263  1.00  0.00     0.016 A 
HETATM   15  C17 UNL     1      25.717   1.757  53.207  1.00  0.00     0.020 A 
HETATM   16  C18 UNL     1      24.936   2.945  52.847  1.00  0.00     0.103 C 
HETATM   17  N3  UNL     1      24.561   3.800  53.734  1.00  0.00    -0.298 NA
HETATM   18  C19 UNL     1      25.938   3.330  50.629  1.00  0.00     0.285 C 
HETATM   19  O3  UNL     1      26.816   2.556  50.161  1.00  0.00    -0.267 OA
HETATM   20  N4  UNL     1      26.040   4.744  50.461  1.00  0.00    -0.320 N 
HETATM   21  H12 UNL     1      24.088   0.853  50.533  1.00  0.00     0.163 HD
HETATM   22  H17 UNL     1      24.003   4.658  53.516  1.00  0.00     0.187 HD
HETATM   23  H18 UNL     1      26.955   5.191  50.262  1.00  0.00     0.169 HD
ENDROOT
BRANCH   1  24
HETATM   24  N1  UNL     1      21.344   7.867  50.899  1.00  0.00    -0.327 N 
HETATM   25  C4  UNL     1      20.544   8.420  49.872  1.00  0.00     0.222 C 
HETATM   26  O1  UNL     1      20.811   8.154  48.683  1.00  0.00    -0.273 OA
HETATM   27  H8  UNL     1      21.004   8.176  51.835  1.00  0.00     0.169 HD
BRANCH  25  28
HETATM   28  C3  UNL     1      19.386   9.313  50.088  1.00  0.00     0.103 C 
BRANCH  28  29
HETATM   29  C2  UNL     1      19.398  10.374  49.008  1.00  0.00     0.005 C 
HETATM   30  C1  UNL     1      20.287  11.530  49.372  1.00  0.00     0.005 C 
ENDBRANCH  28  29
ENDBRANCH  25  28
ENDBRANCH   1  24
TORSDOF 3
ENDMDL
MODEL 8
REMARK VINA RESULT:      -7.8      6.358      7.134
REMARK  3 active torsions:
REMARK  status: ('A' for Active; 'I' for Inactive)
REMARK    1  A    between atoms: C2_2  and  C3_3 
REMARK    2  A    between atoms: C3_3  and  C4_4 
REMARK       I    between atoms: C4_4  and  N1_6 
REMARK    3  A    between atoms: N1_6  and  C5_7 
ROOT
HETATM    1  C5  UNL     1      24.843   2.624  51.871  1.00  0.00     0.037 A 
HETATM    2  C6  UNL     1      24.211   3.247  52.921  1.00  0.00     0.032 A 
HETATM    3  C7  UNL     1      23.608   4.477  52.779  1.00  0.00     0.035 A 
HETATM    4  C8  UNL     1      23.604   5.145  51.578  1.00  0.00     0.068 A 
HETATM    5  C9  UNL     1      24.230   4.541  50.511  1.00  0.00     0.102 A 
HETATM    6  C10 UNL     1      24.821   3.317  50.690  1.00  0.00     0.068 A 
HETATM    7  O2  UNL     1      24.237   5.203  49.291  1.00  0.00    -0.303 OA
HETATM    8  C11 UNL     1      24.059   6.607  49.321  1.00  0.00     0.269 C 
HETATM    9  N2  UNL     1      23.790   7.144  48.003  1.00  0.00    -0.344 N 
HETATM   10  C12 UNL     1      24.299   8.475  47.975  1.00  0.00     0.043 A 
HETATM   11  C13 UNL     1      23.938   9.531  47.146  1.00  0.00     0.030 A 
HETATM   12  C14 UNL     1      24.603  10.725  47.341  1.00  0.00     0.002 A 
HETATM   13  C15 UNL     1      25.579  10.879  48.306  1.00  0.00     0.001 A 
HETATM   14  C16 UNL     1      25.907   9.795  49.113  1.00  0.00     0.016 A 
HETATM   15  C17 UNL     1      25.277   8.566  48.968  1.00  0.00     0.020 A 
HETATM   16  C18 UNL     1      25.365   7.254  49.618  1.00  0.00     0.103 C 
HETATM   17  N3  UNL     1      26.416   6.892  50.267  1.00  0.00    -0.298 NA
HETATM   18  C19 UNL     1      22.991   7.046  50.245  1.00  0.00     0.285 C 
HETATM   19  O3  UNL     1      22.150   7.932  49.938  1.00  0.00    -0.267 OA
HETATM   20  N4  UNL     1      22.954   6.411  51.524  1.00  0.00    -0.320 N 
HETATM   21  H12 UNL     1      23.309   6.670  47.192  1.00  0.00     0.163 HD
HETATM   22  H17 UNL     1      26.515   5.965  50.743  1.00  0.00     0.187 HD
HETATM   23  H18 UNL     1      22.483   6.864  52.329  1.00  0.00     0.169 HD
ENDROOT
BRANCH   1  24
HETATM   24  N1  UNL     1      25.437   1.362  52.107  1.00  0.00    -0.327 N 
HETATM   25  C4  UNL     1      26.796   1.029  52.314  1.00  0.00     0.222 C 
HETATM   26  O1  UNL     1      27.654   1.936  52.299  1.00  0.00    -0.273 OA
HETATM   27  H8  UNL     1      24.841   0.507  52.147  1.00  0.00     0.169 HD
BRANCH  25  28
HETATM   28  C3  UNL     1      27.308  -0.337  52.554  1.00  0.00     0.103 C 
BRANCH  28  29
HETATM   29  C2  UNL     1      28.462  -0.246  53.529  1.00  0.00     0.005 C 
HETATM   30  C1  UNL     1      29.433  -1.380  53.349  1.00  0.00     0.005 C 
ENDBRANCH  28  29
ENDBRANCH  25  28
ENDBRANCH   1  24
TORSDOF 3
ENDMDL
MODEL 9
REMARK VINA RESULT:      -7.6      4.998      6.142
REMARK  3 active torsions:
REMARK  status: ('A' for Active; 'I' for Inactive)
REMARK    1  A    between atoms: C2_2  and  C3_3 
REMARK    2  A    between atoms: C3_3  and  C4_4 
REMARK       I    between atoms: C4_4  and  N1_6 
REMARK    3  A    between atoms: N1_6  and  C5_7 
ROOT
HETATM    1  C5  UNL     1      25.815   2.751  51.029  1.00  0.00     0.037 A 
HETATM    2  C6  UNL     1      26.526   3.237  49.957  1.00  0.00     0.032 A 
HETATM    3  C7  UNL     1      26.201   4.430  49.350  1.00  0.00     0.035 A 
HETATM    4  C8  UNL     1      25.148   5.199  49.788  1.00  0.00     0.068 A 
HETATM    5  C9  UNL     1      24.422   4.734  50.860  1.00  0.00     0.102 A 
HETATM    6  C10 UNL     1      24.774   3.541  51.437  1.00  0.00     0.068 A 
HETATM    7  O2  UNL     1      23.355   5.497  51.313  1.00  0.00    -0.303 OA
HETATM    8  C11 UNL     1      22.780   6.407  50.394  1.00  0.00     0.269 C 
HETATM    9  N2  UNL     1      21.889   7.343  51.049  1.00  0.00    -0.344 N 
HETATM   10  C12 UNL     1      20.887   7.707  50.103  1.00  0.00     0.043 A 
HETATM   11  C13 UNL     1      20.086   8.843  50.073  1.00  0.00     0.030 A 
HETATM   12  C14 UNL     1      19.188   8.939  49.028  1.00  0.00     0.002 A 
HETATM   13  C15 UNL     1      19.080   7.966  48.055  1.00  0.00     0.001 A 
HETATM   14  C16 UNL     1      19.902   6.846  48.126  1.00  0.00     0.016 A 
HETATM   15  C17 UNL     1      20.826   6.688  49.151  1.00  0.00     0.020 A 
HETATM   16  C18 UNL     1      21.817   5.676  49.528  1.00  0.00     0.103 C 
HETATM   17  N3  UNL     1      21.731   4.459  49.113  1.00  0.00    -0.298 NA
HETATM   18  C19 UNL     1      23.779   7.164  49.611  1.00  0.00     0.285 C 
HETATM   19  O3  UNL     1      23.676   8.401  49.393  1.00  0.00    -0.267 OA
HETATM   20  N4  UNL     1      24.887   6.419  49.102  1.00  0.00    -0.320 N 
HETATM   21  H12 UNL     1      21.942   7.709  52.037  1.00  0.00     0.163 HD
HETATM   22  H17 UNL     1      22.420   3.710  49.361  1.00  0.00     0.187 HD
HETATM   23  H18 UNL     1      25.436   6.768  48.294  1.00  0.00     0.169 HD
ENDROOT
BRANCH   1  24
HETATM   24  N1  UNL     1      26.219   1.516  51.588  1.00  0.00    -0.327 N 
HETATM   25  C4  UNL     1      27.319   1.223  52.428  1.00  0.00     0.222 C 
HETATM   26  O1  UNL     1      28.090   2.144  52.765  1.00  0.00    -0.273 OA
HETATM   27  H8  UNL     1      25.667   0.653  51.392  1.00  0.00     0.169 HD
BRANCH  25  28
HETATM   28  C3  UNL     1      27.648  -0.118  52.957  1.00  0.00     0.103 C 
BRANCH  28  29
HETATM   29  C2  UNL     1      28.790   0.027  53.939  1.00  0.00     0.005 C 
HETATM   30  C1  UNL     1      29.945  -0.869  53.587  1.00  0.00     0.005 C 
ENDBRANCH  28  29
ENDBRANCH  25  28
ENDBRANCH   1  24
TORSDOF 3
ENDMDL
