MODEL 1
REMARK VINA RESULT:      -7.7      0.000      0.000
REMARK  4 active torsions:
REMARK  status: ('A' for Active; 'I' for Inactive)
REMARK    1  A    between atoms: C2_2  and  C3_3 
REMARK    2  A    between atoms: C4_4  and  C5_5 
REMARK       I    between atoms: C5_5  and  N1_7 
REMARK    3  A    between atoms: N1_7  and  C6_8 
REMARK    4  A    between atoms: N4_15  and  C11_16 
ROOT
HETATM    1  C6  UNL     1      24.222   3.557  51.492  1.00  0.00     0.034 C 
HETATM    2  C7  UNL     1      23.522   4.680  51.737  1.00  0.00     0.024 C 
HETATM    3  C8  UNL     1      22.130   5.000  52.146  1.00  0.00     0.179 C 
HETATM    4  N2  UNL     1      21.457   3.718  52.280  1.00  0.00    -0.279 NA
HETATM    5  C9  UNL     1      20.862   3.130  51.331  1.00  0.00     0.228 C 
HETATM    6  N3  UNL     1      20.136   1.978  51.023  1.00  0.00    -0.237 NA
HETATM    7  C10 UNL     1      20.417   0.787  51.399  1.00  0.00     0.211 C 
HETATM    8  N4  UNL     1      21.597   0.948  52.171  1.00  0.00    -0.338 N 
HETATM    9  C16 UNL     1      22.881   1.394  51.809  1.00  0.00     0.095 C 
HETATM   10  C17 UNL     1      23.900   2.141  51.536  1.00  0.00     0.046 C 
ENDROOT
BRANCH   1  11
HETATM   11  N1  UNL     1      25.581   3.875  51.117  1.00  0.00    -0.316 N 
HETATM   12  C5  UNL     1      25.641   4.293  49.742  1.00  0.00     0.301 C 
HETATM   13  O1  UNL     1      24.591   4.343  49.040  1.00  0.00    -0.258 OA
HETATM   14  H4  UNL     1      26.451   3.839  51.682  1.00  0.00     0.170 HD
BRANCH  12  15
HETATM   15  C4  UNL     1      26.874   4.671  49.103  1.00  0.00    -0.001 C 
HETATM   16  C3  UNL     1      27.917   4.999  48.581  1.00  0.00    -0.069 C 
BRANCH  16  17
HETATM   17  C2  UNL     1      29.164   5.408  47.974  1.00  0.00     0.054 C 
HETATM   18  C1  UNL     1      29.395   6.666  47.609  1.00  0.00     0.021 C 
ENDBRANCH  16  17
ENDBRANCH  12  15
ENDBRANCH   1  11
BRANCH   8  19
HETATM   19  C11 UNL     1      21.062   0.490  53.405  1.00  0.00     0.153 A 
HETATM   20  C12 UNL     1      22.152  -0.164  54.210  1.00  0.00     0.004 A 
HETATM   21  C13 UNL     1      21.764  -1.390  54.598  1.00  0.00    -0.001 A 
HETATM   22  C14 UNL     1      20.396  -1.599  54.067  1.00  0.00     0.017 A 
HETATM   23  C15 UNL     1      20.002  -0.505  53.379  1.00  0.00     0.015 A 
HETATM   24 BR1  UNL     1      18.219  -0.956  52.785  1.00  0.00    -0.053 Br
ENDBRANCH   8  19
TORSDOF 4
ENDMDL
MODEL 2
REMARK VINA RESULT:      -7.6      4.415      7.657
REMARK  4 active torsions:
REMARK  status: ('A' for Active; 'I' for Inactive)
REMARK    1  A    between atoms: C2_2  and  C3_3 
REMARK    2  A    between atoms: C4_4  and  C5_5 
REMARK       I    between atoms: C5_5  and  N1_7 
REMARK    3  A    between atoms: N1_7  and  C6_8 
REMARK    4  A    between atoms: N4_15  and  C11_16 
ROOT
HETATM    1  C6  UNL     1      22.415   1.228  52.887  1.00  0.00     0.034 C 
HETATM    2  C7  UNL     1      22.681   2.416  52.315  1.00  0.00     0.024 C 
HETATM    3  C8  UNL     1      23.906   3.194  51.992  1.00  0.00     0.179 C 
HETATM    4  N2  UNL     1      25.019   2.380  52.454  1.00  0.00    -0.279 NA
HETATM    5  C9  UNL     1      25.498   2.435  53.622  1.00  0.00     0.228 C 
HETATM    6  N3  UNL     1      26.484   1.885  54.443  1.00  0.00    -0.237 NA
HETATM    7  C10 UNL     1      26.789   0.645  54.528  1.00  0.00     0.211 C 
HETATM    8  N4  UNL     1      25.904   0.018  53.612  1.00  0.00    -0.338 N 
HETATM    9  C16 UNL     1      24.501  -0.080  53.609  1.00  0.00     0.095 C 
HETATM   10  C17 UNL     1      23.244   0.169  53.439  1.00  0.00     0.046 C 
ENDROOT
BRANCH   1  11
HETATM   11  N1  UNL     1      20.991   0.992  52.935  1.00  0.00    -0.316 N 
HETATM   12  C5  UNL     1      20.538   0.381  51.714  1.00  0.00     0.301 C 
HETATM   13  O1  UNL     1      21.355   0.124  50.784  1.00  0.00    -0.258 OA
HETATM   14  H4  UNL     1      20.309   1.197  53.691  1.00  0.00     0.170 HD
BRANCH  12  15
HETATM   15  C4  UNL     1      19.160   0.034  51.488  1.00  0.00    -0.001 C 
HETATM   16  C3  UNL     1      17.995  -0.239  51.294  1.00  0.00    -0.069 C 
BRANCH  16  17
HETATM   17  C2  UNL     1      16.600  -0.542  51.066  1.00  0.00     0.054 C 
HETATM   18  C1  UNL     1      16.048  -0.472  49.858  1.00  0.00     0.021 C 
ENDBRANCH  16  17
ENDBRANCH  12  15
ENDBRANCH   1  11
BRANCH   8  19
HETATM   19  C11 UNL     1      26.896  -0.491  52.732  1.00  0.00     0.153 A 
HETATM   20  C12 UNL     1      26.578  -1.924  52.397  1.00  0.00     0.004 A 
HETATM   21  C13 UNL     1      27.650  -2.698  52.635  1.00  0.00    -0.001 A 
HETATM   22  C14 UNL     1      28.725  -1.809  53.136  1.00  0.00     0.017 A 
HETATM   23  C15 UNL     1      28.275  -0.536  53.187  1.00  0.00     0.015 A 
HETATM   24 BR1  UNL     1      29.799   0.459  53.841  1.00  0.00    -0.053 Br
ENDBRANCH   8  19
TORSDOF 4
ENDMDL
MODEL 3
REMARK VINA RESULT:      -7.5      3.353      4.154
REMARK  4 active torsions:
REMARK  status: ('A' for Active; 'I' for Inactive)
REMARK    1  A    between atoms: C2_2  and  C3_3 
REMARK    2  A    between atoms: C4_4  and  C5_5 
REMARK       I    between atoms: C5_5  and  N1_7 
REMARK    3  A    between atoms: N1_7  and  C6_8 
REMARK    4  A    between atoms: N4_15  and  C11_16 
ROOT
HETATM    1  C6  UNL     1      24.028   2.129  51.652  1.00  0.00     0.034 C 
HETATM    2  C7  UNL     1      23.995   3.335  52.248  1.00  0.00     0.024 C 
HETATM    3  C8  UNL     1      22.946   4.339  52.567  1.00  0.00     0.179 C 
HETATM    4  N2  UNL     1      21.702   3.776  52.066  1.00  0.00    -0.279 NA
HETATM    5  C9  UNL     1      21.271   3.951  50.890  1.00  0.00     0.228 C 
HETATM    6  N3  UNL     1      20.213   3.629  50.038  1.00  0.00    -0.237 NA
HETATM    7  C10 UNL     1      19.665   2.478  49.918  1.00  0.00     0.211 C 
HETATM    8  N4  UNL     1      20.383   1.667  50.835  1.00  0.00    -0.338 N 
HETATM    9  C16 UNL     1      21.737   1.286  50.862  1.00  0.00     0.095 C 
HETATM   10  C17 UNL     1      23.015   1.272  51.060  1.00  0.00     0.046 C 
ENDROOT
BRANCH   1  11
HETATM   11  N1  UNL     1      25.375   1.610  51.624  1.00  0.00    -0.316 N 
HETATM   12  C5  UNL     1      25.546   0.593  52.628  1.00  0.00     0.301 C 
HETATM   13  O1  UNL     1      24.585   0.268  53.382  1.00  0.00    -0.258 OA
HETATM   14  H4  UNL     1      26.173   1.867  51.012  1.00  0.00     0.170 HD
BRANCH  12  15
HETATM   15  C4  UNL     1      26.794  -0.097  52.824  1.00  0.00    -0.001 C 
HETATM   16  C3  UNL     1      27.835  -0.692  53.001  1.00  0.00    -0.069 C 
BRANCH  16  17
HETATM   17  C2  UNL     1      29.069  -1.409  53.233  1.00  0.00     0.054 C 
HETATM   18  C1  UNL     1      30.152  -0.814  53.723  1.00  0.00     0.021 C 
ENDBRANCH  16  17
ENDBRANCH  12  15
ENDBRANCH   1  11
BRANCH   8  19
HETATM   19  C11 UNL     1      19.289   1.353  51.685  1.00  0.00     0.153 A 
HETATM   20  C12 UNL     1      19.806   0.727  52.953  1.00  0.00     0.004 A 
HETATM   21  C13 UNL     1      19.176  -0.437  53.179  1.00  0.00    -0.001 A 
HETATM   22  C14 UNL     1      18.212  -0.632  52.070  1.00  0.00     0.017 A 
HETATM   23  C15 UNL     1      18.288   0.411  51.213  1.00  0.00     0.015 A 
HETATM   24 BR1  UNL     1      16.969  -0.011  49.863  1.00  0.00    -0.053 Br
ENDBRANCH   8  19
TORSDOF 4
ENDMDL
MODEL 4
REMARK VINA RESULT:      -7.4      3.852      5.608
REMARK  4 active torsions:
REMARK  status: ('A' for Active; 'I' for Inactive)
REMARK    1  A    between atoms: C2_2  and  C3_3 
REMARK    2  A    between atoms: C4_4  and  C5_5 
REMARK       I    between atoms: C5_5  and  N1_7 
REMARK    3  A    between atoms: N1_7  and  C6_8 
REMARK    4  A    between atoms: N4_15  and  C11_16 
ROOT
HETATM    1  C6  UNL     1      23.569   0.944  53.152  1.00  0.00     0.034 C 
HETATM    2  C7  UNL     1      22.681  -0.039  53.392  1.00  0.00     0.024 C 
HETATM    3  C8  UNL     1      21.264  -0.305  53.034  1.00  0.00     0.179 C 
HETATM    4  N2  UNL     1      20.841   0.836  52.238  1.00  0.00    -0.279 NA
HETATM    5  C9  UNL     1      20.341   1.891  52.725  1.00  0.00     0.228 C 
HETATM    6  N3  UNL     1      19.832   3.142  52.372  1.00  0.00    -0.237 NA
HETATM    7  C10 UNL     1      20.335   3.944  51.510  1.00  0.00     0.211 C 
HETATM    8  N4  UNL     1      21.483   3.256  51.039  1.00  0.00    -0.338 N 
HETATM    9  C16 UNL     1      22.654   2.856  51.707  1.00  0.00     0.095 C 
HETATM   10  C17 UNL     1      23.513   2.192  52.410  1.00  0.00     0.046 C 
ENDROOT
BRANCH   1  11
HETATM   11  N1  UNL     1      24.838   0.649  53.777  1.00  0.00    -0.316 N 
HETATM   12  C5  UNL     1      25.876   0.541  52.788  1.00  0.00     0.301 C 
HETATM   13  O1  UNL     1      25.614   0.701  51.562  1.00  0.00    -0.258 OA
HETATM   14  H4  UNL     1      25.068   0.516  54.781  1.00  0.00     0.170 HD
BRANCH  12  15
HETATM   15  C4  UNL     1      27.244   0.254  53.132  1.00  0.00    -0.001 C 
HETATM   16  C3  UNL     1      28.399   0.004  53.402  1.00  0.00    -0.069 C 
BRANCH  16  17
HETATM   17  C2  UNL     1      29.777  -0.308  53.708  1.00  0.00     0.054 C 
HETATM   18  C1  UNL     1      30.224  -1.560  53.766  1.00  0.00     0.021 C 
ENDBRANCH  16  17
ENDBRANCH  12  15
ENDBRANCH   1  11
BRANCH   8  19
HETATM   19  C11 UNL     1      21.069   3.133  49.686  1.00  0.00     0.153 A 
HETATM   20  C12 UNL     1      21.665   1.884  49.093  1.00  0.00     0.004 A 
HETATM   21  C13 UNL     1      22.304   2.179  47.949  1.00  0.00    -0.001 A 
HETATM   22  C14 UNL     1      22.157   3.638  47.734  1.00  0.00     0.017 A 
HETATM   23  C15 UNL     1      21.441   4.177  48.745  1.00  0.00     0.015 A 
HETATM   24 BR1  UNL     1      21.345   6.053  48.288  1.00  0.00    -0.053 Br
ENDBRANCH   8  19
TORSDOF 4
ENDMDL
MODEL 5
REMARK VINA RESULT:      -7.3      3.518      8.159
REMARK  4 active torsions:
REMARK  status: ('A' for Active; 'I' for Inactive)
REMARK    1  A    between atoms: C2_2  and  C3_3 
REMARK    2  A    between atoms: C4_4  and  C5_5 
REMARK       I    between atoms: C5_5  and  N1_7 
REMARK    3  A    between atoms: N1_7  and  C6_8 
REMARK    4  A    between atoms: N4_15  and  C11_16 
ROOT
HETATM    1  C6  UNL     1      23.127   1.336  51.512  1.00  0.00     0.034 C 
HETATM    2  C7  UNL     1      23.904   1.112  52.587  1.00  0.00     0.024 C 
HETATM    3  C8  UNL     1      25.137   1.715  53.156  1.00  0.00     0.179 C 
HETATM    4  N2  UNL     1      25.499   2.792  52.249  1.00  0.00    -0.279 NA
HETATM    5  C9  UNL     1      26.244   2.643  51.237  1.00  0.00     0.228 C 
HETATM    6  N3  UNL     1      26.815   3.337  50.170  1.00  0.00    -0.237 NA
HETATM    7  C10 UNL     1      26.227   4.205  49.435  1.00  0.00     0.211 C 
HETATM    8  N4  UNL     1      24.915   4.267  49.971  1.00  0.00    -0.338 N 
HETATM    9  C16 UNL     1      23.904   3.292  50.045  1.00  0.00     0.095 C 
HETATM   10  C17 UNL     1      23.166   2.301  50.426  1.00  0.00     0.046 C 
ENDROOT
BRANCH   1  11
HETATM   11  N1  UNL     1      22.027   0.400  51.473  1.00  0.00    -0.316 N 
HETATM   12  C5  UNL     1      20.917   0.892  52.244  1.00  0.00     0.301 C 
HETATM   13  O1  UNL     1      20.991   2.005  52.838  1.00  0.00    -0.258 OA
HETATM   14  H4  UNL     1      21.952  -0.516  50.989  1.00  0.00     0.170 HD
BRANCH  12  15
HETATM   15  C4  UNL     1      19.685   0.160  52.378  1.00  0.00    -0.001 C 
HETATM   16  C3  UNL     1      18.646  -0.450  52.511  1.00  0.00    -0.069 C 
BRANCH  16  17
HETATM   17  C2  UNL     1      17.411  -1.179  52.691  1.00  0.00     0.054 C 
HETATM   18  C1  UNL     1      17.369  -2.362  53.299  1.00  0.00     0.021 C 
ENDBRANCH  16  17
ENDBRANCH  12  15
ENDBRANCH   1  11
BRANCH   8  19
HETATM   19  C11 UNL     1      24.956   5.628  50.377  1.00  0.00     0.153 A 
HETATM   20  C12 UNL     1      23.813   5.904  51.316  1.00  0.00     0.004 A 
HETATM   21  C13 UNL     1      23.115   6.969  50.889  1.00  0.00    -0.001 A 
HETATM   22  C14 UNL     1      23.770   7.446  49.647  1.00  0.00     0.017 A 
HETATM   23  C15 UNL     1      24.832   6.662  49.363  1.00  0.00     0.015 A 
HETATM   24 BR1  UNL     1      25.552   7.437  47.744  1.00  0.00    -0.053 Br
ENDBRANCH   8  19
TORSDOF 4
ENDMDL
MODEL 6
REMARK VINA RESULT:      -7.1      3.050      5.134
REMARK  4 active torsions:
REMARK  status: ('A' for Active; 'I' for Inactive)
REMARK    1  A    between atoms: C2_2  and  C3_3 
REMARK    2  A    between atoms: C4_4  and  C5_5 
REMARK       I    between atoms: C5_5  and  N1_7 
REMARK    3  A    between atoms: N1_7  and  C6_8 
REMARK    4  A    between atoms: N4_15  and  C11_16 
ROOT
HETATM    1  C6  UNL     1      23.494   5.375  51.123  1.00  0.00     0.034 C 
HETATM    2  C7  UNL     1      24.340   5.236  50.086  1.00  0.00     0.024 C 
HETATM    3  C8  UNL     1      25.207   4.153  49.555  1.00  0.00     0.179 C 
HETATM    4  N2  UNL     1      25.017   3.025  50.453  1.00  0.00    -0.279 NA
HETATM    5  C9  UNL     1      25.703   2.829  51.497  1.00  0.00     0.228 C 
HETATM    6  N3  UNL     1      25.860   1.952  52.572  1.00  0.00    -0.237 NA
HETATM    7  C10 UNL     1      24.916   1.430  53.262  1.00  0.00     0.211 C 
HETATM    8  N4  UNL     1      23.737   1.953  52.671  1.00  0.00    -0.338 N 
HETATM    9  C16 UNL     1      23.262   3.273  52.577  1.00  0.00     0.095 C 
HETATM   10  C17 UNL     1      23.054   4.489  52.188  1.00  0.00     0.046 C 
ENDROOT
BRANCH   1  11
HETATM   11  N1  UNL     1      22.917   6.699  51.138  1.00  0.00    -0.316 N 
HETATM   12  C5  UNL     1      21.732   6.743  50.323  1.00  0.00     0.301 C 
HETATM   13  O1  UNL     1      21.331   5.709  49.717  1.00  0.00    -0.258 OA
HETATM   14  H4  UNL     1      23.235   7.556  51.630  1.00  0.00     0.170 HD
BRANCH  12  15
HETATM   15  C4  UNL     1      20.953   7.942  50.157  1.00  0.00    -0.001 C 
HETATM   16  C3  UNL     1      20.296   8.947  49.998  1.00  0.00    -0.069 C 
BRANCH  16  17
HETATM   17  C2  UNL     1      19.518  10.148  49.785  1.00  0.00     0.054 C 
HETATM   18  C1  UNL     1      20.046  11.250  49.260  1.00  0.00     0.021 C 
ENDBRANCH  16  17
ENDBRANCH  12  15
ENDBRANCH   1  11
BRANCH   8  19
HETATM   19  C11 UNL     1      23.195   0.714  52.237  1.00  0.00     0.153 A 
HETATM   20  C12 UNL     1      22.213   0.961  51.123  1.00  0.00     0.004 A 
HETATM   21  C13 UNL     1      21.041   0.368  51.405  1.00  0.00    -0.001 A 
HETATM   22  C14 UNL     1      21.199  -0.300  52.719  1.00  0.00     0.017 A 
HETATM   23  C15 UNL     1      22.449  -0.092  53.188  1.00  0.00     0.015 A 
HETATM   24 BR1  UNL     1      22.466  -1.036  54.876  1.00  0.00    -0.053 Br
ENDBRANCH   8  19
TORSDOF 4
ENDMDL
MODEL 7
REMARK VINA RESULT:      -7.0      4.293      5.888
REMARK  4 active torsions:
REMARK  status: ('A' for Active; 'I' for Inactive)
REMARK    1  A    between atoms: C2_2  and  C3_3 
REMARK    2  A    between atoms: C4_4  and  C5_5 
REMARK       I    between atoms: C5_5  and  N1_7 
REMARK    3  A    between atoms: N1_7  and  C6_8 
REMARK    4  A    between atoms: N4_15  and  C11_16 
ROOT
HETATM    1  C6  UNL     1      24.168   2.613  51.712  1.00  0.00     0.034 C 
HETATM    2  C7  UNL     1      23.893   3.533  52.655  1.00  0.00     0.024 C 
HETATM    3  C8  UNL     1      23.254   4.874  52.681  1.00  0.00     0.179 C 
HETATM    4  N2  UNL     1      22.880   5.155  51.304  1.00  0.00    -0.279 NA
HETATM    5  C9  UNL     1      23.639   5.722  50.467  1.00  0.00     0.228 C 
HETATM    6  N3  UNL     1      23.699   6.161  49.144  1.00  0.00    -0.237 NA
HETATM    7  C10 UNL     1      23.280   5.520  48.118  1.00  0.00     0.211 C 
HETATM    8  N4  UNL     1      22.767   4.313  48.662  1.00  0.00    -0.338 N 
HETATM    9  C16 UNL     1      23.408   3.269  49.352  1.00  0.00     0.095 C 
HETATM   10  C17 UNL     1      23.938   2.540  50.279  1.00  0.00     0.046 C 
ENDROOT
BRANCH   1  11
HETATM   11  N1  UNL     1      24.825   1.465  52.295  1.00  0.00    -0.316 N 
HETATM   12  C5  UNL     1      26.247   1.541  52.094  1.00  0.00     0.301 C 
HETATM   13  O1  UNL     1      26.758   2.520  51.478  1.00  0.00    -0.258 OA
HETATM   14  H4  UNL     1      24.420   0.656  52.804  1.00  0.00     0.170 HD
BRANCH  12  15
HETATM   15  C4  UNL     1      27.151   0.528  52.573  1.00  0.00    -0.001 C 
HETATM   16  C3  UNL     1      27.925  -0.319  52.963  1.00  0.00    -0.069 C 
BRANCH  16  17
HETATM   17  C2  UNL     1      28.859  -1.329  53.409  1.00  0.00     0.054 C 
HETATM   18  C1  UNL     1      30.107  -1.032  53.763  1.00  0.00     0.021 C 
ENDBRANCH  16  17
ENDBRANCH  12  15
ENDBRANCH   1  11
BRANCH   8  19
HETATM   19  C11 UNL     1      21.417   4.500  48.259  1.00  0.00     0.153 A 
HETATM   20  C12 UNL     1      20.507   3.762  49.205  1.00  0.00     0.004 A 
HETATM   21  C13 UNL     1      19.679   2.963  48.513  1.00  0.00    -0.001 A 
HETATM   22  C14 UNL     1      20.004   3.140  47.078  1.00  0.00     0.017 A 
HETATM   23  C15 UNL     1      21.010   4.031  46.945  1.00  0.00     0.015 A 
HETATM   24 BR1  UNL     1      21.278   4.137  45.033  1.00  0.00    -0.053 Br
ENDBRANCH   8  19
TORSDOF 4
ENDMDL
MODEL 8
REMARK VINA RESULT:      -7.0      4.306      7.702
REMARK  4 active torsions:
REMARK  status: ('A' for Active; 'I' for Inactive)
REMARK    1  A    between atoms: C2_2  and  C3_3 
REMARK    2  A    between atoms: C4_4  and  C5_5 
REMARK       I    between atoms: C5_5  and  N1_7 
REMARK    3  A    between atoms: N1_7  and  C6_8 
REMARK    4  A    between atoms: N4_15  and  C11_16 
ROOT
HETATM    1  C6  UNL     1      19.164   2.775  51.189  1.00  0.00     0.034 C 
HETATM    2  C7  UNL     1      19.246   2.388  49.903  1.00  0.00     0.024 C 
HETATM    3  C8  UNL     1      20.189   1.577  49.091  1.00  0.00     0.179 C 
HETATM    4  N2  UNL     1      21.234   1.156  50.011  1.00  0.00    -0.279 NA
HETATM    5  C9  UNL     1      22.281   1.826  50.245  1.00  0.00     0.228 C 
HETATM    6  N3  UNL     1      23.460   1.815  50.992  1.00  0.00    -0.237 NA
HETATM    7  C10 UNL     1      23.570   1.476  52.222  1.00  0.00     0.211 C 
HETATM    8  N4  UNL     1      22.244   1.133  52.596  1.00  0.00    -0.338 N 
HETATM    9  C16 UNL     1      21.077   1.913  52.666  1.00  0.00     0.095 C 
HETATM   10  C17 UNL     1      19.989   2.544  52.363  1.00  0.00     0.046 C 
ENDROOT
BRANCH   1  11
HETATM   11  N1  UNL     1      17.987   3.583  51.406  1.00  0.00    -0.316 N 
HETATM   12  C5  UNL     1      16.847   2.751  51.685  1.00  0.00     0.301 C 
HETATM   13  O1  UNL     1      16.962   1.492  51.714  1.00  0.00    -0.258 OA
HETATM   14  H4  UNL     1      17.877   4.615  51.385  1.00  0.00     0.170 HD
BRANCH  12  15
HETATM   15  C4  UNL     1      15.538   3.293  51.941  1.00  0.00    -0.001 C 
HETATM   16  C3  UNL     1      14.444   3.769  52.155  1.00  0.00    -0.069 C 
BRANCH  16  17
HETATM   17  C2  UNL     1      13.149   4.355  52.416  1.00  0.00     0.054 C 
HETATM   18  C1  UNL     1      12.670   4.494  53.649  1.00  0.00     0.021 C 
ENDBRANCH  16  17
ENDBRANCH  12  15
ENDBRANCH   1  11
BRANCH   8  19
HETATM   19  C11 UNL     1      22.496  -0.233  52.895  1.00  0.00     0.153 A 
HETATM   20  C12 UNL     1      21.250  -0.857  53.465  1.00  0.00     0.004 A 
HETATM   21  C13 UNL     1      21.532  -1.463  54.630  1.00  0.00    -0.001 A 
HETATM   22  C14 UNL     1      22.980  -1.268  54.880  1.00  0.00     0.017 A 
HETATM   23  C15 UNL     1      23.525  -0.555  53.869  1.00  0.00     0.015 A 
HETATM   24 BR1  UNL     1      25.390  -0.418  54.361  1.00  0.00    -0.053 Br
ENDBRANCH   8  19
TORSDOF 4
ENDMDL
MODEL 9
REMARK VINA RESULT:      -6.9      1.654      2.016
REMARK  4 active torsions:
REMARK  status: ('A' for Active; 'I' for Inactive)
REMARK    1  A    between atoms: C2_2  and  C3_3 
REMARK    2  A    between atoms: C4_4  and  C5_5 
REMARK       I    between atoms: C5_5  and  N1_7 
REMARK    3  A    between atoms: N1_7  and  C6_8 
REMARK    4  A    between atoms: N4_15  and  C11_16 
ROOT
HETATM    1  C6  UNL     1      24.371   3.981  50.891  1.00  0.00     0.034 C 
HETATM    2  C7  UNL     1      23.749   4.754  51.799  1.00  0.00     0.024 C 
HETATM    3  C8  UNL     1      22.434   4.738  52.491  1.00  0.00     0.179 C 
HETATM    4  N2  UNL     1      21.739   3.566  51.984  1.00  0.00    -0.279 NA
HETATM    5  C9  UNL     1      21.005   3.569  50.954  1.00  0.00     0.228 C 
HETATM    6  N3  UNL     1      20.206   2.746  50.160  1.00  0.00    -0.237 NA
HETATM    7  C10 UNL     1      20.491   1.557  49.780  1.00  0.00     0.211 C 
HETATM    8  N4  UNL     1      21.767   1.318  50.355  1.00  0.00    -0.338 N 
HETATM    9  C16 UNL     1      23.007   1.944  50.136  1.00  0.00     0.095 C 
HETATM   10  C17 UNL     1      24.007   2.761  50.190  1.00  0.00     0.046 C 
ENDROOT
BRANCH   1  11
HETATM   11  N1  UNL     1      25.679   4.510  50.581  1.00  0.00    -0.316 N 
HETATM   12  C5  UNL     1      25.655   5.219  49.330  1.00  0.00     0.301 C 
HETATM   13  O1  UNL     1      24.583   5.312  48.665  1.00  0.00    -0.258 OA
HETATM   14  H4  UNL     1      26.566   4.442  51.116  1.00  0.00     0.170 HD
BRANCH  12  15
HETATM   15  C4  UNL     1      26.824   5.851  48.777  1.00  0.00    -0.001 C 
HETATM   16  C3  UNL     1      27.810   6.393  48.328  1.00  0.00    -0.069 C 
BRANCH  16  17
HETATM   17  C2  UNL     1      28.984   7.058  47.807  1.00  0.00     0.054 C 
HETATM   18  C1  UNL     1      29.002   7.625  46.604  1.00  0.00     0.021 C 
ENDBRANCH  16  17
ENDBRANCH  12  15
ENDBRANCH   1  11
BRANCH   8  19
HETATM   19  C11 UNL     1      21.381   0.236  51.191  1.00  0.00     0.153 A 
HETATM   20  C12 UNL     1      19.923   0.371  51.541  1.00  0.00     0.004 A 
HETATM   21  C13 UNL     1      19.763   0.304  52.873  1.00  0.00    -0.001 A 
HETATM   22  C14 UNL     1      21.110   0.120  53.463  1.00  0.00     0.017 A 
HETATM   23  C15 UNL     1      22.036   0.082  52.479  1.00  0.00     0.015 A 
HETATM   24 BR1  UNL     1      23.701  -0.173  53.429  1.00  0.00    -0.053 Br
ENDBRANCH   8  19
TORSDOF 4
ENDMDL
