MODEL 1
REMARK VINA RESULT:      -7.5      0.000      0.000
REMARK  1 active torsions:
REMARK  status: ('A' for Active; 'I' for Inactive)
REMARK    1  A    between atoms: N1_1  and  C1_2 
ROOT
HETATM    1  C1  UNL     1      24.039   4.783  51.760  1.00  0.00     0.292 C 
HETATM    2  C2  UNL     1      22.758   4.522  50.984  1.00  0.00     0.149 C 
HETATM    3  N2  UNL     1      23.172   3.897  49.920  1.00  0.00    -0.297 NA
HETATM    4  C3  UNL     1      22.192   3.505  48.986  1.00  0.00     0.177 C 
HETATM    5  C4  UNL     1      22.460   2.299  48.184  1.00  0.00     0.029 C 
HETATM    6  C5  UNL     1      21.568   1.330  48.330  1.00  0.00     0.082 C 
HETATM    7  N3  UNL     1      21.262   1.133  49.573  1.00  0.00    -0.259 NA
HETATM    8  C6  UNL     1      22.300   1.454  50.480  1.00  0.00     0.114 C 
HETATM    9  C7  UNL     1      23.434   1.569  51.202  1.00  0.00    -0.000 C 
HETATM   10  C8  UNL     1      23.445   2.527  52.285  1.00  0.00     0.047 A 
HETATM   11  C9  UNL     1      24.423   2.721  53.330  1.00  0.00     0.050 A 
HETATM   12  C10 UNL     1      24.636   3.464  51.998  1.00  0.00     0.120 A 
HETATM   13  N4  UNL     1      25.739   3.005  51.298  1.00  0.00    -0.285 NA
HETATM   14  C11 UNL     1      26.591   3.050  50.342  1.00  0.00     0.112 C 
HETATM   15  C12 UNL     1      26.725   3.998  49.212  1.00  0.00     0.024 C 
HETATM   16  C13 UNL     1      26.286   5.265  49.068  1.00  0.00     0.075 C 
HETATM   17  C14 UNL     1      25.520   6.138  49.987  1.00  0.00     0.243 C 
HETATM   18  O1  UNL     1      25.615   7.346  49.615  1.00  0.00    -0.269 OA
HETATM   19  N5  UNL     1      24.734   5.840  51.166  1.00  0.00    -0.316 N 
HETATM   20  H15 UNL     1      24.702   6.752  51.727  1.00  0.00     0.165 HD
ENDROOT
BRANCH   1  21
HETATM   21  N1  UNL     1      23.539   5.220  53.079  1.00  0.00     0.115 N 
HETATM   22  H1  UNL     1      24.235   4.853  53.785  1.00  0.00     0.316 HD
HETATM   23  H2  UNL     1      23.576   6.260  53.102  1.00  0.00     0.316 HD
ENDBRANCH   1  21
TORSDOF 1
ENDMDL
MODEL 2
REMARK VINA RESULT:      -7.1      2.427      4.796
REMARK  1 active torsions:
REMARK  status: ('A' for Active; 'I' for Inactive)
REMARK    1  A    between atoms: N1_1  and  C1_2 
ROOT
HETATM    1  C1  UNL     1      22.847   4.499  51.421  1.00  0.00     0.292 C 
HETATM    2  C2  UNL     1      23.911   4.103  52.432  1.00  0.00     0.149 C 
HETATM    3  N2  UNL     1      24.076   2.831  52.214  1.00  0.00    -0.297 NA
HETATM    4  C3  UNL     1      25.029   2.163  53.010  1.00  0.00     0.177 C 
HETATM    5  C4  UNL     1      25.716   1.003  52.418  1.00  0.00     0.029 C 
HETATM    6  C5  UNL     1      27.034   1.121  52.346  1.00  0.00     0.082 C 
HETATM    7  N3  UNL     1      27.395   2.286  51.907  1.00  0.00    -0.259 NA
HETATM    8  C6  UNL     1      26.455   2.891  51.040  1.00  0.00     0.114 C 
HETATM    9  C7  UNL     1      25.597   3.240  50.058  1.00  0.00    -0.000 C 
HETATM   10  C8  UNL     1      24.899   4.499  50.193  1.00  0.00     0.047 A 
HETATM   11  C9  UNL     1      24.093   5.210  49.229  1.00  0.00     0.050 A 
HETATM   12  C10 UNL     1      23.399   4.152  50.106  1.00  0.00     0.120 A 
HETATM   13  N4  UNL     1      22.972   3.052  49.383  1.00  0.00    -0.285 NA
HETATM   14  C11 UNL     1      22.349   1.941  49.246  1.00  0.00     0.112 C 
HETATM   15  C12 UNL     1      21.560   1.149  50.219  1.00  0.00     0.024 C 
HETATM   16  C13 UNL     1      20.939   1.519  51.358  1.00  0.00     0.075 C 
HETATM   17  C14 UNL     1      20.835   2.838  52.023  1.00  0.00     0.243 C 
HETATM   18  O1  UNL     1      19.889   2.823  52.867  1.00  0.00    -0.269 OA
HETATM   19  N5  UNL     1      21.599   4.058  51.866  1.00  0.00    -0.316 N 
HETATM   20  H15 UNL     1      20.961   4.843  52.219  1.00  0.00     0.165 HD
ENDROOT
BRANCH   1  21
HETATM   21  N1  UNL     1      22.881   5.975  51.473  1.00  0.00     0.115 N 
HETATM   22  H1  UNL     1      23.782   6.223  51.968  1.00  0.00     0.316 HD
HETATM   23  H2  UNL     1      22.947   6.323  50.493  1.00  0.00     0.316 HD
ENDBRANCH   1  21
TORSDOF 1
ENDMDL
MODEL 3
REMARK VINA RESULT:      -7.0      7.824     10.177
REMARK  1 active torsions:
REMARK  status: ('A' for Active; 'I' for Inactive)
REMARK    1  A    between atoms: N1_1  and  C1_2 
ROOT
HETATM    1  C1  UNL     1      34.454   5.679  48.361  1.00  0.00     0.292 C 
HETATM    2  C2  UNL     1      33.187   5.894  49.173  1.00  0.00     0.149 C 
HETATM    3  N2  UNL     1      32.443   6.616  48.387  1.00  0.00    -0.297 NA
HETATM    4  C3  UNL     1      31.169   6.980  48.867  1.00  0.00     0.177 C 
HETATM    5  C4  UNL     1      30.098   7.175  47.876  1.00  0.00     0.029 C 
HETATM    6  C5  UNL     1      29.050   6.379  48.031  1.00  0.00     0.082 C 
HETATM    7  N3  UNL     1      29.401   5.153  48.261  1.00  0.00    -0.259 NA
HETATM    8  C6  UNL     1      30.645   4.793  47.689  1.00  0.00     0.114 C 
HETATM    9  C7  UNL     1      31.708   4.519  46.904  1.00  0.00    -0.000 C 
HETATM   10  C8  UNL     1      32.911   4.042  47.548  1.00  0.00     0.047 A 
HETATM   11  C9  UNL     1      34.110   3.491  46.961  1.00  0.00     0.050 A 
HETATM   12  C10 UNL     1      34.025   5.021  47.121  1.00  0.00     0.120 A 
HETATM   13  N4  UNL     1      33.952   5.684  45.909  1.00  0.00    -0.285 NA
HETATM   14  C11 UNL     1      33.944   6.734  45.174  1.00  0.00     0.112 C 
HETATM   15  C12 UNL     1      34.057   8.166  45.536  1.00  0.00     0.024 C 
HETATM   16  C13 UNL     1      34.585   8.760  46.625  1.00  0.00     0.075 C 
HETATM   17  C14 UNL     1      35.229   8.186  47.829  1.00  0.00     0.243 C 
HETATM   18  O1  UNL     1      35.887   9.083  48.437  1.00  0.00    -0.269 OA
HETATM   19  N5  UNL     1      35.220   6.847  48.379  1.00  0.00    -0.316 N 
HETATM   20  H15 UNL     1      36.098   6.781  48.988  1.00  0.00     0.165 HD
ENDROOT
BRANCH   1  21
HETATM   21  N1  UNL     1      35.159   4.631  49.126  1.00  0.00     0.115 N 
HETATM   22  H1  UNL     1      35.099   4.927  50.139  1.00  0.00     0.316 HD
HETATM   23  H2  UNL     1      34.621   3.745  49.018  1.00  0.00     0.316 HD
ENDBRANCH   1  21
TORSDOF 1
ENDMDL
MODEL 4
REMARK VINA RESULT:      -6.7      1.692      1.876
REMARK  1 active torsions:
REMARK  status: ('A' for Active; 'I' for Inactive)
REMARK    1  A    between atoms: N1_1  and  C1_2 
ROOT
HETATM    1  C1  UNL     1      24.385   6.049  50.784  1.00  0.00     0.292 C 
HETATM    2  C2  UNL     1      23.317   6.148  49.706  1.00  0.00     0.149 C 
HETATM    3  N2  UNL     1      23.482   5.056  49.017  1.00  0.00    -0.297 NA
HETATM    4  C3  UNL     1      22.612   4.851  47.926  1.00  0.00     0.177 C 
HETATM    5  C4  UNL     1      22.296   3.460  47.562  1.00  0.00     0.029 C 
HETATM    6  C5  UNL     1      21.008   3.154  47.620  1.00  0.00     0.082 C 
HETATM    7  N3  UNL     1      20.449   3.604  48.698  1.00  0.00    -0.259 NA
HETATM    8  C6  UNL     1      21.330   3.715  49.801  1.00  0.00     0.114 C 
HETATM    9  C7  UNL     1      22.205   3.548  50.813  1.00  0.00    -0.000 C 
HETATM   10  C8  UNL     1      22.569   4.715  51.585  1.00  0.00     0.047 A 
HETATM   11  C9  UNL     1      23.310   4.803  52.822  1.00  0.00     0.050 A 
HETATM   12  C10 UNL     1      24.107   4.801  51.505  1.00  0.00     0.120 A 
HETATM   13  N4  UNL     1      24.869   3.657  51.341  1.00  0.00    -0.285 NA
HETATM   14  C11 UNL     1      25.744   2.938  50.742  1.00  0.00     0.112 C 
HETATM   15  C12 UNL     1      26.559   3.213  49.536  1.00  0.00     0.024 C 
HETATM   16  C13 UNL     1      26.921   4.380  48.965  1.00  0.00     0.075 C 
HETATM   17  C14 UNL     1      26.629   5.780  49.347  1.00  0.00     0.243 C 
HETATM   18  O1  UNL     1      27.433   6.565  48.761  1.00  0.00    -0.269 OA
HETATM   19  N5  UNL     1      25.632   6.349  50.230  1.00  0.00    -0.316 N 
HETATM   20  H15 UNL     1      26.018   7.304  50.521  1.00  0.00     0.165 HD
ENDROOT
BRANCH   1  21
HETATM   21  N1  UNL     1      24.004   7.125  51.721  1.00  0.00     0.115 N 
HETATM   22  H1  UNL     1      24.087   8.025  51.172  1.00  0.00     0.316 HD
HETATM   23  H2  UNL     1      23.001   6.990  51.966  1.00  0.00     0.316 HD
ENDBRANCH   1  21
TORSDOF 1
ENDMDL
MODEL 5
REMARK VINA RESULT:      -6.4      7.634      9.625
REMARK  1 active torsions:
REMARK  status: ('A' for Active; 'I' for Inactive)
REMARK    1  A    between atoms: N1_1  and  C1_2 
ROOT
HETATM    1  C1  UNL     1      32.657   6.709  48.707  1.00  0.00     0.292 C 
HETATM    2  C2  UNL     1      31.847   7.581  49.653  1.00  0.00     0.149 C 
HETATM    3  N2  UNL     1      31.488   8.584  48.906  1.00  0.00    -0.297 NA
HETATM    4  C3  UNL     1      30.700   9.583  49.513  1.00  0.00     0.177 C 
HETATM    5  C4  UNL     1      29.756  10.318  48.655  1.00  0.00     0.029 C 
HETATM    6  C5  UNL     1      28.485  10.215  49.018  1.00  0.00     0.082 C 
HETATM    7  N3  UNL     1      28.160   8.996  49.312  1.00  0.00    -0.259 NA
HETATM    8  C6  UNL     1      28.912   8.017  48.620  1.00  0.00     0.114 C 
HETATM    9  C7  UNL     1      29.525   7.206  47.732  1.00  0.00    -0.000 C 
HETATM   10  C8  UNL     1      30.374   6.159  48.255  1.00  0.00     0.047 A 
HETATM   11  C9  UNL     1      30.984   5.044  47.570  1.00  0.00     0.050 A 
HETATM   12  C10 UNL     1      31.753   6.377  47.599  1.00  0.00     0.120 A 
HETATM   13  N4  UNL     1      31.853   6.966  46.350  1.00  0.00    -0.285 NA
HETATM   14  C11 UNL     1      32.289   7.848  45.529  1.00  0.00     0.112 C 
HETATM   15  C12 UNL     1      33.203   8.995  45.740  1.00  0.00     0.024 C 
HETATM   16  C13 UNL     1      34.132   9.217  46.692  1.00  0.00     0.075 C 
HETATM   17  C14 UNL     1      34.552   8.396  47.850  1.00  0.00     0.243 C 
HETATM   18  O1  UNL     1      35.674   8.799  48.282  1.00  0.00    -0.269 OA
HETATM   19  N5  UNL     1      33.919   7.278  48.518  1.00  0.00    -0.316 N 
HETATM   20  H15 UNL     1      34.711   6.752  49.011  1.00  0.00     0.165 HD
ENDROOT
BRANCH   1  21
HETATM   21  N1  UNL     1      32.806   5.452  49.467  1.00  0.00     0.115 N 
HETATM   22  H1  UNL     1      33.790   5.115  49.274  1.00  0.00     0.316 HD
HETATM   23  H2  UNL     1      32.740   5.686  50.480  1.00  0.00     0.316 HD
ENDBRANCH   1  21
TORSDOF 1
ENDMDL
MODEL 6
REMARK VINA RESULT:      -6.4      7.892     10.426
REMARK  1 active torsions:
REMARK  status: ('A' for Active; 'I' for Inactive)
REMARK    1  A    between atoms: N1_1  and  C1_2 
ROOT
HETATM    1  C1  UNL     1      33.903   7.254  46.172  1.00  0.00     0.292 C 
HETATM    2  C2  UNL     1      32.579   7.999  46.099  1.00  0.00     0.149 C 
HETATM    3  N2  UNL     1      31.721   7.135  46.556  1.00  0.00    -0.297 NA
HETATM    4  C3  UNL     1      30.374   7.544  46.621  1.00  0.00     0.177 C 
HETATM    5  C4  UNL     1      29.532   6.949  47.673  1.00  0.00     0.029 C 
HETATM    6  C5  UNL     1      29.008   7.823  48.520  1.00  0.00     0.082 C 
HETATM    7  N3  UNL     1      29.875   8.703  48.911  1.00  0.00    -0.259 NA
HETATM    8  C6  UNL     1      31.210   8.232  48.918  1.00  0.00     0.114 C 
HETATM    9  C7  UNL     1      32.384   7.592  49.102  1.00  0.00    -0.000 C 
HETATM   10  C8  UNL     1      33.537   8.087  48.384  1.00  0.00     0.047 A 
HETATM   11  C9  UNL     1      34.931   7.739  48.533  1.00  0.00     0.050 A 
HETATM   12  C10 UNL     1      34.073   6.883  47.582  1.00  0.00     0.120 A 
HETATM   13  N4  UNL     1      33.887   5.591  48.043  1.00  0.00    -0.285 NA
HETATM   14  C11 UNL     1      33.484   4.380  47.931  1.00  0.00     0.112 C 
HETATM   15  C12 UNL     1      32.810   3.687  46.809  1.00  0.00     0.024 C 
HETATM   16  C13 UNL     1      32.781   3.968  45.490  1.00  0.00     0.075 C 
HETATM   17  C14 UNL     1      33.410   5.062  44.715  1.00  0.00     0.243 C 
HETATM   18  O1  UNL     1      33.424   4.767  43.482  1.00  0.00    -0.269 OA
HETATM   19  N5  UNL     1      33.973   6.331  45.126  1.00  0.00    -0.316 N 
HETATM   20  H15 UNL     1      34.651   6.610  44.345  1.00  0.00     0.165 HD
ENDROOT
BRANCH   1  21
HETATM   21  N1  UNL     1      34.893   8.324  45.936  1.00  0.00     0.115 N 
HETATM   22  H1  UNL     1      35.827   7.918  46.222  1.00  0.00     0.316 HD
HETATM   23  H2  UNL     1      34.923   8.506  44.911  1.00  0.00     0.316 HD
ENDBRANCH   1  21
TORSDOF 1
ENDMDL
MODEL 7
REMARK VINA RESULT:      -6.2      6.965      9.604
REMARK  1 active torsions:
REMARK  status: ('A' for Active; 'I' for Inactive)
REMARK    1  A    between atoms: N1_1  and  C1_2 
ROOT
HETATM    1  C1  UNL     1      30.141  10.116  49.091  1.00  0.00     0.292 C 
HETATM    2  C2  UNL     1      31.135   9.181  49.762  1.00  0.00     0.149 C 
HETATM    3  N2  UNL     1      30.941   8.047  49.154  1.00  0.00    -0.297 NA
HETATM    4  C3  UNL     1      31.740   6.959  49.558  1.00  0.00     0.177 C 
HETATM    5  C4  UNL     1      32.052   5.932  48.550  1.00  0.00     0.029 C 
HETATM    6  C5  UNL     1      33.345   5.765  48.314  1.00  0.00     0.082 C 
HETATM    7  N3  UNL     1      33.967   6.895  48.191  1.00  0.00    -0.259 NA
HETATM    8  C6  UNL     1      33.158   7.947  47.698  1.00  0.00     0.114 C 
HETATM    9  C7  UNL     1      32.352   8.782  47.008  1.00  0.00    -0.000 C 
HETATM   10  C8  UNL     1      32.023  10.051  47.618  1.00  0.00     0.047 A 
HETATM   11  C9  UNL     1      31.364  11.201  47.044  1.00  0.00     0.050 A 
HETATM   12  C10 UNL     1      30.482  10.102  47.664  1.00  0.00     0.120 A 
HETATM   13  N4  UNL     1      29.727   9.425  46.721  1.00  0.00    -0.285 NA
HETATM   14  C11 UNL     1      28.825   8.590  46.358  1.00  0.00     0.112 C 
HETATM   15  C12 UNL     1      27.930   7.726  47.162  1.00  0.00     0.024 C 
HETATM   16  C13 UNL     1      27.515   7.834  48.440  1.00  0.00     0.075 C 
HETATM   17  C14 UNL     1      27.812   8.851  49.475  1.00  0.00     0.243 C 
HETATM   18  O1  UNL     1      26.961   8.776  50.412  1.00  0.00    -0.269 OA
HETATM   19  N5  UNL     1      28.857   9.849  49.572  1.00  0.00    -0.316 N 
HETATM   20  H15 UNL     1      28.477  10.598  50.236  1.00  0.00     0.165 HD
ENDROOT
BRANCH   1  21
HETATM   21  N1  UNL     1      30.567  11.445  49.573  1.00  0.00     0.115 N 
HETATM   22  H1  UNL     1      30.146  12.142  48.898  1.00  0.00     0.316 HD
HETATM   23  H2  UNL     1      30.130  11.598  50.506  1.00  0.00     0.316 HD
ENDBRANCH   1  21
TORSDOF 1
ENDMDL
MODEL 8
REMARK VINA RESULT:      -6.2      7.584     10.118
REMARK  1 active torsions:
REMARK  status: ('A' for Active; 'I' for Inactive)
REMARK    1  A    between atoms: N1_1  and  C1_2 
ROOT
HETATM    1  C1  UNL     1      32.108   6.142  49.049  1.00  0.00     0.292 C 
HETATM    2  C2  UNL     1      32.231   7.655  48.971  1.00  0.00     0.149 C 
HETATM    3  N2  UNL     1      32.734   7.857  47.788  1.00  0.00    -0.297 NA
HETATM    4  C3  UNL     1      32.962   9.195  47.409  1.00  0.00     0.177 C 
HETATM    5  C4  UNL     1      32.875   9.521  45.976  1.00  0.00     0.029 C 
HETATM    6  C5  UNL     1      31.957  10.427  45.671  1.00  0.00     0.082 C 
HETATM    7  N3  UNL     1      30.834  10.205  46.277  1.00  0.00    -0.259 NA
HETATM    8  C6  UNL     1      30.594   8.840  46.564  1.00  0.00     0.114 C 
HETATM    9  C7  UNL     1      30.387   7.506  46.562  1.00  0.00    -0.000 C 
HETATM   10  C8  UNL     1      30.175   6.859  47.837  1.00  0.00     0.047 A 
HETATM   11  C9  UNL     1      29.740   5.511  48.122  1.00  0.00     0.050 A 
HETATM   12  C10 UNL     1      31.248   5.754  47.925  1.00  0.00     0.120 A 
HETATM   13  N4  UNL     1      31.741   5.160  46.776  1.00  0.00    -0.285 NA
HETATM   14  C11 UNL     1      32.681   4.804  45.981  1.00  0.00     0.112 C 
HETATM   15  C12 UNL     1      34.147   4.993  46.074  1.00  0.00     0.024 C 
HETATM   16  C13 UNL     1      34.941   5.210  47.143  1.00  0.00     0.075 C 
HETATM   17  C14 UNL     1      34.619   5.336  48.583  1.00  0.00     0.243 C 
HETATM   18  O1  UNL     1      35.671   5.188  49.276  1.00  0.00    -0.269 OA
HETATM   19  N5  UNL     1      33.370   5.585  49.272  1.00  0.00    -0.316 N 
HETATM   20  H15 UNL     1      33.509   5.207  50.264  1.00  0.00     0.165 HD
ENDROOT
BRANCH   1  21
HETATM   21  N1  UNL     1      31.276   5.943  50.253  1.00  0.00     0.115 N 
HETATM   22  H1  UNL     1      30.389   5.477  49.914  1.00  0.00     0.316 HD
HETATM   23  H2  UNL     1      31.775   5.271  50.873  1.00  0.00     0.316 HD
ENDBRANCH   1  21
TORSDOF 1
ENDMDL
MODEL 9
REMARK VINA RESULT:      -6.1      2.220      3.744
REMARK  1 active torsions:
REMARK  status: ('A' for Active; 'I' for Inactive)
REMARK    1  A    between atoms: N1_1  and  C1_2 
ROOT
HETATM    1  C1  UNL     1      23.925   6.387  50.640  1.00  0.00     0.292 C 
HETATM    2  C2  UNL     1      23.621   5.375  51.733  1.00  0.00     0.149 C 
HETATM    3  N2  UNL     1      22.791   4.552  51.160  1.00  0.00    -0.297 NA
HETATM    4  C3  UNL     1      22.323   3.473  51.936  1.00  0.00     0.177 C 
HETATM    5  C4  UNL     1      21.973   2.229  51.230  1.00  0.00     0.029 C 
HETATM    6  C5  UNL     1      22.666   1.165  51.610  1.00  0.00     0.082 C 
HETATM    7  N3  UNL     1      23.930   1.423  51.724  1.00  0.00    -0.259 NA
HETATM    8  C6  UNL     1      24.388   2.452  50.867  1.00  0.00     0.114 C 
HETATM    9  C7  UNL     1      24.730   3.267  49.847  1.00  0.00    -0.000 C 
HETATM   10  C8  UNL     1      25.357   4.528  50.178  1.00  0.00     0.047 A 
HETATM   11  C9  UNL     1      25.998   5.490  49.312  1.00  0.00     0.050 A 
HETATM   12  C10 UNL     1      24.477   5.612  49.522  1.00  0.00     0.120 A 
HETATM   13  N4  UNL     1      23.753   5.333  48.376  1.00  0.00    -0.285 NA
HETATM   14  C11 UNL     1      22.674   5.270  47.688  1.00  0.00     0.112 C 
HETATM   15  C12 UNL     1      21.280   5.620  48.044  1.00  0.00     0.024 C 
HETATM   16  C13 UNL     1      20.794   6.449  48.991  1.00  0.00     0.075 C 
HETATM   17  C14 UNL     1      21.487   7.287  49.996  1.00  0.00     0.243 C 
HETATM   18  O1  UNL     1      20.691   8.164  50.451  1.00  0.00    -0.269 OA
HETATM   19  N5  UNL     1      22.843   7.260  50.503  1.00  0.00    -0.316 N 
HETATM   20  H15 UNL     1      23.026   8.243  50.886  1.00  0.00     0.165 HD
ENDROOT
BRANCH   1  21
HETATM   21  N1  UNL     1      25.075   7.131  51.194  1.00  0.00     0.115 N 
HETATM   22  H1  UNL     1      24.849   7.288  52.215  1.00  0.00     0.316 HD
HETATM   23  H2  UNL     1      25.908   6.508  51.142  1.00  0.00     0.316 HD
ENDBRANCH   1  21
TORSDOF 1
ENDMDL
