MODEL 1
REMARK VINA RESULT:      -7.2      0.000      0.000
REMARK  7 active torsions:
REMARK  status: ('A' for Active; 'I' for Inactive)
REMARK    1  A    between atoms: C2_2  and  C3_3 
REMARK    2  A    between atoms: C2_2  and  S1_5 
REMARK    3  A    between atoms: S1_5  and  C5_6 
REMARK    4  A    between atoms: C6_7  and  C7_8 
REMARK    5  A    between atoms: C7_8  and  C8_9 
REMARK    6  A    between atoms: C8_9  and  N1_10 
REMARK    7  A    between atoms: N1_10  and  C9_11 
ROOT
HETATM    1  C9  UNL     1      26.859   1.904  53.042  1.00  0.00     0.041 A 
HETATM    2  C10 UNL     1      28.198   1.962  53.475  1.00  0.00     0.049 A 
HETATM    3  C11 UNL     1      28.689   0.977  54.347  1.00  0.00     0.122 A 
HETATM    4  N2  UNL     1      27.944  -0.053  54.824  1.00  0.00    -0.236 NA
HETATM    5  C12 UNL     1      26.633  -0.140  54.431  1.00  0.00     0.178 A 
HETATM    6  C13 UNL     1      26.164   0.842  53.550  1.00  0.00     0.035 A 
HETATM    7  C14 UNL     1      24.950   0.225  53.080  1.00  0.00     0.105 A 
HETATM    8  C15 UNL     1      23.917   0.839  52.303  1.00  0.00    -0.010 A 
HETATM    9  C16 UNL     1      22.792   0.353  52.866  1.00  0.00    -0.001 A 
HETATM   10  C17 UNL     1      23.097  -0.545  54.004  1.00  0.00     0.034 A 
HETATM   11  C18 UNL     1      24.433  -0.611  54.147  1.00  0.00     0.068 A 
HETATM   12  O1  UNL     1      25.609  -1.053  54.789  1.00  0.00    -0.295 OA
ENDROOT
BRANCH   1  13
HETATM   13  N1  UNL     1      26.347   2.876  52.179  1.00  0.00    -0.389 N 
HETATM   14  H14 UNL     1      25.735   3.661  52.450  1.00  0.00     0.159 HD
BRANCH  13  15
HETATM   15  C8  UNL     1      26.688   2.802  50.777  1.00  0.00     0.123 C 
BRANCH  15  16
HETATM   16  C7  UNL     1      26.051   3.887  49.967  1.00  0.00     0.047 C 
BRANCH  16  17
HETATM   17  C6  UNL     1      24.587   3.541  49.875  1.00  0.00    -0.018 C 
HETATM   18  C5  UNL     1      23.424   4.047  50.301  1.00  0.00     0.046 C 
BRANCH  18  19
HETATM   19  S1  UNL     1      21.822   3.297  49.962  1.00  0.00    -0.108 SA
BRANCH  19  20
HETATM   20  C2  UNL     1      21.929   2.028  48.713  1.00  0.00    -0.027 C 
HETATM   21  C1  UNL     1      22.396   2.130  47.494  1.00  0.00     0.026 C 
BRANCH  20  22
HETATM   22  C3  UNL     1      21.363   0.786  49.344  1.00  0.00     0.041 C 
HETATM   23  C4  UNL     1      20.228   1.175  50.288  1.00  0.00     0.010 C 
ENDBRANCH  20  22
ENDBRANCH  19  20
ENDBRANCH  18  19
ENDBRANCH  16  17
ENDBRANCH  15  16
ENDBRANCH  13  15
ENDBRANCH   1  13
TORSDOF 7
ENDMDL
MODEL 2
REMARK VINA RESULT:      -7.1      1.372      2.128
REMARK  7 active torsions:
REMARK  status: ('A' for Active; 'I' for Inactive)
REMARK    1  A    between atoms: C2_2  and  C3_3 
REMARK    2  A    between atoms: C2_2  and  S1_5 
REMARK    3  A    between atoms: S1_5  and  C5_6 
REMARK    4  A    between atoms: C6_7  and  C7_8 
REMARK    5  A    between atoms: C7_8  and  C8_9 
REMARK    6  A    between atoms: C8_9  and  N1_10 
REMARK    7  A    between atoms: N1_10  and  C9_11 
ROOT
HETATM    1  C9  UNL     1      26.946   1.872  52.917  1.00  0.00     0.041 A 
HETATM    2  C10 UNL     1      28.272   1.861  53.390  1.00  0.00     0.049 A 
HETATM    3  C11 UNL     1      28.676   0.877  54.306  1.00  0.00     0.122 A 
HETATM    4  N2  UNL     1      27.855  -0.090  54.790  1.00  0.00    -0.236 NA
HETATM    5  C12 UNL     1      26.553  -0.110  54.360  1.00  0.00     0.178 A 
HETATM    6  C13 UNL     1      26.172   0.871  53.436  1.00  0.00     0.035 A 
HETATM    7  C14 UNL     1      24.935   0.314  52.947  1.00  0.00     0.105 A 
HETATM    8  C15 UNL     1      23.966   0.965  52.120  1.00  0.00    -0.010 A 
HETATM    9  C16 UNL     1      22.797   0.567  52.662  1.00  0.00    -0.001 A 
HETATM   10  C17 UNL     1      23.012  -0.311  53.837  1.00  0.00     0.034 A 
HETATM   11  C18 UNL     1      24.337  -0.454  54.023  1.00  0.00     0.068 A 
HETATM   12  O1  UNL     1      25.465  -0.946  54.714  1.00  0.00    -0.295 OA
ENDROOT
BRANCH   1  13
HETATM   13  N1  UNL     1      26.520   2.845  52.011  1.00  0.00    -0.389 N 
HETATM   14  H14 UNL     1      26.070   3.740  52.254  1.00  0.00     0.159 HD
BRANCH  13  15
HETATM   15  C8  UNL     1      26.714   2.604  50.599  1.00  0.00     0.123 C 
BRANCH  15  16
HETATM   16  C7  UNL     1      26.351   3.784  49.754  1.00  0.00     0.047 C 
BRANCH  16  17
HETATM   17  C6  UNL     1      24.856   3.940  49.865  1.00  0.00    -0.018 C 
HETATM   18  C5  UNL     1      23.768   3.520  49.210  1.00  0.00     0.046 C 
BRANCH  18  19
HETATM   19  S1  UNL     1      22.085   3.949  49.688  1.00  0.00    -0.108 SA
BRANCH  19  20
HETATM   20  C2  UNL     1      22.049   5.171  50.986  1.00  0.00    -0.027 C 
HETATM   21  C1  UNL     1      22.018   6.475  50.869  1.00  0.00     0.026 C 
BRANCH  20  22
HETATM   22  C3  UNL     1      22.062   4.397  52.276  1.00  0.00     0.041 C 
HETATM   23  C4  UNL     1      23.412   4.588  52.961  1.00  0.00     0.010 C 
ENDBRANCH  20  22
ENDBRANCH  19  20
ENDBRANCH  18  19
ENDBRANCH  16  17
ENDBRANCH  15  16
ENDBRANCH  13  15
ENDBRANCH   1  13
TORSDOF 7
ENDMDL
MODEL 3
REMARK VINA RESULT:      -7.0      2.005      4.475
REMARK  7 active torsions:
REMARK  status: ('A' for Active; 'I' for Inactive)
REMARK    1  A    between atoms: C2_2  and  C3_3 
REMARK    2  A    between atoms: C2_2  and  S1_5 
REMARK    3  A    between atoms: S1_5  and  C5_6 
REMARK    4  A    between atoms: C6_7  and  C7_8 
REMARK    5  A    between atoms: C7_8  and  C8_9 
REMARK    6  A    between atoms: C8_9  and  N1_10 
REMARK    7  A    between atoms: N1_10  and  C9_11 
ROOT
HETATM    1  C9  UNL     1      22.446   0.124  52.911  1.00  0.00     0.041 A 
HETATM    2  C10 UNL     1      21.335  -0.303  53.664  1.00  0.00     0.049 A 
HETATM    3  C11 UNL     1      21.537  -1.022  54.853  1.00  0.00     0.122 A 
HETATM    4  N2  UNL     1      22.760  -1.353  55.341  1.00  0.00    -0.236 NA
HETATM    5  C12 UNL     1      23.867  -0.962  54.632  1.00  0.00     0.178 A 
HETATM    6  C13 UNL     1      23.648  -0.234  53.457  1.00  0.00     0.035 A 
HETATM    7  C14 UNL     1      24.963   0.310  53.227  1.00  0.00     0.105 A 
HETATM    8  C15 UNL     1      25.423   0.983  52.051  1.00  0.00    -0.010 A 
HETATM    9  C16 UNL     1      26.666   0.486  51.891  1.00  0.00    -0.001 A 
HETATM   10  C17 UNL     1      26.994  -0.511  52.937  1.00  0.00     0.034 A 
HETATM   11  C18 UNL     1      25.932  -0.632  53.755  1.00  0.00     0.068 A 
HETATM   12  O1  UNL     1      25.248  -1.195  54.853  1.00  0.00    -0.295 OA
ENDROOT
BRANCH   1  13
HETATM   13  N1  UNL     1      22.270   0.835  51.722  1.00  0.00    -0.389 N 
HETATM   14  H14 UNL     1      22.872   1.600  51.381  1.00  0.00     0.159 HD
BRANCH  13  15
HETATM   15  C8  UNL     1      21.153   0.491  50.872  1.00  0.00     0.123 C 
BRANCH  15  16
HETATM   16  C7  UNL     1      21.424   0.752  49.424  1.00  0.00     0.047 C 
BRANCH  16  17
HETATM   17  C6  UNL     1      22.081   2.106  49.354  1.00  0.00    -0.018 C 
HETATM   18  C5  UNL     1      22.803   2.810  48.474  1.00  0.00     0.046 C 
BRANCH  18  19
HETATM   19  S1  UNL     1      23.425   4.471  48.792  1.00  0.00    -0.108 SA
BRANCH  19  20
HETATM   20  C2  UNL     1      24.434   4.538  50.260  1.00  0.00    -0.027 C 
HETATM   21  C1  UNL     1      24.058   4.404  51.507  1.00  0.00     0.026 C 
BRANCH  20  22
HETATM   22  C3  UNL     1      25.838   4.785  49.780  1.00  0.00     0.041 C 
HETATM   23  C4  UNL     1      26.522   3.446  49.517  1.00  0.00     0.010 C 
ENDBRANCH  20  22
ENDBRANCH  19  20
ENDBRANCH  18  19
ENDBRANCH  16  17
ENDBRANCH  15  16
ENDBRANCH  13  15
ENDBRANCH   1  13
TORSDOF 7
ENDMDL
MODEL 4
REMARK VINA RESULT:      -7.0      2.392      4.219
REMARK  7 active torsions:
REMARK  status: ('A' for Active; 'I' for Inactive)
REMARK    1  A    between atoms: C2_2  and  C3_3 
REMARK    2  A    between atoms: C2_2  and  S1_5 
REMARK    3  A    between atoms: S1_5  and  C5_6 
REMARK    4  A    between atoms: C6_7  and  C7_8 
REMARK    5  A    between atoms: C7_8  and  C8_9 
REMARK    6  A    between atoms: C8_9  and  N1_10 
REMARK    7  A    between atoms: N1_10  and  C9_11 
ROOT
HETATM    1  C9  UNL     1      26.714   1.913  53.070  1.00  0.00     0.041 A 
HETATM    2  C10 UNL     1      28.066   1.960  53.464  1.00  0.00     0.049 A 
HETATM    3  C11 UNL     1      28.586   0.948  54.286  1.00  0.00     0.122 A 
HETATM    4  N2  UNL     1      27.859  -0.101  54.749  1.00  0.00    -0.236 NA
HETATM    5  C12 UNL     1      26.537  -0.180  54.394  1.00  0.00     0.178 A 
HETATM    6  C13 UNL     1      26.038   0.831  53.562  1.00  0.00     0.035 A 
HETATM    7  C14 UNL     1      24.811   0.226  53.108  1.00  0.00     0.105 A 
HETATM    8  C15 UNL     1      23.753   0.863  52.385  1.00  0.00    -0.010 A 
HETATM    9  C16 UNL     1      22.648   0.353  52.965  1.00  0.00    -0.001 A 
HETATM   10  C17 UNL     1      22.990  -0.583  54.062  1.00  0.00     0.034 A 
HETATM   11  C18 UNL     1      24.330  -0.648  54.161  1.00  0.00     0.068 A 
HETATM   12  O1  UNL     1      25.527  -1.108  54.751  1.00  0.00    -0.295 OA
ENDROOT
BRANCH   1  13
HETATM   13  N1  UNL     1      26.173   2.912  52.258  1.00  0.00    -0.389 N 
HETATM   14  H14 UNL     1      25.526   3.654  52.565  1.00  0.00     0.159 HD
BRANCH  13  15
HETATM   15  C8  UNL     1      26.534   2.934  50.859  1.00  0.00     0.123 C 
BRANCH  15  16
HETATM   16  C7  UNL     1      25.361   3.176  49.961  1.00  0.00     0.047 C 
BRANCH  16  17
HETATM   17  C6  UNL     1      25.633   4.478  49.253  1.00  0.00    -0.018 C 
HETATM   18  C5  UNL     1      25.772   5.769  49.577  1.00  0.00     0.046 C 
BRANCH  18  19
HETATM   19  S1  UNL     1      26.108   7.071  48.378  1.00  0.00    -0.108 SA
BRANCH  19  20
HETATM   20  C2  UNL     1      27.765   7.713  48.534  1.00  0.00    -0.027 C 
HETATM   21  C1  UNL     1      28.192   8.667  49.320  1.00  0.00     0.026 C 
BRANCH  20  22
HETATM   22  C3  UNL     1      28.600   6.926  47.560  1.00  0.00     0.041 C 
HETATM   23  C4  UNL     1      29.168   5.697  48.265  1.00  0.00     0.010 C 
ENDBRANCH  20  22
ENDBRANCH  19  20
ENDBRANCH  18  19
ENDBRANCH  16  17
ENDBRANCH  15  16
ENDBRANCH  13  15
ENDBRANCH   1  13
TORSDOF 7
ENDMDL
MODEL 5
REMARK VINA RESULT:      -6.9      1.555      2.307
REMARK  7 active torsions:
REMARK  status: ('A' for Active; 'I' for Inactive)
REMARK    1  A    between atoms: C2_2  and  C3_3 
REMARK    2  A    between atoms: C2_2  and  S1_5 
REMARK    3  A    between atoms: S1_5  and  C5_6 
REMARK    4  A    between atoms: C6_7  and  C7_8 
REMARK    5  A    between atoms: C7_8  and  C8_9 
REMARK    6  A    between atoms: C8_9  and  N1_10 
REMARK    7  A    between atoms: N1_10  and  C9_11 
ROOT
HETATM    1  C9  UNL     1      25.983   1.362  52.776  1.00  0.00     0.041 A 
HETATM    2  C10 UNL     1      27.290   1.883  52.837  1.00  0.00     0.049 A 
HETATM    3  C11 UNL     1      28.153   1.477  53.867  1.00  0.00     0.122 A 
HETATM    4  N2  UNL     1      27.807   0.597  54.842  1.00  0.00    -0.236 NA
HETATM    5  C12 UNL     1      26.541   0.073  54.822  1.00  0.00     0.178 A 
HETATM    6  C13 UNL     1      25.698   0.478  53.780  1.00  0.00     0.035 A 
HETATM    7  C14 UNL     1      24.668  -0.526  53.860  1.00  0.00     0.105 A 
HETATM    8  C15 UNL     1      23.411  -0.527  53.175  1.00  0.00    -0.010 A 
HETATM    9  C16 UNL     1      22.558  -0.971  54.119  1.00  0.00    -0.001 A 
HETATM   10  C17 UNL     1      23.253  -1.232  55.402  1.00  0.00     0.034 A 
HETATM   11  C18 UNL     1      24.557  -0.940  55.245  1.00  0.00     0.068 A 
HETATM   12  O1  UNL     1      25.882  -0.811  55.713  1.00  0.00    -0.295 OA
ENDROOT
BRANCH   1  13
HETATM   13  N1  UNL     1      25.104   1.757  51.764  1.00  0.00    -0.389 N 
HETATM   14  H14 UNL     1      24.689   1.139  51.051  1.00  0.00     0.159 HD
BRANCH  13  15
HETATM   15  C8  UNL     1      24.726   3.149  51.684  1.00  0.00     0.123 C 
BRANCH  15  16
HETATM   16  C7  UNL     1      23.734   3.542  52.734  1.00  0.00     0.047 C 
BRANCH  16  17
HETATM   17  C6  UNL     1      22.390   3.069  52.243  1.00  0.00    -0.018 C 
HETATM   18  C5  UNL     1      21.142   3.546  52.170  1.00  0.00     0.046 C 
BRANCH  18  19
HETATM   19  S1  UNL     1      19.757   2.623  51.480  1.00  0.00    -0.108 SA
BRANCH  19  20
HETATM   20  C2  UNL     1      20.016   0.861  51.570  1.00  0.00    -0.027 C 
HETATM   21  C1  UNL     1      19.450  -0.000  52.377  1.00  0.00     0.026 C 
BRANCH  20  22
HETATM   22  C3  UNL     1      21.040   0.545  50.514  1.00  0.00     0.041 C 
HETATM   23  C4  UNL     1      20.662   1.259  49.220  1.00  0.00     0.010 C 
ENDBRANCH  20  22
ENDBRANCH  19  20
ENDBRANCH  18  19
ENDBRANCH  16  17
ENDBRANCH  15  16
ENDBRANCH  13  15
ENDBRANCH   1  13
TORSDOF 7
ENDMDL
MODEL 6
REMARK VINA RESULT:      -6.8      1.901      3.935
REMARK  7 active torsions:
REMARK  status: ('A' for Active; 'I' for Inactive)
REMARK    1  A    between atoms: C2_2  and  C3_3 
REMARK    2  A    between atoms: C2_2  and  S1_5 
REMARK    3  A    between atoms: S1_5  and  C5_6 
REMARK    4  A    between atoms: C6_7  and  C7_8 
REMARK    5  A    between atoms: C7_8  and  C8_9 
REMARK    6  A    between atoms: C8_9  and  N1_10 
REMARK    7  A    between atoms: N1_10  and  C9_11 
ROOT
HETATM    1  C9  UNL     1      25.241   1.988  52.288  1.00  0.00     0.041 A 
HETATM    2  C10 UNL     1      23.902   1.642  52.019  1.00  0.00     0.049 A 
HETATM    3  C11 UNL     1      23.326   0.538  52.669  1.00  0.00     0.122 A 
HETATM    4  N2  UNL     1      23.986  -0.247  53.558  1.00  0.00    -0.236 NA
HETATM    5  C12 UNL     1      25.294   0.053  53.842  1.00  0.00     0.178 A 
HETATM    6  C13 UNL     1      25.848   1.165  53.196  1.00  0.00     0.035 A 
HETATM    7  C14 UNL     1      27.022   1.387  54.002  1.00  0.00     0.105 A 
HETATM    8  C15 UNL     1      28.110   2.270  53.712  1.00  0.00    -0.010 A 
HETATM    9  C16 UNL     1      29.187   1.548  54.081  1.00  0.00    -0.001 A 
HETATM   10  C17 UNL     1      28.798   0.208  54.582  1.00  0.00     0.034 A 
HETATM   11  C18 UNL     1      27.458   0.103  54.516  1.00  0.00     0.068 A 
HETATM   12  O1  UNL     1      26.242  -0.596  54.672  1.00  0.00    -0.295 OA
ENDROOT
BRANCH   1  13
HETATM   13  N1  UNL     1      25.837   3.078  51.650  1.00  0.00    -0.389 N 
HETATM   14  H14 UNL     1      25.859   4.046  52.004  1.00  0.00     0.159 HD
BRANCH  13  15
HETATM   15  C8  UNL     1      26.488   2.859  50.378  1.00  0.00     0.123 C 
BRANCH  15  16
HETATM   16  C7  UNL     1      26.346   4.022  49.447  1.00  0.00     0.047 C 
BRANCH  16  17
HETATM   17  C6  UNL     1      24.903   4.451  49.524  1.00  0.00    -0.018 C 
HETATM   18  C5  UNL     1      23.736   4.094  48.976  1.00  0.00     0.046 C 
BRANCH  18  19
HETATM   19  S1  UNL     1      22.167   4.896  49.352  1.00  0.00    -0.108 SA
BRANCH  19  20
HETATM   20  C2  UNL     1      22.148   5.590  50.995  1.00  0.00    -0.027 C 
HETATM   21  C1  UNL     1      22.250   4.964  52.139  1.00  0.00     0.026 C 
BRANCH  20  22
HETATM   22  C3  UNL     1      21.985   7.074  50.808  1.00  0.00     0.041 C 
HETATM   23  C4  UNL     1      23.361   7.714  50.648  1.00  0.00     0.010 C 
ENDBRANCH  20  22
ENDBRANCH  19  20
ENDBRANCH  18  19
ENDBRANCH  16  17
ENDBRANCH  15  16
ENDBRANCH  13  15
ENDBRANCH   1  13
TORSDOF 7
ENDMDL
MODEL 7
REMARK VINA RESULT:      -6.8      1.351      3.133
REMARK  7 active torsions:
REMARK  status: ('A' for Active; 'I' for Inactive)
REMARK    1  A    between atoms: C2_2  and  C3_3 
REMARK    2  A    between atoms: C2_2  and  S1_5 
REMARK    3  A    between atoms: S1_5  and  C5_6 
REMARK    4  A    between atoms: C6_7  and  C7_8 
REMARK    5  A    between atoms: C7_8  and  C8_9 
REMARK    6  A    between atoms: C8_9  and  N1_10 
REMARK    7  A    between atoms: N1_10  and  C9_11 
ROOT
HETATM    1  C9  UNL     1      25.194   1.982  52.404  1.00  0.00     0.041 A 
HETATM    2  C10 UNL     1      23.855   1.631  52.147  1.00  0.00     0.049 A 
HETATM    3  C11 UNL     1      23.303   0.496  52.763  1.00  0.00     0.122 A 
HETATM    4  N2  UNL     1      23.990  -0.317  53.606  1.00  0.00    -0.236 NA
HETATM    5  C12 UNL     1      25.299  -0.014  53.876  1.00  0.00     0.178 A 
HETATM    6  C13 UNL     1      25.829   1.129  53.265  1.00  0.00     0.035 A 
HETATM    7  C14 UNL     1      27.016   1.332  54.055  1.00  0.00     0.105 A 
HETATM    8  C15 UNL     1      28.089   2.239  53.780  1.00  0.00    -0.010 A 
HETATM    9  C16 UNL     1      29.180   1.514  54.098  1.00  0.00    -0.001 A 
HETATM   10  C17 UNL     1      28.816   0.151  54.551  1.00  0.00     0.034 A 
HETATM   11  C18 UNL     1      27.476   0.033  54.508  1.00  0.00     0.068 A 
HETATM   12  O1  UNL     1      26.271  -0.685  54.659  1.00  0.00    -0.295 OA
ENDROOT
BRANCH   1  13
HETATM   13  N1  UNL     1      25.766   3.103  51.798  1.00  0.00    -0.389 N 
HETATM   14  H14 UNL     1      25.679   4.077  52.126  1.00  0.00     0.159 HD
BRANCH  13  15
HETATM   15  C8  UNL     1      26.556   2.913  50.603  1.00  0.00     0.123 C 
BRANCH  15  16
HETATM   16  C7  UNL     1      26.324   3.979  49.579  1.00  0.00     0.047 C 
BRANCH  16  17
HETATM   17  C6  UNL     1      24.854   3.937  49.251  1.00  0.00    -0.018 C 
HETATM   18  C5  UNL     1      23.871   4.812  49.003  1.00  0.00     0.046 C 
BRANCH  18  19
HETATM   19  S1  UNL     1      22.174   4.332  48.638  1.00  0.00    -0.108 SA
BRANCH  19  20
HETATM   20  C2  UNL     1      22.065   3.311  47.181  1.00  0.00    -0.027 C 
HETATM   21  C1  UNL     1      21.800   3.678  45.953  1.00  0.00     0.026 C 
BRANCH  20  22
HETATM   22  C3  UNL     1      22.343   1.907  47.645  1.00  0.00     0.041 C 
HETATM   23  C4  UNL     1      21.708   1.697  49.017  1.00  0.00     0.010 C 
ENDBRANCH  20  22
ENDBRANCH  19  20
ENDBRANCH  18  19
ENDBRANCH  16  17
ENDBRANCH  15  16
ENDBRANCH  13  15
ENDBRANCH   1  13
TORSDOF 7
ENDMDL
MODEL 8
REMARK VINA RESULT:      -6.5      2.231      3.309
REMARK  7 active torsions:
REMARK  status: ('A' for Active; 'I' for Inactive)
REMARK    1  A    between atoms: C2_2  and  C3_3 
REMARK    2  A    between atoms: C2_2  and  S1_5 
REMARK    3  A    between atoms: S1_5  and  C5_6 
REMARK    4  A    between atoms: C6_7  and  C7_8 
REMARK    5  A    between atoms: C7_8  and  C8_9 
REMARK    6  A    between atoms: C8_9  and  N1_10 
REMARK    7  A    between atoms: N1_10  and  C9_11 
ROOT
HETATM    1  C9  UNL     1      24.128  -0.011  53.489  1.00  0.00     0.041 A 
HETATM    2  C10 UNL     1      25.076  -0.396  54.458  1.00  0.00     0.049 A 
HETATM    3  C11 UNL     1      24.670  -1.165  55.560  1.00  0.00     0.122 A 
HETATM    4  N2  UNL     1      23.392  -1.571  55.772  1.00  0.00    -0.236 NA
HETATM    5  C12 UNL     1      22.437  -1.210  54.856  1.00  0.00     0.178 A 
HETATM    6  C13 UNL     1      22.862  -0.455  53.755  1.00  0.00     0.035 A 
HETATM    7  C14 UNL     1      21.735  -0.610  52.871  1.00  0.00     0.105 A 
HETATM    8  C15 UNL     1      21.489   0.106  51.656  1.00  0.00    -0.010 A 
HETATM    9  C16 UNL     1      20.165   0.351  51.718  1.00  0.00    -0.001 A 
HETATM   10  C17 UNL     1      19.570  -0.181  52.966  1.00  0.00     0.034 A 
HETATM   11  C18 UNL     1      20.546  -0.761  53.688  1.00  0.00     0.068 A 
HETATM   12  O1  UNL     1      21.038  -1.434  54.826  1.00  0.00    -0.295 OA
ENDROOT
BRANCH   1  13
HETATM   13  N1  UNL     1      24.508   0.759  52.388  1.00  0.00    -0.389 N 
HETATM   14  H14 UNL     1      24.381   0.500  51.398  1.00  0.00     0.159 HD
BRANCH  13  15
HETATM   15  C8  UNL     1      25.136   2.038  52.625  1.00  0.00     0.123 C 
BRANCH  15  16
HETATM   16  C7  UNL     1      24.174   3.076  53.112  1.00  0.00     0.047 C 
BRANCH  16  17
HETATM   17  C6  UNL     1      23.664   3.788  51.886  1.00  0.00    -0.018 C 
HETATM   18  C5  UNL     1      23.863   3.743  50.563  1.00  0.00     0.046 C 
BRANCH  18  19
HETATM   19  S1  UNL     1      23.016   4.814  49.388  1.00  0.00    -0.108 SA
BRANCH  19  20
HETATM   20  C2  UNL     1      22.493   3.927  47.932  1.00  0.00    -0.027 C 
HETATM   21  C1  UNL     1      22.002   4.414  46.821  1.00  0.00     0.026 C 
BRANCH  20  22
HETATM   22  C3  UNL     1      22.729   2.472  48.234  1.00  0.00     0.041 C 
HETATM   23  C4  UNL     1      21.384   1.768  48.391  1.00  0.00     0.010 C 
ENDBRANCH  20  22
ENDBRANCH  19  20
ENDBRANCH  18  19
ENDBRANCH  16  17
ENDBRANCH  15  16
ENDBRANCH  13  15
ENDBRANCH   1  13
TORSDOF 7
ENDMDL
MODEL 9
REMARK VINA RESULT:      -6.3      1.674      2.228
REMARK  7 active torsions:
REMARK  status: ('A' for Active; 'I' for Inactive)
REMARK    1  A    between atoms: C2_2  and  C3_3 
REMARK    2  A    between atoms: C2_2  and  S1_5 
REMARK    3  A    between atoms: S1_5  and  C5_6 
REMARK    4  A    between atoms: C6_7  and  C7_8 
REMARK    5  A    between atoms: C7_8  and  C8_9 
REMARK    6  A    between atoms: C8_9  and  N1_10 
REMARK    7  A    between atoms: N1_10  and  C9_11 
ROOT
HETATM    1  C9  UNL     1      25.424   1.001  52.515  1.00  0.00     0.041 A 
HETATM    2  C10 UNL     1      26.814   1.213  52.591  1.00  0.00     0.049 A 
HETATM    3  C11 UNL     1      27.563   0.563  53.585  1.00  0.00     0.122 A 
HETATM    4  N2  UNL     1      27.029  -0.274  54.511  1.00  0.00    -0.236 NA
HETATM    5  C12 UNL     1      25.677  -0.501  54.476  1.00  0.00     0.178 A 
HETATM    6  C13 UNL     1      24.948   0.144  53.469  1.00  0.00     0.035 A 
HETATM    7  C14 UNL     1      23.719  -0.608  53.502  1.00  0.00     0.105 A 
HETATM    8  C15 UNL     1      22.495  -0.287  52.834  1.00  0.00    -0.010 A 
HETATM    9  C16 UNL     1      21.562  -0.586  53.760  1.00  0.00    -0.001 A 
HETATM   10  C17 UNL     1      22.179  -1.072  55.017  1.00  0.00     0.034 A 
HETATM   11  C18 UNL     1      23.516  -1.069  54.862  1.00  0.00     0.068 A 
HETATM   12  O1  UNL     1      24.836  -1.267  55.321  1.00  0.00    -0.295 OA
ENDROOT
BRANCH   1  13
HETATM   13  N1  UNL     1      24.657   1.642  51.539  1.00  0.00    -0.389 N 
HETATM   14  H14 UNL     1      24.113   1.176  50.798  1.00  0.00     0.159 HD
BRANCH  13  15
HETATM   15  C8  UNL     1      24.603   3.086  51.544  1.00  0.00     0.123 C 
BRANCH  15  16
HETATM   16  C7  UNL     1      23.581   3.625  52.495  1.00  0.00     0.047 C 
BRANCH  16  17
HETATM   17  C6  UNL     1      22.237   3.239  51.933  1.00  0.00    -0.018 C 
HETATM   18  C5  UNL     1      21.001   3.013  52.394  1.00  0.00     0.046 C 
BRANCH  18  19
HETATM   19  S1  UNL     1      19.610   2.553  51.346  1.00  0.00    -0.108 SA
BRANCH  19  20
HETATM   20  C2  UNL     1      20.128   2.137  49.691  1.00  0.00    -0.027 C 
HETATM   21  C1  UNL     1      20.894   1.147  49.308  1.00  0.00     0.026 C 
BRANCH  20  22
HETATM   22  C3  UNL     1      19.501   3.171  48.796  1.00  0.00     0.041 C 
HETATM   23  C4  UNL     1      20.103   3.055  47.398  1.00  0.00     0.010 C 
ENDBRANCH  20  22
ENDBRANCH  19  20
ENDBRANCH  18  19
ENDBRANCH  16  17
ENDBRANCH  15  16
ENDBRANCH  13  15
ENDBRANCH   1  13
TORSDOF 7
ENDMDL
