MODEL 1
REMARK VINA RESULT:      -8.5      0.000      0.000
REMARK  4 active torsions:
REMARK  status: ('A' for Active; 'I' for Inactive)
REMARK    1  A    between atoms: N1_2  and  C2_3 
REMARK    2  A    between atoms: C2_3  and  N2_4 
REMARK    3  A    between atoms: N2_4  and  C3_5 
REMARK    4  A    between atoms: O1_21  and  C16_22 
ROOT
HETATM    1  C2  UNL     1      23.329   3.593  50.763  1.00  0.00     0.180 C 
HETATM    2  C9  UNL     1      24.483   3.554  51.792  1.00  0.00     0.141 C 
HETATM    3  N3  UNL     1      25.190   2.513  51.908  1.00  0.00    -0.292 NA
HETATM    4  C10 UNL     1      26.258   2.202  52.738  1.00  0.00     0.135 C 
HETATM    5  C11 UNL     1      27.165   1.166  52.122  1.00  0.00    -0.003 C 
HETATM    6  C12 UNL     1      26.129   0.301  52.025  1.00  0.00    -0.017 C 
HETATM    7  C13 UNL     1      25.015   0.274  53.177  1.00  0.00     0.003 A 
HETATM    8  C14 UNL     1      25.749   1.300  53.857  1.00  0.00     0.035 C 
HETATM    9  N4  UNL     1      23.465  -0.566  53.557  1.00  0.00     0.000 N 
HETATM   10  C15 UNL     1      24.163  -0.188  53.386  1.00  0.00    -0.007 A 
HETATM   11  O1  UNL     1      23.430   0.589  52.729  1.00  0.00     0.000 OA
HETATM   12  C16 UNL     1      22.486  -0.196  53.154  1.00  0.00     0.060 A 
HETATM   13  C17 UNL     1      21.323  -0.188  52.977  1.00  0.00    -0.143 C 
HETATM   14  C18 UNL     1      19.936  -0.160  52.745  1.00  0.00     0.248 C 
HETATM   15  O2  UNL     1      19.667   0.950  51.860  1.00  0.00    -0.378 OA
HETATM   16  C19 UNL     1      19.905   2.092  52.652  1.00  0.00     0.195 C 
HETATM   17  C20 UNL     1      19.907   3.370  51.883  1.00  0.00     0.194 C 
HETATM   18  O3  UNL     1      20.925   3.465  50.906  1.00  0.00    -0.384 OA
HETATM   19  C21 UNL     1      22.102   3.578  51.621  1.00  0.00     0.229 C 
HETATM   20  H13 UNL     1      24.349  -1.113  54.002  1.00  0.00     0.033 HD
ENDROOT
BRANCH   1  21
HETATM   21  N1  UNL     1      23.481   2.423  49.954  1.00  0.00    -0.273 NA
HETATM   22  C1  UNL     1      23.149   2.503  48.711  1.00  0.00     0.146 C 
ENDBRANCH   1  21
BRANCH   1  23
HETATM   23  N2  UNL     1      23.419   4.776  49.985  1.00  0.00    -0.356 N 
HETATM   24  H3  UNL     1      22.585   4.941  49.344  1.00  0.00     0.162 HD
BRANCH  23  25
HETATM   25  C3  UNL     1      24.411   5.790  49.895  1.00  0.00     0.031 A 
HETATM   26  C4  UNL     1      24.234   7.034  50.507  1.00  0.00     0.029 A 
HETATM   27  C5  UNL     1      25.211   7.993  50.434  1.00  0.00     0.004 A 
HETATM   28  C6  UNL     1      26.387   7.751  49.760  1.00  0.00     0.019 A 
HETATM   29  C7  UNL     1      26.641   6.559  49.133  1.00  0.00     0.013 A 
HETATM   30 BR1  UNL     1      28.263   6.217  48.196  1.00  0.00    -0.051 Br
HETATM   31  C8  UNL     1      25.622   5.641  49.242  1.00  0.00     0.048 A 
ENDBRANCH  23  25
ENDBRANCH   1  23
TORSDOF 4
ENDMDL
MODEL 2
REMARK VINA RESULT:      -8.2      2.575      5.287
REMARK  4 active torsions:
REMARK  status: ('A' for Active; 'I' for Inactive)
REMARK    1  A    between atoms: N1_2  and  C2_3 
REMARK    2  A    between atoms: C2_3  and  N2_4 
REMARK    3  A    between atoms: N2_4  and  C3_5 
REMARK    4  A    between atoms: O1_21  and  C16_22 
ROOT
HETATM    1  C2  UNL     1      24.528   2.854  51.819  1.00  0.00     0.180 C 
HETATM    2  C9  UNL     1      23.952   2.078  53.026  1.00  0.00     0.141 C 
HETATM    3  N3  UNL     1      23.054   1.208  52.847  1.00  0.00    -0.292 NA
HETATM    4  C10 UNL     1      22.364   0.388  53.729  1.00  0.00     0.135 C 
HETATM    5  C11 UNL     1      21.891  -0.880  53.064  1.00  0.00    -0.003 C 
HETATM    6  C12 UNL     1      21.198  -0.158  52.154  1.00  0.00    -0.017 C 
HETATM    7  C13 UNL     1      20.485   1.205  52.607  1.00  0.00     0.003 A 
HETATM    8  C14 UNL     1      20.970   0.971  53.935  1.00  0.00     0.035 C 
HETATM    9  N4  UNL     1      19.526   2.549  51.883  1.00  0.00     0.000 N 
HETATM   10  C15 UNL     1      19.958   1.944  52.208  1.00  0.00    -0.007 A 
HETATM   11  O1  UNL     1      20.945   2.615  51.825  1.00  0.00     0.000 OA
HETATM   12  C16 UNL     1      20.025   3.426  51.393  1.00  0.00     0.060 A 
HETATM   13  C17 UNL     1      20.093   4.452  50.823  1.00  0.00    -0.143 C 
HETATM   14  C18 UNL     1      20.199   5.674  50.135  1.00  0.00     0.248 C 
HETATM   15  O2  UNL     1      21.606   5.930  49.923  1.00  0.00    -0.378 OA
HETATM   16  C19 UNL     1      22.106   6.216  51.210  1.00  0.00     0.195 C 
HETATM   17  C20 UNL     1      23.594   6.296  51.275  1.00  0.00     0.194 C 
HETATM   18  O3  UNL     1      24.260   5.090  50.956  1.00  0.00    -0.384 OA
HETATM   19  C21 UNL     1      23.989   4.237  52.009  1.00  0.00     0.229 C 
HETATM   20  H13 UNL     1      18.854   1.730  52.278  1.00  0.00     0.033 HD
ENDROOT
BRANCH   1  21
HETATM   21  N1  UNL     1      24.029   2.195  50.651  1.00  0.00    -0.273 NA
HETATM   22  C1  UNL     1      23.630   2.929  49.669  1.00  0.00     0.146 C 
ENDBRANCH   1  21
BRANCH   1  23
HETATM   23  N2  UNL     1      25.946   2.826  51.862  1.00  0.00    -0.356 N 
HETATM   24  H3  UNL     1      26.414   3.649  51.371  1.00  0.00     0.162 HD
BRANCH  23  25
HETATM   25  C3  UNL     1      26.869   1.911  52.436  1.00  0.00     0.031 A 
HETATM   26  C4  UNL     1      27.945   2.355  53.211  1.00  0.00     0.029 A 
HETATM   27  C5  UNL     1      28.811   1.459  53.781  1.00  0.00     0.004 A 
HETATM   28  C6  UNL     1      28.641   0.104  53.605  1.00  0.00     0.019 A 
HETATM   29  C7  UNL     1      27.614  -0.415  52.860  1.00  0.00     0.013 A 
HETATM   30 BR1  UNL     1      27.373  -2.286  52.609  1.00  0.00    -0.051 Br
HETATM   31  C8  UNL     1      26.781   0.535  52.316  1.00  0.00     0.048 A 
ENDBRANCH  23  25
ENDBRANCH   1  23
TORSDOF 4
ENDMDL
MODEL 3
REMARK VINA RESULT:      -8.2      1.751      4.272
REMARK  4 active torsions:
REMARK  status: ('A' for Active; 'I' for Inactive)
REMARK    1  A    between atoms: N1_2  and  C2_3 
REMARK    2  A    between atoms: C2_3  and  N2_4 
REMARK    3  A    between atoms: N2_4  and  C3_5 
REMARK    4  A    between atoms: O1_21  and  C16_22 
ROOT
HETATM    1  C2  UNL     1      24.216   3.648  51.320  1.00  0.00     0.180 C 
HETATM    2  C9  UNL     1      23.267   3.023  50.270  1.00  0.00     0.141 C 
HETATM    3  N3  UNL     1      22.135   2.586  50.623  1.00  0.00    -0.292 NA
HETATM    4  C10 UNL     1      21.109   1.979  49.913  1.00  0.00     0.135 C 
HETATM    5  C11 UNL     1      19.766   2.209  50.558  1.00  0.00    -0.003 C 
HETATM    6  C12 UNL     1      20.206   1.637  51.702  1.00  0.00    -0.017 C 
HETATM    7  C13 UNL     1      21.215   0.394  51.625  1.00  0.00     0.003 A 
HETATM    8  C14 UNL     1      21.150   0.481  50.196  1.00  0.00     0.035 C 
HETATM    9  N4  UNL     1      22.136  -0.687  52.736  1.00  0.00     0.000 N 
HETATM   10  C15 UNL     1      21.721  -0.200  52.236  1.00  0.00    -0.007 A 
HETATM   11  O1  UNL     1      22.708   0.562  52.369  1.00  0.00     0.000 OA
HETATM   12  C16 UNL     1      23.141  -0.392  53.138  1.00  0.00     0.060 A 
HETATM   13  C17 UNL     1      24.132  -0.505  53.762  1.00  0.00    -0.143 C 
HETATM   14  C18 UNL     1      25.321  -0.614  54.505  1.00  0.00     0.248 C 
HETATM   15  O2  UNL     1      26.068   0.608  54.307  1.00  0.00    -0.378 OA
HETATM   16  C19 UNL     1      26.495   0.543  52.965  1.00  0.00     0.195 C 
HETATM   17  C20 UNL     1      27.101   1.809  52.462  1.00  0.00     0.194 C 
HETATM   18  O3  UNL     1      26.220   2.914  52.443  1.00  0.00    -0.384 OA
HETATM   19  C21 UNL     1      25.311   2.634  51.441  1.00  0.00     0.229 C 
HETATM   20  H13 UNL     1      21.125  -1.124  52.482  1.00  0.00     0.033 HD
ENDROOT
BRANCH   1  21
HETATM   21  N1  UNL     1      23.440   3.804  52.511  1.00  0.00    -0.273 NA
HETATM   22  C1  UNL     1      23.422   4.965  53.071  1.00  0.00     0.146 C 
ENDBRANCH   1  21
BRANCH   1  23
HETATM   23  N2  UNL     1      24.698   4.897  50.848  1.00  0.00    -0.356 N 
HETATM   24  H3  UNL     1      24.153   5.738  51.208  1.00  0.00     0.162 HD
BRANCH  23  25
HETATM   25  C3  UNL     1      25.773   5.245  49.987  1.00  0.00     0.031 A 
HETATM   26  C4  UNL     1      26.626   4.270  49.461  1.00  0.00     0.029 A 
HETATM   27  C5  UNL     1      27.643   4.618  48.609  1.00  0.00     0.004 A 
HETATM   28  C6  UNL     1      27.843   5.932  48.251  1.00  0.00     0.019 A 
HETATM   29  C7  UNL     1      27.053   6.949  48.720  1.00  0.00     0.013 A 
HETATM   30 BR1  UNL     1      27.324   8.768  48.232  1.00  0.00    -0.051 Br
HETATM   31  C8  UNL     1      26.053   6.534  49.570  1.00  0.00     0.048 A 
ENDBRANCH  23  25
ENDBRANCH   1  23
TORSDOF 4
ENDMDL
MODEL 4
REMARK VINA RESULT:      -8.0      3.045      5.426
REMARK  4 active torsions:
REMARK  status: ('A' for Active; 'I' for Inactive)
REMARK    1  A    between atoms: N1_2  and  C2_3 
REMARK    2  A    between atoms: C2_3  and  N2_4 
REMARK    3  A    between atoms: N2_4  and  C3_5 
REMARK    4  A    between atoms: O1_21  and  C16_22 
ROOT
HETATM    1  C2  UNL     1      24.236   2.200  52.053  1.00  0.00     0.180 C 
HETATM    2  C9  UNL     1      24.295   2.101  50.511  1.00  0.00     0.141 C 
HETATM    3  N3  UNL     1      23.430   2.694  49.806  1.00  0.00    -0.292 NA
HETATM    4  C10 UNL     1      23.238   2.765  48.433  1.00  0.00     0.135 C 
HETATM    5  C11 UNL     1      22.533   4.036  48.030  1.00  0.00    -0.003 C 
HETATM    6  C12 UNL     1      21.487   3.721  48.828  1.00  0.00    -0.017 C 
HETATM    7  C13 UNL     1      21.040   2.189  48.975  1.00  0.00     0.003 A 
HETATM    8  C14 UNL     1      22.087   1.838  48.060  1.00  0.00     0.035 C 
HETATM    9  N4  UNL     1      19.832   1.200  49.877  1.00  0.00     0.000 N 
HETATM   10  C15 UNL     1      20.376   1.645  49.471  1.00  0.00    -0.007 A 
HETATM   11  O1  UNL     1      21.064   1.520  50.512  1.00  0.00     0.000 OA
HETATM   12  C16 UNL     1      20.035   0.838  50.919  1.00  0.00     0.060 A 
HETATM   13  C17 UNL     1      19.815   0.287  51.935  1.00  0.00    -0.143 C 
HETATM   14  C18 UNL     1      19.571  -0.359  53.160  1.00  0.00     0.248 C 
HETATM   15  O2  UNL     1      20.717  -0.122  54.009  1.00  0.00    -0.378 OA
HETATM   16  C19 UNL     1      21.750  -0.881  53.420  1.00  0.00     0.195 C 
HETATM   17  C20 UNL     1      23.099  -0.616  53.999  1.00  0.00     0.194 C 
HETATM   18  O3  UNL     1      23.562   0.707  53.824  1.00  0.00    -0.384 OA
HETATM   19  C21 UNL     1      23.821   0.823  52.472  1.00  0.00     0.229 C 
HETATM   20  H13 UNL     1      19.432   1.519  48.869  1.00  0.00     0.033 HD
ENDROOT
BRANCH   1  21
HETATM   21  N1  UNL     1      23.265   3.209  52.347  1.00  0.00    -0.273 NA
HETATM   22  C1  UNL     1      23.664   4.266  52.967  1.00  0.00     0.146 C 
ENDBRANCH   1  21
BRANCH   1  23
HETATM   23  N2  UNL     1      25.514   2.548  52.561  1.00  0.00    -0.356 N 
HETATM   24  H3  UNL     1      25.652   3.592  52.718  1.00  0.00     0.162 HD
BRANCH  23  25
HETATM   25  C3  UNL     1      26.652   1.769  52.905  1.00  0.00     0.031 A 
HETATM   26  C4  UNL     1      27.774   2.350  53.503  1.00  0.00     0.029 A 
HETATM   27  C5  UNL     1      28.854   1.581  53.854  1.00  0.00     0.004 A 
HETATM   28  C6  UNL     1      28.856   0.223  53.628  1.00  0.00     0.019 A 
HETATM   29  C7  UNL     1      27.797  -0.425  53.047  1.00  0.00     0.013 A 
HETATM   30 BR1  UNL     1      27.793  -2.301  52.727  1.00  0.00    -0.051 Br
HETATM   31  C8  UNL     1      26.747   0.401  52.718  1.00  0.00     0.048 A 
ENDBRANCH  23  25
ENDBRANCH   1  23
TORSDOF 4
ENDMDL
MODEL 5
REMARK VINA RESULT:      -7.9      2.562      4.732
REMARK  4 active torsions:
REMARK  status: ('A' for Active; 'I' for Inactive)
REMARK    1  A    between atoms: N1_2  and  C2_3 
REMARK    2  A    between atoms: C2_3  and  N2_4 
REMARK    3  A    between atoms: N2_4  and  C3_5 
REMARK    4  A    between atoms: O1_21  and  C16_22 
ROOT
HETATM    1  C2  UNL     1      22.702   3.064  51.018  1.00  0.00     0.180 C 
HETATM    2  C9  UNL     1      21.919   1.732  51.045  1.00  0.00     0.141 C 
HETATM    3  N3  UNL     1      21.683   1.160  52.146  1.00  0.00    -0.292 NA
HETATM    4  C10 UNL     1      21.028  -0.023  52.460  1.00  0.00     0.135 C 
HETATM    5  C11 UNL     1      20.437   0.012  53.846  1.00  0.00    -0.003 C 
HETATM    6  C12 UNL     1      21.660   0.250  54.374  1.00  0.00    -0.017 C 
HETATM    7  C13 UNL     1      22.949  -0.445  53.721  1.00  0.00     0.003 A 
HETATM    8  C14 UNL     1      22.078  -1.083  52.778  1.00  0.00     0.035 C 
HETATM    9  N4  UNL     1      24.739  -0.469  53.930  1.00  0.00     0.000 N 
HETATM   10  C15 UNL     1      23.933  -0.458  53.836  1.00  0.00    -0.007 A 
HETATM   11  O1  UNL     1      24.158   0.559  53.140  1.00  0.00     0.000 OA
HETATM   12  C16 UNL     1      25.394   0.306  53.453  1.00  0.00     0.060 A 
HETATM   13  C17 UNL     1      26.398   0.854  53.179  1.00  0.00    -0.143 C 
HETATM   14  C18 UNL     1      27.585   1.530  52.843  1.00  0.00     0.248 C 
HETATM   15  O2  UNL     1      27.218   2.678  52.045  1.00  0.00    -0.378 OA
HETATM   16  C19 UNL     1      26.780   2.127  50.823  1.00  0.00     0.195 C 
HETATM   17  C20 UNL     1      26.136   3.117  49.912  1.00  0.00     0.194 C 
HETATM   18  O3  UNL     1      24.952   3.698  50.421  1.00  0.00    -0.384 OA
HETATM   19  C21 UNL     1      24.018   2.679  50.416  1.00  0.00     0.229 C 
HETATM   20  H13 UNL     1      24.244  -1.291  54.529  1.00  0.00     0.033 HD
ENDROOT
BRANCH   1  21
HETATM   21  N1  UNL     1      22.794   3.497  52.378  1.00  0.00    -0.273 NA
HETATM   22  C1  UNL     1      22.532   4.732  52.638  1.00  0.00     0.146 C 
ENDBRANCH   1  21
BRANCH   1  23
HETATM   23  N2  UNL     1      22.011   4.012  50.219  1.00  0.00    -0.356 N 
HETATM   24  H3  UNL     1      21.334   4.630  50.763  1.00  0.00     0.162 HD
BRANCH  23  25
HETATM   25  C3  UNL     1      22.046   4.301  48.829  1.00  0.00     0.031 A 
HETATM   26  C4  UNL     1      21.528   3.405  47.889  1.00  0.00     0.029 A 
HETATM   27  C5  UNL     1      21.544   3.709  46.552  1.00  0.00     0.004 A 
HETATM   28  C6  UNL     1      22.068   4.902  46.107  1.00  0.00     0.019 A 
HETATM   29  C7  UNL     1      22.596   5.835  46.961  1.00  0.00     0.013 A 
HETATM   30 BR1  UNL     1      23.325   7.485  46.354  1.00  0.00    -0.051 Br
HETATM   31  C8  UNL     1      22.550   5.470  48.286  1.00  0.00     0.048 A 
ENDBRANCH  23  25
ENDBRANCH   1  23
TORSDOF 4
ENDMDL
MODEL 6
REMARK VINA RESULT:      -7.8      2.985      6.768
REMARK  4 active torsions:
REMARK  status: ('A' for Active; 'I' for Inactive)
REMARK    1  A    between atoms: N1_2  and  C2_3 
REMARK    2  A    between atoms: C2_3  and  N2_4 
REMARK    3  A    between atoms: N2_4  and  C3_5 
REMARK    4  A    between atoms: O1_21  and  C16_22 
ROOT
HETATM    1  C2  UNL     1      24.023   4.157  50.916  1.00  0.00     0.180 C 
HETATM    2  C9  UNL     1      25.270   4.878  50.352  1.00  0.00     0.141 C 
HETATM    3  N3  UNL     1      25.194   6.089  50.002  1.00  0.00    -0.292 NA
HETATM    4  C10 UNL     1      26.129   6.963  49.463  1.00  0.00     0.135 C 
HETATM    5  C11 UNL     1      25.813   8.399  49.796  1.00  0.00    -0.003 C 
HETATM    6  C12 UNL     1      24.602   8.281  49.205  1.00  0.00    -0.017 C 
HETATM    7  C13 UNL     1      24.451   7.375  47.891  1.00  0.00     0.003 A 
HETATM    8  C14 UNL     1      25.856   7.098  47.969  1.00  0.00     0.035 C 
HETATM    9  N4  UNL     1      23.165   6.819  46.757  1.00  0.00     0.000 N 
HETATM   10  C15 UNL     1      23.744   7.069  47.268  1.00  0.00    -0.007 A 
HETATM   11  O1  UNL     1      23.378   6.089  47.957  1.00  0.00     0.000 OA
HETATM   12  C16 UNL     1      22.537   5.917  46.981  1.00  0.00     0.060 A 
HETATM   13  C17 UNL     1      21.701   5.110  46.803  1.00  0.00    -0.143 C 
HETATM   14  C18 UNL     1      20.702   4.138  46.615  1.00  0.00     0.248 C 
HETATM   15  O2  UNL     1      20.710   3.279  47.778  1.00  0.00    -0.378 OA
HETATM   16  C19 UNL     1      21.916   2.557  47.669  1.00  0.00     0.195 C 
HETATM   17  C20 UNL     1      22.254   1.759  48.883  1.00  0.00     0.194 C 
HETATM   18  O3  UNL     1      22.469   2.529  50.049  1.00  0.00    -0.384 OA
HETATM   19  C21 UNL     1      23.658   3.197  49.826  1.00  0.00     0.229 C 
HETATM   20  H13 UNL     1      23.651   7.772  46.392  1.00  0.00     0.033 HD
ENDROOT
BRANCH   1  21
HETATM   21  N1  UNL     1      23.045   5.176  51.139  1.00  0.00    -0.273 NA
HETATM   22  C1  UNL     1      22.375   5.138  52.240  1.00  0.00     0.146 C 
ENDBRANCH   1  21
BRANCH   1  23
HETATM   23  N2  UNL     1      24.359   3.489  52.122  1.00  0.00    -0.356 N 
HETATM   24  H3  UNL     1      24.479   4.135  52.960  1.00  0.00     0.162 HD
BRANCH  23  25
HETATM   25  C3  UNL     1      24.567   2.118  52.431  1.00  0.00     0.031 A 
HETATM   26  C4  UNL     1      25.766   1.475  52.109  1.00  0.00     0.029 A 
HETATM   27  C5  UNL     1      25.963   0.159  52.439  1.00  0.00     0.004 A 
HETATM   28  C6  UNL     1      24.986  -0.558  53.094  1.00  0.00     0.019 A 
HETATM   29  C7  UNL     1      23.782  -0.004  53.446  1.00  0.00     0.013 A 
HETATM   30 BR1  UNL     1      22.426  -0.987  54.349  1.00  0.00    -0.051 Br
HETATM   31  C8  UNL     1      23.648   1.318  53.088  1.00  0.00     0.048 A 
ENDBRANCH  23  25
ENDBRANCH   1  23
TORSDOF 4
ENDMDL
MODEL 7
REMARK VINA RESULT:      -7.8      2.177      4.420
REMARK  4 active torsions:
REMARK  status: ('A' for Active; 'I' for Inactive)
REMARK    1  A    between atoms: N1_2  and  C2_3 
REMARK    2  A    between atoms: C2_3  and  N2_4 
REMARK    3  A    between atoms: N2_4  and  C3_5 
REMARK    4  A    between atoms: O1_21  and  C16_22 
ROOT
HETATM    1  C2  UNL     1      23.219   2.649  51.433  1.00  0.00     0.180 C 
HETATM    2  C9  UNL     1      22.345   1.376  51.349  1.00  0.00     0.141 C 
HETATM    3  N3  UNL     1      21.883   0.856  52.404  1.00  0.00    -0.292 NA
HETATM    4  C10 UNL     1      21.099  -0.268  52.621  1.00  0.00     0.135 C 
HETATM    5  C11 UNL     1      20.285  -0.149  53.885  1.00  0.00    -0.003 C 
HETATM    6  C12 UNL     1      21.415   0.017  54.610  1.00  0.00    -0.017 C 
HETATM    7  C13 UNL     1      22.740  -0.787  54.200  1.00  0.00     0.003 A 
HETATM    8  C14 UNL     1      21.997  -1.389  53.133  1.00  0.00     0.035 C 
HETATM    9  N4  UNL     1      24.463  -0.931  54.714  1.00  0.00     0.000 N 
HETATM   10  C15 UNL     1      23.687  -0.865  54.482  1.00  0.00    -0.007 A 
HETATM   11  O1  UNL     1      24.103   0.112  53.817  1.00  0.00     0.000 OA
HETATM   12  C16 UNL     1      25.245  -0.218  54.341  1.00  0.00     0.060 A 
HETATM   13  C17 UNL     1      26.319   0.249  54.234  1.00  0.00    -0.143 C 
HETATM   14  C18 UNL     1      27.593   0.829  54.095  1.00  0.00     0.248 C 
HETATM   15  O2  UNL     1      27.453   1.976  53.226  1.00  0.00    -0.378 OA
HETATM   16  C19 UNL     1      27.189   1.421  51.957  1.00  0.00     0.195 C 
HETATM   17  C20 UNL     1      26.784   2.425  50.932  1.00  0.00     0.194 C 
HETATM   18  O3  UNL     1      25.578   3.104  51.220  1.00  0.00    -0.384 OA
HETATM   19  C21 UNL     1      24.585   2.154  51.073  1.00  0.00     0.229 C 
HETATM   20  H13 UNL     1      23.813  -1.696  55.233  1.00  0.00     0.033 HD
ENDROOT
BRANCH   1  21
HETATM   21  N1  UNL     1      23.111   3.114  52.782  1.00  0.00    -0.273 NA
HETATM   22  C1  UNL     1      24.191   3.483  53.381  1.00  0.00     0.146 C 
ENDBRANCH   1  21
BRANCH   1  23
HETATM   23  N2  UNL     1      22.745   3.619  50.512  1.00  0.00    -0.356 N 
HETATM   24  H3  UNL     1      22.267   3.208  49.653  1.00  0.00     0.162 HD
BRANCH  23  25
HETATM   25  C3  UNL     1      22.784   5.039  50.512  1.00  0.00     0.031 A 
HETATM   26  C4  UNL     1      21.637   5.796  50.765  1.00  0.00     0.029 A 
HETATM   27  C5  UNL     1      21.695   7.166  50.790  1.00  0.00     0.004 A 
HETATM   28  C6  UNL     1      22.884   7.824  50.567  1.00  0.00     0.019 A 
HETATM   29  C7  UNL     1      24.054   7.159  50.311  1.00  0.00     0.013 A 
HETATM   30 BR1  UNL     1      25.701   8.061  50.000  1.00  0.00    -0.051 Br
HETATM   31  C8  UNL     1      23.929   5.789  50.300  1.00  0.00     0.048 A 
ENDBRANCH  23  25
ENDBRANCH   1  23
TORSDOF 4
ENDMDL
MODEL 8
REMARK VINA RESULT:      -7.7      1.965      4.342
REMARK  4 active torsions:
REMARK  status: ('A' for Active; 'I' for Inactive)
REMARK    1  A    between atoms: N1_2  and  C2_3 
REMARK    2  A    between atoms: C2_3  and  N2_4 
REMARK    3  A    between atoms: N2_4  and  C3_5 
REMARK    4  A    between atoms: O1_21  and  C16_22 
ROOT
HETATM    1  C2  UNL     1      24.220   3.952  50.700  1.00  0.00     0.180 C 
HETATM    2  C9  UNL     1      23.891   3.607  49.229  1.00  0.00     0.141 C 
HETATM    3  N3  UNL     1      22.688   3.508  48.857  1.00  0.00    -0.292 NA
HETATM    4  C10 UNL     1      22.115   3.204  47.630  1.00  0.00     0.135 C 
HETATM    5  C11 UNL     1      20.741   3.808  47.487  1.00  0.00    -0.003 C 
HETATM    6  C12 UNL     1      20.324   3.148  48.591  1.00  0.00    -0.017 C 
HETATM    7  C13 UNL     1      20.876   1.671  48.882  1.00  0.00     0.003 A 
HETATM    8  C14 UNL     1      21.634   1.758  47.669  1.00  0.00     0.035 C 
HETATM    9  N4  UNL     1      20.741   0.387  50.141  1.00  0.00     0.000 N 
HETATM   10  C15 UNL     1      20.802   0.966  49.575  1.00  0.00    -0.007 A 
HETATM   11  O1  UNL     1      21.698   1.423  50.322  1.00  0.00     0.000 OA
HETATM   12  C16 UNL     1      21.392   0.393  51.054  1.00  0.00     0.060 A 
HETATM   13  C17 UNL     1      21.813   0.014  52.085  1.00  0.00    -0.143 C 
HETATM   14  C18 UNL     1      22.327  -0.415  53.322  1.00  0.00     0.248 C 
HETATM   15  O2  UNL     1      23.325   0.547  53.733  1.00  0.00    -0.378 OA
HETATM   16  C19 UNL     1      24.391   0.351  52.832  1.00  0.00     0.195 C 
HETATM   17  C20 UNL     1      25.456   1.391  52.920  1.00  0.00     0.194 C 
HETATM   18  O3  UNL     1      25.026   2.698  52.596  1.00  0.00    -0.384 OA
HETATM   19  C21 UNL     1      24.786   2.673  51.236  1.00  0.00     0.229 C 
HETATM   20  H13 UNL     1      19.969   0.248  49.327  1.00  0.00     0.033 HD
ENDROOT
BRANCH   1  21
HETATM   21  N1  UNL     1      22.980   4.332  51.303  1.00  0.00    -0.273 NA
HETATM   22  C1  UNL     1      22.859   5.545  51.720  1.00  0.00     0.146 C 
ENDBRANCH   1  21
BRANCH   1  23
HETATM   23  N2  UNL     1      25.164   5.011  50.746  1.00  0.00    -0.356 N 
HETATM   24  H3  UNL     1      25.153   5.566  51.655  1.00  0.00     0.162 HD
BRANCH  23  25
HETATM   25  C3  UNL     1      26.126   5.477  49.811  1.00  0.00     0.031 A 
HETATM   26  C4  UNL     1      27.144   4.642  49.339  1.00  0.00     0.029 A 
HETATM   27  C5  UNL     1      28.049   5.097  48.416  1.00  0.00     0.004 A 
HETATM   28  C6  UNL     1      27.976   6.384  47.932  1.00  0.00     0.019 A 
HETATM   29  C7  UNL     1      27.010   7.267  48.341  1.00  0.00     0.013 A 
HETATM   30 BR1  UNL     1      26.902   9.049  47.679  1.00  0.00    -0.051 Br
HETATM   31  C8  UNL     1      26.134   6.750  49.267  1.00  0.00     0.048 A 
ENDBRANCH  23  25
ENDBRANCH   1  23
TORSDOF 4
ENDMDL
MODEL 9
REMARK VINA RESULT:      -7.4      3.145      6.759
REMARK  4 active torsions:
REMARK  status: ('A' for Active; 'I' for Inactive)
REMARK    1  A    between atoms: N1_2  and  C2_3 
REMARK    2  A    between atoms: C2_3  and  N2_4 
REMARK    3  A    between atoms: N2_4  and  C3_5 
REMARK    4  A    between atoms: O1_21  and  C16_22 
ROOT
HETATM    1  C2  UNL     1      24.171   4.110  51.061  1.00  0.00     0.180 C 
HETATM    2  C9  UNL     1      22.799   3.423  50.870  1.00  0.00     0.141 C 
HETATM    3  N3  UNL     1      22.536   2.829  49.787  1.00  0.00    -0.292 NA
HETATM    4  C10 UNL     1      21.407   2.153  49.346  1.00  0.00     0.135 C 
HETATM    5  C11 UNL     1      21.746   1.101  48.320  1.00  0.00    -0.003 C 
HETATM    6  C12 UNL     1      22.304   2.042  47.525  1.00  0.00    -0.017 C 
HETATM    7  C13 UNL     1      21.653   3.506  47.458  1.00  0.00     0.003 A 
HETATM    8  C14 UNL     1      20.650   3.058  48.380  1.00  0.00     0.035 C 
HETATM    9  N4  UNL     1      21.958   5.101  46.675  1.00  0.00     0.000 N 
HETATM   10  C15 UNL     1      21.821   4.383  47.028  1.00  0.00    -0.007 A 
HETATM   11  O1  UNL     1      22.620   4.803  47.897  1.00  0.00     0.000 OA
HETATM   12  C16 UNL     1      22.654   5.853  47.131  1.00  0.00     0.060 A 
HETATM   13  C17 UNL     1      23.246   6.866  47.219  1.00  0.00    -0.143 C 
HETATM   14  C18 UNL     1      23.969   8.066  47.341  1.00  0.00     0.248 C 
HETATM   15  O2  UNL     1      24.774   7.965  48.538  1.00  0.00    -0.378 OA
HETATM   16  C19 UNL     1      23.839   8.018  49.592  1.00  0.00     0.195 C 
HETATM   17  C20 UNL     1      24.420   7.706  50.930  1.00  0.00     0.194 C 
HETATM   18  O3  UNL     1      24.938   6.397  51.053  1.00  0.00    -0.384 OA
HETATM   19  C21 UNL     1      23.832   5.568  51.040  1.00  0.00     0.229 C 
HETATM   20  H13 UNL     1      21.276   4.456  46.044  1.00  0.00     0.033 HD
ENDROOT
BRANCH   1  21
HETATM   21  N1  UNL     1      24.981   3.689  49.960  1.00  0.00    -0.273 NA
HETATM   22  C1  UNL     1      26.258   3.659  50.128  1.00  0.00     0.146 C 
ENDBRANCH   1  21
BRANCH   1  23
HETATM   23  N2  UNL     1      24.738   3.715  52.301  1.00  0.00    -0.356 N 
HETATM   24  H3  UNL     1      25.062   4.526  52.911  1.00  0.00     0.162 HD
BRANCH  23  25
HETATM   25  C3  UNL     1      24.957   2.441  52.891  1.00  0.00     0.031 A 
HETATM   26  C4  UNL     1      23.941   1.482  52.946  1.00  0.00     0.029 A 
HETATM   27  C5  UNL     1      24.175   0.248  53.494  1.00  0.00     0.004 A 
HETATM   28  C6  UNL     1      25.415  -0.076  53.999  1.00  0.00     0.019 A 
HETATM   29  C7  UNL     1      26.465   0.804  53.984  1.00  0.00     0.013 A 
HETATM   30 BR1  UNL     1      28.181   0.367  54.681  1.00  0.00    -0.051 Br
HETATM   31  C8  UNL     1      26.165   2.024  53.422  1.00  0.00     0.048 A 
ENDBRANCH  23  25
ENDBRANCH   1  23
TORSDOF 4
ENDMDL
