MODEL 1
REMARK VINA RESULT:      -7.5      0.000      0.000
REMARK  4 active torsions:
REMARK  status: ('A' for Active; 'I' for Inactive)
REMARK    1  A    between atoms: N1_1  and  C1_2 
REMARK    2  A    between atoms: C4_5  and  C5_6 
REMARK       I    between atoms: C5_6  and  N2_8 
REMARK    3  A    between atoms: N2_8  and  S1_9 
REMARK    4  A    between atoms: S1_9  and  C6_12 
ROOT
HETATM    1  C5  UNL     1      26.253   1.372  52.481  1.00  0.00     0.266 C 
HETATM    2  O1  UNL     1      26.490   2.480  53.054  1.00  0.00    -0.267 OA
HETATM    3  N2  UNL     1      25.166   1.407  51.571  1.00  0.00    -0.246 N 
HETATM    4  H5  UNL     1      24.900   0.543  51.055  1.00  0.00     0.182 HD
ENDROOT
BRANCH   3   5
HETATM    5  S1  UNL     1      24.425   2.967  51.466  1.00  0.00     0.265 S 
HETATM    6  O2  UNL     1      24.197   3.585  52.802  1.00  0.00    -0.200 OA
HETATM    7  O3  UNL     1      23.049   2.714  50.867  1.00  0.00    -0.200 OA
BRANCH   5   8
HETATM    8  C6  UNL     1      25.350   4.032  50.422  1.00  0.00     0.080 A 
HETATM    9  C7  UNL     1      24.937   5.350  50.343  1.00  0.00     0.028 A 
HETATM   10  C8  UNL     1      25.648   6.210  49.526  1.00  0.00     0.044 A 
HETATM   11  C9  UNL     1      26.744   5.783  48.805  1.00  0.00     0.116 A 
HETATM   12  F1  UNL     1      27.502   6.544  47.983  1.00  0.00    -0.206 F 
HETATM   13  C10 UNL     1      27.144   4.447  48.900  1.00  0.00     0.044 A 
HETATM   14  C11 UNL     1      26.439   3.577  49.713  1.00  0.00     0.028 A 
ENDBRANCH   5   8
ENDBRANCH   3   5
BRANCH   1  15
HETATM   15  C4  UNL     1      27.036   0.170  52.744  1.00  0.00     0.050 A 
HETATM   16  C3  UNL     1      28.337   0.154  53.204  1.00  0.00     0.022 A 
HETATM   17  C2  UNL     1      29.031  -1.013  53.437  1.00  0.00     0.051 A 
HETATM   18  C1  UNL     1      28.317  -2.178  53.170  1.00  0.00     0.120 A 
HETATM   19  N3  UNL     1      27.058  -2.200  52.725  1.00  0.00    -0.243 NA
HETATM   20  C12 UNL     1      26.426  -1.046  52.516  1.00  0.00     0.136 A 
BRANCH  18  21
HETATM   21  N1  UNL     1      28.946  -3.430  53.379  1.00  0.00    -0.384 N 
HETATM   22  H1  UNL     1      29.346  -4.117  52.698  1.00  0.00     0.157 HD
HETATM   23  H2  UNL     1      29.127  -3.902  54.292  1.00  0.00     0.157 HD
ENDBRANCH  18  21
ENDBRANCH   1  15
TORSDOF 4
ENDMDL
MODEL 2
REMARK VINA RESULT:      -7.5      4.606      6.677
REMARK  4 active torsions:
REMARK  status: ('A' for Active; 'I' for Inactive)
REMARK    1  A    between atoms: N1_1  and  C1_2 
REMARK    2  A    between atoms: C4_5  and  C5_6 
REMARK       I    between atoms: C5_6  and  N2_8 
REMARK    3  A    between atoms: N2_8  and  S1_9 
REMARK    4  A    between atoms: S1_9  and  C6_12 
ROOT
HETATM    1  C5  UNL     1      22.986   0.894  53.014  1.00  0.00     0.266 C 
HETATM    2  O1  UNL     1      23.037   2.117  52.678  1.00  0.00    -0.267 OA
HETATM    3  N2  UNL     1      24.254   0.288  53.205  1.00  0.00    -0.246 N 
HETATM    4  H5  UNL     1      24.308  -0.715  53.483  1.00  0.00     0.182 HD
ENDROOT
BRANCH   3   5
HETATM    5  S1  UNL     1      25.570   1.376  52.928  1.00  0.00     0.265 S 
HETATM    6  O2  UNL     1      25.444   2.639  53.709  1.00  0.00    -0.200 OA
HETATM    7  O3  UNL     1      25.462   1.765  51.460  1.00  0.00    -0.200 OA
BRANCH   5   8
HETATM    8  C6  UNL     1      27.108   0.591  53.233  1.00  0.00     0.080 A 
HETATM    9  C7  UNL     1      27.196  -0.757  52.935  1.00  0.00     0.028 A 
HETATM   10  C8  UNL     1      28.398  -1.401  53.166  1.00  0.00     0.044 A 
HETATM   11  C9  UNL     1      29.490  -0.732  53.680  1.00  0.00     0.116 A 
HETATM   12  F1  UNL     1      30.704  -1.271  53.939  1.00  0.00    -0.206 F 
HETATM   13  C10 UNL     1      29.380   0.630  53.974  1.00  0.00     0.044 A 
HETATM   14  C11 UNL     1      28.181   1.284  53.747  1.00  0.00     0.028 A 
ENDBRANCH   5   8
ENDBRANCH   3   5
BRANCH   1  15
HETATM   15  C4  UNL     1      21.725   0.181  53.187  1.00  0.00     0.050 A 
HETATM   16  C3  UNL     1      20.533   0.517  52.581  1.00  0.00     0.022 A 
HETATM   17  C2  UNL     1      19.370  -0.194  52.779  1.00  0.00     0.051 A 
HETATM   18  C1  UNL     1      19.490  -1.280  53.641  1.00  0.00     0.120 A 
HETATM   19  N3  UNL     1      20.628  -1.634  54.244  1.00  0.00    -0.243 NA
HETATM   20  C12 UNL     1      21.728  -0.918  54.022  1.00  0.00     0.136 A 
BRANCH  18  21
HETATM   21  N1  UNL     1      18.348  -2.074  53.908  1.00  0.00    -0.384 N 
HETATM   22  H1  UNL     1      17.376  -2.026  53.521  1.00  0.00     0.157 HD
HETATM   23  H2  UNL     1      18.278  -2.880  54.566  1.00  0.00     0.157 HD
ENDBRANCH  18  21
ENDBRANCH   1  15
TORSDOF 4
ENDMDL
MODEL 3
REMARK VINA RESULT:      -7.2      5.378      6.074
REMARK  4 active torsions:
REMARK  status: ('A' for Active; 'I' for Inactive)
REMARK    1  A    between atoms: N1_1  and  C1_2 
REMARK    2  A    between atoms: C4_5  and  C5_6 
REMARK       I    between atoms: C5_6  and  N2_8 
REMARK    3  A    between atoms: N2_8  and  S1_9 
REMARK    4  A    between atoms: S1_9  and  C6_12 
ROOT
HETATM    1  C5  UNL     1      24.274  -0.607  54.197  1.00  0.00     0.266 C 
HETATM    2  O1  UNL     1      23.807  -1.180  55.229  1.00  0.00    -0.267 OA
HETATM    3  N2  UNL     1      23.289  -0.187  53.267  1.00  0.00    -0.246 N 
HETATM    4  H5  UNL     1      23.581   0.293  52.390  1.00  0.00     0.182 HD
ENDROOT
BRANCH   3   5
HETATM    5  S1  UNL     1      21.679  -0.565  53.775  1.00  0.00     0.265 S 
HETATM    6  O2  UNL     1      21.329   0.055  55.084  1.00  0.00    -0.200 OA
HETATM    7  O3  UNL     1      21.675  -2.071  53.996  1.00  0.00    -0.200 OA
BRANCH   5   8
HETATM    8  C6  UNL     1      20.513  -0.134  52.536  1.00  0.00     0.080 A 
HETATM    9  C7  UNL     1      19.184  -0.409  52.801  1.00  0.00     0.028 A 
HETATM   10  C8  UNL     1      18.244  -0.080  51.840  1.00  0.00     0.044 A 
HETATM   11  C9  UNL     1      18.606   0.508  50.646  1.00  0.00     0.116 A 
HETATM   12  F1  UNL     1      17.765   0.866  49.648  1.00  0.00    -0.206 F 
HETATM   13  C10 UNL     1      19.955   0.777  50.399  1.00  0.00     0.044 A 
HETATM   14  C11 UNL     1      20.904   0.451  51.353  1.00  0.00     0.028 A 
ENDBRANCH   5   8
ENDBRANCH   3   5
BRANCH   1  15
HETATM   15  C4  UNL     1      25.704  -0.402  53.993  1.00  0.00     0.050 A 
HETATM   16  C3  UNL     1      26.446  -0.949  52.968  1.00  0.00     0.022 A 
HETATM   17  C2  UNL     1      27.796  -0.722  52.821  1.00  0.00     0.051 A 
HETATM   18  C1  UNL     1      28.356   0.105  53.791  1.00  0.00     0.120 A 
HETATM   19  N3  UNL     1      27.669   0.652  54.797  1.00  0.00    -0.243 NA
HETATM   20  C12 UNL     1      26.364   0.404  54.897  1.00  0.00     0.136 A 
BRANCH  18  21
HETATM   21  N1  UNL     1      29.741   0.399  53.725  1.00  0.00    -0.384 N 
HETATM   22  H1  UNL     1      30.540   0.065  54.313  1.00  0.00     0.157 HD
HETATM   23  H2  UNL     1      30.222   1.027  53.046  1.00  0.00     0.157 HD
ENDBRANCH  18  21
ENDBRANCH   1  15
TORSDOF 4
ENDMDL
MODEL 4
REMARK VINA RESULT:      -7.2      3.573      6.946
REMARK  4 active torsions:
REMARK  status: ('A' for Active; 'I' for Inactive)
REMARK    1  A    between atoms: N1_1  and  C1_2 
REMARK    2  A    between atoms: C4_5  and  C5_6 
REMARK       I    between atoms: C5_6  and  N2_8 
REMARK    3  A    between atoms: N2_8  and  S1_9 
REMARK    4  A    between atoms: S1_9  and  C6_12 
ROOT
HETATM    1  C5  UNL     1      26.370   3.939  49.856  1.00  0.00     0.266 C 
HETATM    2  O1  UNL     1      26.444   2.721  49.508  1.00  0.00    -0.267 OA
HETATM    3  N2  UNL     1      25.654   4.159  51.061  1.00  0.00    -0.246 N 
HETATM    4  H5  UNL     1      25.543   5.130  51.422  1.00  0.00     0.182 HD
ENDROOT
BRANCH   3   5
HETATM    5  S1  UNL     1      25.053   2.697  51.764  1.00  0.00     0.265 S 
HETATM    6  O2  UNL     1      24.148   1.949  50.847  1.00  0.00    -0.200 OA
HETATM    7  O3  UNL     1      24.198   3.146  52.942  1.00  0.00    -0.200 OA
BRANCH   5   8
HETATM    8  C6  UNL     1      26.370   1.684  52.326  1.00  0.00     0.080 A 
HETATM    9  C7  UNL     1      26.228   0.318  52.159  1.00  0.00     0.028 A 
HETATM   10  C8  UNL     1      27.252  -0.504  52.594  1.00  0.00     0.044 A 
HETATM   11  C9  UNL     1      28.392   0.008  53.180  1.00  0.00     0.116 A 
HETATM   12  F1  UNL     1      29.444  -0.710  53.635  1.00  0.00    -0.206 F 
HETATM   13  C10 UNL     1      28.515   1.391  53.338  1.00  0.00     0.044 A 
HETATM   14  C11 UNL     1      27.496   2.223  52.907  1.00  0.00     0.028 A 
ENDBRANCH   5   8
ENDBRANCH   3   5
BRANCH   1  15
HETATM   15  C4  UNL     1      26.972   5.015  49.076  1.00  0.00     0.050 A 
HETATM   16  C3  UNL     1      28.269   5.028  48.609  1.00  0.00     0.022 A 
HETATM   17  C2  UNL     1      28.787   6.071  47.875  1.00  0.00     0.051 A 
HETATM   18  C1  UNL     1      27.898   7.116  47.641  1.00  0.00     0.120 A 
HETATM   19  N3  UNL     1      26.636   7.138  48.077  1.00  0.00    -0.243 NA
HETATM   20  C12 UNL     1      26.178   6.105  48.782  1.00  0.00     0.136 A 
BRANCH  18  21
HETATM   21  N1  UNL     1      28.338   8.236  46.894  1.00  0.00    -0.384 N 
HETATM   22  H1  UNL     1      28.709   8.305  45.917  1.00  0.00     0.157 HD
HETATM   23  H2  UNL     1      28.369   9.232  47.206  1.00  0.00     0.157 HD
ENDBRANCH  18  21
ENDBRANCH   1  15
TORSDOF 4
ENDMDL
MODEL 5
REMARK VINA RESULT:      -7.2      4.183      7.244
REMARK  4 active torsions:
REMARK  status: ('A' for Active; 'I' for Inactive)
REMARK    1  A    between atoms: N1_1  and  C1_2 
REMARK    2  A    between atoms: C4_5  and  C5_6 
REMARK       I    between atoms: C5_6  and  N2_8 
REMARK    3  A    between atoms: N2_8  and  S1_9 
REMARK    4  A    between atoms: S1_9  and  C6_12 
ROOT
HETATM    1  C5  UNL     1      25.622   2.238  52.430  1.00  0.00     0.266 C 
HETATM    2  O1  UNL     1      25.122   2.489  53.569  1.00  0.00    -0.267 OA
HETATM    3  N2  UNL     1      26.208   0.952  52.320  1.00  0.00    -0.246 N 
HETATM    4  H5  UNL     1      26.643   0.660  51.420  1.00  0.00     0.182 HD
ENDROOT
BRANCH   3   5
HETATM    5  S1  UNL     1      26.097   0.034  53.783  1.00  0.00     0.265 S 
HETATM    6  O2  UNL     1      26.591   0.785  54.971  1.00  0.00    -0.200 OA
HETATM    7  O3  UNL     1      27.047  -1.140  53.589  1.00  0.00    -0.200 OA
BRANCH   5   8
HETATM    8  C6  UNL     1      24.462  -0.549  54.034  1.00  0.00     0.080 A 
HETATM    9  C7  UNL     1      24.169  -1.087  55.275  1.00  0.00     0.028 A 
HETATM   10  C8  UNL     1      22.887  -1.555  55.499  1.00  0.00     0.044 A 
HETATM   11  C9  UNL     1      21.913  -1.494  54.523  1.00  0.00     0.116 A 
HETATM   12  F1  UNL     1      20.636  -1.922  54.645  1.00  0.00    -0.206 F 
HETATM   13  C10 UNL     1      22.230  -0.946  53.277  1.00  0.00     0.044 A 
HETATM   14  C11 UNL     1      23.511  -0.476  53.041  1.00  0.00     0.028 A 
ENDBRANCH   5   8
ENDBRANCH   3   5
BRANCH   1  15
HETATM   15  C4  UNL     1      25.591   3.198  51.332  1.00  0.00     0.050 A 
HETATM   16  C3  UNL     1      26.553   3.313  50.350  1.00  0.00     0.022 A 
HETATM   17  C2  UNL     1      26.474   4.238  49.333  1.00  0.00     0.051 A 
HETATM   18  C1  UNL     1      25.345   5.052  49.373  1.00  0.00     0.120 A 
HETATM   19  N3  UNL     1      24.394   4.968  50.306  1.00  0.00    -0.243 NA
HETATM   20  C12 UNL     1      24.513   4.057  51.270  1.00  0.00     0.136 A 
BRANCH  18  21
HETATM   21  N1  UNL     1      25.174   6.036  48.368  1.00  0.00    -0.384 N 
HETATM   22  H1  UNL     1      25.355   6.001  47.338  1.00  0.00     0.157 HD
HETATM   23  H2  UNL     1      24.819   7.009  48.490  1.00  0.00     0.157 HD
ENDBRANCH  18  21
ENDBRANCH   1  15
TORSDOF 4
ENDMDL
MODEL 6
REMARK VINA RESULT:      -7.0      3.532      7.318
REMARK  4 active torsions:
REMARK  status: ('A' for Active; 'I' for Inactive)
REMARK    1  A    between atoms: N1_1  and  C1_2 
REMARK    2  A    between atoms: C4_5  and  C5_6 
REMARK       I    between atoms: C5_6  and  N2_8 
REMARK    3  A    between atoms: N2_8  and  S1_9 
REMARK    4  A    between atoms: S1_9  and  C6_12 
ROOT
HETATM    1  C5  UNL     1      25.550   3.903  50.523  1.00  0.00     0.266 C 
HETATM    2  O1  UNL     1      24.385   3.479  50.791  1.00  0.00    -0.267 OA
HETATM    3  N2  UNL     1      26.592   3.209  51.190  1.00  0.00    -0.246 N 
HETATM    4  H5  UNL     1      27.582   3.490  51.030  1.00  0.00     0.182 HD
ENDROOT
BRANCH   3   5
HETATM    5  S1  UNL     1      26.008   1.943  52.215  1.00  0.00     0.265 S 
HETATM    6  O2  UNL     1      24.939   1.130  51.571  1.00  0.00    -0.200 OA
HETATM    7  O3  UNL     1      25.357   2.655  53.394  1.00  0.00    -0.200 OA
BRANCH   5   8
HETATM    8  C6  UNL     1      27.327   0.932  52.776  1.00  0.00     0.080 A 
HETATM    9  C7  UNL     1      27.165  -0.437  52.657  1.00  0.00     0.028 A 
HETATM   10  C8  UNL     1      28.190  -1.257  53.092  1.00  0.00     0.044 A 
HETATM   11  C9  UNL     1      29.350  -0.742  53.631  1.00  0.00     0.116 A 
HETATM   12  F1  UNL     1      30.405  -1.458  54.082  1.00  0.00    -0.206 F 
HETATM   13  C10 UNL     1      29.494   0.644  53.742  1.00  0.00     0.044 A 
HETATM   14  C11 UNL     1      28.474   1.475  53.311  1.00  0.00     0.028 A 
ENDBRANCH   5   8
ENDBRANCH   3   5
BRANCH   1  15
HETATM   15  C4  UNL     1      25.790   5.012  49.605  1.00  0.00     0.050 A 
HETATM   16  C3  UNL     1      27.010   5.331  49.046  1.00  0.00     0.022 A 
HETATM   17  C2  UNL     1      27.180   6.390  48.183  1.00  0.00     0.051 A 
HETATM   18  C1  UNL     1      26.023   7.117  47.918  1.00  0.00     0.120 A 
HETATM   19  N3  UNL     1      24.826   6.837  48.441  1.00  0.00    -0.243 NA
HETATM   20  C12 UNL     1      24.710   5.802  49.270  1.00  0.00     0.136 A 
BRANCH  18  21
HETATM   21  N1  UNL     1      26.097   8.227  47.041  1.00  0.00    -0.384 N 
HETATM   22  H1  UNL     1      25.729   8.357  46.069  1.00  0.00     0.157 HD
HETATM   23  H2  UNL     1      26.551   9.148  47.224  1.00  0.00     0.157 HD
ENDBRANCH  18  21
ENDBRANCH   1  15
TORSDOF 4
ENDMDL
MODEL 7
REMARK VINA RESULT:      -6.8      4.586      5.652
REMARK  4 active torsions:
REMARK  status: ('A' for Active; 'I' for Inactive)
REMARK    1  A    between atoms: N1_1  and  C1_2 
REMARK    2  A    between atoms: C4_5  and  C5_6 
REMARK       I    between atoms: C5_6  and  N2_8 
REMARK    3  A    between atoms: N2_8  and  S1_9 
REMARK    4  A    between atoms: S1_9  and  C6_12 
ROOT
HETATM    1  C5  UNL     1      25.791   1.004  52.371  1.00  0.00     0.266 C 
HETATM    2  O1  UNL     1      25.742   2.009  51.598  1.00  0.00    -0.267 OA
HETATM    3  N2  UNL     1      24.522   0.502  52.758  1.00  0.00    -0.246 N 
HETATM    4  H5  UNL     1      24.466  -0.322  53.392  1.00  0.00     0.182 HD
ENDROOT
BRANCH   3   5
HETATM    5  S1  UNL     1      23.208   1.395  52.072  1.00  0.00     0.265 S 
HETATM    6  O2  UNL     1      23.354   1.594  50.603  1.00  0.00    -0.200 OA
HETATM    7  O3  UNL     1      23.294   2.777  52.705  1.00  0.00    -0.200 OA
BRANCH   5   8
HETATM    8  C6  UNL     1      21.670   0.647  52.464  1.00  0.00     0.080 A 
HETATM    9  C7  UNL     1      21.586  -0.025  53.670  1.00  0.00     0.028 A 
HETATM   10  C8  UNL     1      20.385  -0.625  54.002  1.00  0.00     0.044 A 
HETATM   11  C9  UNL     1      19.289  -0.563  53.166  1.00  0.00     0.116 A 
HETATM   12  F1  UNL     1      18.077  -1.114  53.402  1.00  0.00    -0.206 F 
HETATM   13  C10 UNL     1      19.396   0.121  51.952  1.00  0.00     0.044 A 
HETATM   14  C11 UNL     1      20.594   0.724  51.609  1.00  0.00     0.028 A 
ENDBRANCH   5   8
ENDBRANCH   3   5
BRANCH   1  15
HETATM   15  C4  UNL     1      27.051   0.421  52.820  1.00  0.00     0.050 A 
HETATM   16  C3  UNL     1      28.159   1.136  53.223  1.00  0.00     0.022 A 
HETATM   17  C2  UNL     1      29.325   0.534  53.640  1.00  0.00     0.051 A 
HETATM   18  C1  UNL     1      29.300  -0.858  53.622  1.00  0.00     0.120 A 
HETATM   19  N3  UNL     1      28.246  -1.583  53.239  1.00  0.00    -0.243 NA
HETATM   20  C12 UNL     1      27.139  -0.956  52.845  1.00  0.00     0.136 A 
BRANCH  18  21
HETATM   21  N1  UNL     1      30.453  -1.570  54.033  1.00  0.00    -0.384 N 
HETATM   22  H1  UNL     1      31.150  -1.367  54.788  1.00  0.00     0.157 HD
HETATM   23  H2  UNL     1      30.822  -2.461  53.635  1.00  0.00     0.157 HD
ENDBRANCH  18  21
ENDBRANCH   1  15
TORSDOF 4
ENDMDL
MODEL 8
REMARK VINA RESULT:      -6.7      4.697      5.543
REMARK  4 active torsions:
REMARK  status: ('A' for Active; 'I' for Inactive)
REMARK    1  A    between atoms: N1_1  and  C1_2 
REMARK    2  A    between atoms: C4_5  and  C5_6 
REMARK       I    between atoms: C5_6  and  N2_8 
REMARK    3  A    between atoms: N2_8  and  S1_9 
REMARK    4  A    between atoms: S1_9  and  C6_12 
ROOT
HETATM    1  C5  UNL     1      24.277   1.771  52.149  1.00  0.00     0.266 C 
HETATM    2  O1  UNL     1      23.854   1.407  51.010  1.00  0.00    -0.267 OA
HETATM    3  N2  UNL     1      23.527   2.819  52.743  1.00  0.00    -0.246 N 
HETATM    4  H5  UNL     1      23.803   3.182  53.679  1.00  0.00     0.182 HD
ENDROOT
BRANCH   3   5
HETATM    5  S1  UNL     1      22.208   3.346  51.755  1.00  0.00     0.265 S 
HETATM    6  O2  UNL     1      22.646   3.785  50.400  1.00  0.00    -0.200 OA
HETATM    7  O3  UNL     1      21.659   4.583  52.453  1.00  0.00    -0.200 OA
BRANCH   5   8
HETATM    8  C6  UNL     1      20.967   2.110  51.654  1.00  0.00     0.080 A 
HETATM    9  C7  UNL     1      20.350   1.937  50.428  1.00  0.00     0.028 A 
HETATM   10  C8  UNL     1      19.368   0.970  50.321  1.00  0.00     0.044 A 
HETATM   11  C9  UNL     1      19.001   0.189  51.398  1.00  0.00     0.116 A 
HETATM   12  F1  UNL     1      18.056  -0.780  51.394  1.00  0.00    -0.206 F 
HETATM   13  C10 UNL     1      19.637   0.380  52.628  1.00  0.00     0.044 A 
HETATM   14  C11 UNL     1      20.621   1.346  52.746  1.00  0.00     0.028 A 
ENDBRANCH   5   8
ENDBRANCH   3   5
BRANCH   1  15
HETATM   15  C4  UNL     1      25.437   1.159  52.787  1.00  0.00     0.050 A 
HETATM   16  C3  UNL     1      26.019  -0.031  52.404  1.00  0.00     0.022 A 
HETATM   17  C2  UNL     1      27.117  -0.564  53.042  1.00  0.00     0.051 A 
HETATM   18  C1  UNL     1      27.595   0.193  54.108  1.00  0.00     0.120 A 
HETATM   19  N3  UNL     1      27.058   1.349  54.506  1.00  0.00    -0.243 NA
HETATM   20  C12 UNL     1      25.998   1.826  53.857  1.00  0.00     0.136 A 
BRANCH  18  21
HETATM   21  N1  UNL     1      28.723  -0.273  54.828  1.00  0.00    -0.384 N 
HETATM   22  H1  UNL     1      28.801  -0.682  55.788  1.00  0.00     0.157 HD
HETATM   23  H2  UNL     1      29.715  -0.289  54.506  1.00  0.00     0.157 HD
ENDBRANCH  18  21
ENDBRANCH   1  15
TORSDOF 4
ENDMDL
MODEL 9
REMARK VINA RESULT:      -6.7      4.056      7.303
REMARK  4 active torsions:
REMARK  status: ('A' for Active; 'I' for Inactive)
REMARK    1  A    between atoms: N1_1  and  C1_2 
REMARK    2  A    between atoms: C4_5  and  C5_6 
REMARK       I    between atoms: C5_6  and  N2_8 
REMARK    3  A    between atoms: N2_8  and  S1_9 
REMARK    4  A    between atoms: S1_9  and  C6_12 
ROOT
HETATM    1  C5  UNL     1      26.135   5.146  49.261  1.00  0.00     0.266 C 
HETATM    2  O1  UNL     1      24.927   5.261  48.891  1.00  0.00    -0.267 OA
HETATM    3  N2  UNL     1      26.347   4.168  50.266  1.00  0.00    -0.246 N 
HETATM    4  H5  UNL     1      27.309   4.005  50.631  1.00  0.00     0.182 HD
ENDROOT
BRANCH   3   5
HETATM    5  S1  UNL     1      24.890   3.365  50.742  1.00  0.00     0.265 S 
HETATM    6  O2  UNL     1      23.992   3.074  49.589  1.00  0.00    -0.200 OA
HETATM    7  O3  UNL     1      24.153   4.368  51.620  1.00  0.00    -0.200 OA
BRANCH   5   8
HETATM    8  C6  UNL     1      25.245   1.911  51.656  1.00  0.00     0.080 A 
HETATM    9  C7  UNL     1      24.224   1.388  52.429  1.00  0.00     0.028 A 
HETATM   10  C8  UNL     1      24.479   0.242  53.160  1.00  0.00     0.044 A 
HETATM   11  C9  UNL     1      25.711  -0.378  53.129  1.00  0.00     0.116 A 
HETATM   12  F1  UNL     1      26.056  -1.498  53.805  1.00  0.00    -0.206 F 
HETATM   13  C10 UNL     1      26.728   0.166  52.341  1.00  0.00     0.044 A 
HETATM   14  C11 UNL     1      26.486   1.314  51.606  1.00  0.00     0.028 A 
ENDBRANCH   5   8
ENDBRANCH   3   5
BRANCH   1  15
HETATM   15  C4  UNL     1      27.209   5.957  48.697  1.00  0.00     0.050 A 
HETATM   16  C3  UNL     1      28.454   5.486  48.336  1.00  0.00     0.022 A 
HETATM   17  C2  UNL     1      29.433   6.296  47.806  1.00  0.00     0.051 A 
HETATM   18  C1  UNL     1      29.068   7.632  47.662  1.00  0.00     0.120 A 
HETATM   19  N3  UNL     1      27.873   8.122  47.999  1.00  0.00    -0.243 NA
HETATM   20  C12 UNL     1      26.957   7.300  48.508  1.00  0.00     0.136 A 
BRANCH  18  21
HETATM   21  N1  UNL     1      30.008   8.545  47.124  1.00  0.00    -0.384 N 
HETATM   22  H1  UNL     1      29.874   9.486  46.686  1.00  0.00     0.157 HD
HETATM   23  H2  UNL     1      31.043   8.429  47.071  1.00  0.00     0.157 HD
ENDBRANCH  18  21
ENDBRANCH   1  15
TORSDOF 4
ENDMDL
