MODEL 1
REMARK VINA RESULT:      -8.4      0.000      0.000
REMARK  6 active torsions:
REMARK  status: ('A' for Active; 'I' for Inactive)
REMARK    1  A    between atoms: C5_8  and  C6_9 
REMARK    2  A    between atoms: C6_9  and  O1_10 
REMARK    3  A    between atoms: O1_10  and  C7_11 
REMARK       I    between atoms: N3_19  and  C15_20 
REMARK    4  A    between atoms: C15_20  and  C16_22 
REMARK    5  A    between atoms: C17_23  and  C18_24 
REMARK    6  A    between atoms: C18_24  and  N4_25 
ROOT
HETATM    1  C1  UNL     1      24.450   6.724  47.784  1.00  0.00     0.044 C 
HETATM    2  C2  UNL     1      24.213   5.539  48.642  1.00  0.00     0.152 C 
HETATM    3  S1  UNL     1      23.440   5.962  50.254  1.00  0.00    -0.084 SA
HETATM    4  C3  UNL     1      24.008   4.627  51.339  1.00  0.00     0.106 A 
HETATM    5  N1  UNL     1      23.616   4.784  52.628  1.00  0.00    -0.234 NA
HETATM    6  C4  UNL     1      23.966   3.858  53.556  1.00  0.00     0.234 A 
HETATM    7  N2  UNL     1      24.707   2.775  53.199  1.00  0.00    -0.244 NA
HETATM    8  C5  UNL     1      25.090   2.631  51.919  1.00  0.00     0.070 A 
HETATM    9  C13 UNL     1      24.774   3.526  50.927  1.00  0.00     0.022 A 
HETATM   10  C14 UNL     1      25.106   3.505  49.502  1.00  0.00     0.171 C 
HETATM   11  N3  UNL     1      25.445   4.808  48.975  1.00  0.00    -0.331 N 
HETATM   12  C15 UNL     1      26.859   5.102  48.904  1.00  0.00     0.244 C 
HETATM   13  O2  UNL     1      27.315   4.001  49.377  1.00  0.00    -0.268 OA
ENDROOT
BRANCH  12  14
HETATM   14  C16 UNL     1      27.682   6.227  48.468  1.00  0.00     0.072 C 
HETATM   15  C17 UNL     1      28.751   6.630  47.756  1.00  0.00     0.008 C 
BRANCH  15  16
HETATM   16  C18 UNL     1      29.197   8.028  47.629  1.00  0.00     0.300 C 
BRANCH  16  17
HETATM   17  N4  UNL     1      29.601   8.517  48.926  1.00  0.00     0.096 N 
HETATM   18  C19 UNL     1      30.987   8.900  49.000  1.00  0.00     0.299 C 
HETATM   19  C20 UNL     1      31.164  10.207  48.271  1.00  0.00     0.198 C 
HETATM   20  O3  UNL     1      30.367  11.213  48.788  1.00  0.00    -0.388 OA
HETATM   21  C21 UNL     1      29.023  10.914  48.759  1.00  0.00     0.198 C 
HETATM   22  C22 UNL     1      28.794   9.580  49.444  1.00  0.00     0.299 C 
ENDBRANCH  16  17
ENDBRANCH  15  16
ENDBRANCH  12  14
BRANCH   8  23
HETATM   23  C6  UNL     1      25.901   1.452  51.522  1.00  0.00     0.235 C 
BRANCH  23  24
HETATM   24  O1  UNL     1      26.089   0.601  52.648  1.00  0.00    -0.345 OA
BRANCH  24  25
HETATM   25  C7  UNL     1      27.349   0.083  52.963  1.00  0.00     0.069 A 
HETATM   26  C8  UNL     1      28.258   1.055  53.376  1.00  0.00     0.037 A 
HETATM   27  C9  UNL     1      29.539   0.623  53.709  1.00  0.00     0.003 A 
HETATM   28  C10 UNL     1      29.853  -0.724  53.620  1.00  0.00     0.000 A 
HETATM   29  C11 UNL     1      28.953  -1.675  53.214  1.00  0.00     0.003 A 
HETATM   30  C12 UNL     1      27.671  -1.254  52.879  1.00  0.00     0.037 A 
ENDBRANCH  24  25
ENDBRANCH  23  24
ENDBRANCH   8  23
TORSDOF 6
ENDMDL
MODEL 2
REMARK VINA RESULT:      -8.2      1.568      1.906
REMARK  6 active torsions:
REMARK  status: ('A' for Active; 'I' for Inactive)
REMARK    1  A    between atoms: C5_8  and  C6_9 
REMARK    2  A    between atoms: C6_9  and  O1_10 
REMARK    3  A    between atoms: O1_10  and  C7_11 
REMARK       I    between atoms: N3_19  and  C15_20 
REMARK    4  A    between atoms: C15_20  and  C16_22 
REMARK    5  A    between atoms: C17_23  and  C18_24 
REMARK    6  A    between atoms: C18_24  and  N4_25 
ROOT
HETATM    1  C1  UNL     1      25.221   7.050  47.723  1.00  0.00     0.044 C 
HETATM    2  C2  UNL     1      24.599   5.999  48.563  1.00  0.00     0.152 C 
HETATM    3  S1  UNL     1      23.932   6.647  50.147  1.00  0.00    -0.084 SA
HETATM    4  C3  UNL     1      24.021   5.208  51.243  1.00  0.00     0.106 A 
HETATM    5  N1  UNL     1      23.646   5.485  52.518  1.00  0.00    -0.234 NA
HETATM    6  C4  UNL     1      23.659   4.500  53.452  1.00  0.00     0.234 A 
HETATM    7  N2  UNL     1      24.045   3.240  53.116  1.00  0.00    -0.244 NA
HETATM    8  C5  UNL     1      24.414   2.979  51.851  1.00  0.00     0.070 A 
HETATM    9  C13 UNL     1      24.426   3.923  50.854  1.00  0.00     0.022 A 
HETATM   10  C14 UNL     1      24.790   3.794  49.442  1.00  0.00     0.171 C 
HETATM   11  N3  UNL     1      25.533   4.927  48.938  1.00  0.00    -0.331 N 
HETATM   12  C15 UNL     1      26.970   4.773  48.923  1.00  0.00     0.244 C 
HETATM   13  O2  UNL     1      27.049   3.587  49.405  1.00  0.00    -0.268 OA
ENDROOT
BRANCH  12  14
HETATM   14  C16 UNL     1      28.115   5.588  48.526  1.00  0.00     0.072 C 
HETATM   15  C17 UNL     1      29.414   5.609  48.171  1.00  0.00     0.008 C 
BRANCH  15  16
HETATM   16  C18 UNL     1      30.174   6.825  47.837  1.00  0.00     0.300 C 
BRANCH  16  17
HETATM   17  N4  UNL     1      30.887   7.275  49.010  1.00  0.00     0.096 N 
HETATM   18  C19 UNL     1      31.747   6.277  49.590  1.00  0.00     0.299 C 
HETATM   19  C20 UNL     1      32.961   6.119  48.712  1.00  0.00     0.198 C 
HETATM   20  O3  UNL     1      33.656   7.305  48.550  1.00  0.00    -0.388 OA
HETATM   21  C21 UNL     1      32.893   8.314  48.006  1.00  0.00     0.198 C 
HETATM   22  C22 UNL     1      31.631   8.486  48.830  1.00  0.00     0.299 C 
ENDBRANCH  16  17
ENDBRANCH  15  16
ENDBRANCH  12  14
BRANCH   8  23
HETATM   23  C6  UNL     1      24.839   1.607  51.477  1.00  0.00     0.235 C 
BRANCH  23  24
HETATM   24  O1  UNL     1      25.044   0.833  52.654  1.00  0.00    -0.345 OA
BRANCH  24  25
HETATM   25  C7  UNL     1      26.306   0.324  52.976  1.00  0.00     0.069 A 
HETATM   26  C8  UNL     1      27.083   1.207  53.723  1.00  0.00     0.037 A 
HETATM   27  C9  UNL     1      28.357   0.778  54.088  1.00  0.00     0.003 A 
HETATM   28  C10 UNL     1      28.792  -0.480  53.702  1.00  0.00     0.000 A 
HETATM   29  C11 UNL     1      28.022  -1.344  52.968  1.00  0.00     0.003 A 
HETATM   30  C12 UNL     1      26.748  -0.925  52.600  1.00  0.00     0.037 A 
ENDBRANCH  24  25
ENDBRANCH  23  24
ENDBRANCH   8  23
TORSDOF 6
ENDMDL
MODEL 3
REMARK VINA RESULT:      -8.0      3.747      7.431
REMARK  6 active torsions:
REMARK  status: ('A' for Active; 'I' for Inactive)
REMARK    1  A    between atoms: C5_8  and  C6_9 
REMARK    2  A    between atoms: C6_9  and  O1_10 
REMARK    3  A    between atoms: O1_10  and  C7_11 
REMARK       I    between atoms: N3_19  and  C15_20 
REMARK    4  A    between atoms: C15_20  and  C16_22 
REMARK    5  A    between atoms: C17_23  and  C18_24 
REMARK    6  A    between atoms: C18_24  and  N4_25 
ROOT
HETATM    1  C1  UNL     1      27.355   4.734  49.173  1.00  0.00     0.044 C 
HETATM    2  C2  UNL     1      25.928   5.042  48.917  1.00  0.00     0.152 C 
HETATM    3  S1  UNL     1      25.423   6.687  49.560  1.00  0.00    -0.084 SA
HETATM    4  C3  UNL     1      23.653   6.472  49.879  1.00  0.00     0.106 A 
HETATM    5  N1  UNL     1      23.077   7.562  50.447  1.00  0.00    -0.234 NA
HETATM    6  C4  UNL     1      21.752   7.546  50.741  1.00  0.00     0.234 A 
HETATM    7  N2  UNL     1      21.001   6.446  50.468  1.00  0.00    -0.244 NA
HETATM    8  C5  UNL     1      21.583   5.374  49.905  1.00  0.00     0.070 A 
HETATM    9  C13 UNL     1      22.916   5.317  49.581  1.00  0.00     0.022 A 
HETATM   10  C14 UNL     1      23.688   4.237  48.964  1.00  0.00     0.171 C 
HETATM   11  N3  UNL     1      25.006   4.078  49.535  1.00  0.00    -0.331 N 
HETATM   12  C15 UNL     1      25.125   3.058  50.553  1.00  0.00     0.244 C 
HETATM   13  O2  UNL     1      23.911   2.646  50.565  1.00  0.00    -0.268 OA
ENDROOT
BRANCH  12  14
HETATM   14  C16 UNL     1      26.192   2.531  51.398  1.00  0.00     0.072 C 
HETATM   15  C17 UNL     1      26.552   2.105  52.624  1.00  0.00     0.008 C 
BRANCH  15  16
HETATM   16  C18 UNL     1      27.896   1.626  52.987  1.00  0.00     0.300 C 
BRANCH  16  17
HETATM   17  N4  UNL     1      27.794   0.744  54.126  1.00  0.00     0.096 N 
HETATM   18  C19 UNL     1      26.836  -0.317  53.959  1.00  0.00     0.299 C 
HETATM   19  C20 UNL     1      27.411  -1.339  53.012  1.00  0.00     0.198 C 
HETATM   20  O3  UNL     1      28.615  -1.855  53.458  1.00  0.00    -0.388 OA
HETATM   21  C21 UNL     1      29.582  -0.894  53.650  1.00  0.00     0.198 C 
HETATM   22  C22 UNL     1      29.038   0.186  54.564  1.00  0.00     0.299 C 
ENDBRANCH  16  17
ENDBRANCH  15  16
ENDBRANCH  12  14
BRANCH   8  23
HETATM   23  C6  UNL     1      20.770   4.168  49.606  1.00  0.00     0.235 C 
BRANCH  23  24
HETATM   24  O1  UNL     1      20.175   3.684  50.806  1.00  0.00    -0.345 OA
BRANCH  24  25
HETATM   25  C7  UNL     1      20.499   2.425  51.319  1.00  0.00     0.069 A 
HETATM   26  C8  UNL     1      20.418   2.357  52.708  1.00  0.00     0.037 A 
HETATM   27  C9  UNL     1      20.725   1.135  53.301  1.00  0.00     0.003 A 
HETATM   28  C10 UNL     1      21.091   0.059  52.507  1.00  0.00     0.000 A 
HETATM   29  C11 UNL     1      21.168   0.133  51.140  1.00  0.00     0.003 A 
HETATM   30  C12 UNL     1      20.862   1.348  50.538  1.00  0.00     0.037 A 
ENDBRANCH  24  25
ENDBRANCH  23  24
ENDBRANCH   8  23
TORSDOF 6
ENDMDL
MODEL 4
REMARK VINA RESULT:      -8.0      4.121      8.385
REMARK  6 active torsions:
REMARK  status: ('A' for Active; 'I' for Inactive)
REMARK    1  A    between atoms: C5_8  and  C6_9 
REMARK    2  A    between atoms: C6_9  and  O1_10 
REMARK    3  A    between atoms: O1_10  and  C7_11 
REMARK       I    between atoms: N3_19  and  C15_20 
REMARK    4  A    between atoms: C15_20  and  C16_22 
REMARK    5  A    between atoms: C17_23  and  C18_24 
REMARK    6  A    between atoms: C18_24  and  N4_25 
ROOT
HETATM    1  C1  UNL     1      22.434   0.370  53.475  1.00  0.00     0.044 C 
HETATM    2  C2  UNL     1      21.585   1.270  52.660  1.00  0.00     0.152 C 
HETATM    3  S1  UNL     1      21.126   0.548  51.034  1.00  0.00    -0.084 SA
HETATM    4  C3  UNL     1      20.873   2.011  49.997  1.00  0.00     0.106 A 
HETATM    5  N1  UNL     1      20.601   1.706  48.703  1.00  0.00    -0.234 NA
HETATM    6  C4  UNL     1      20.385   2.704  47.808  1.00  0.00     0.234 A 
HETATM    7  N2  UNL     1      20.440   4.004  48.203  1.00  0.00    -0.244 NA
HETATM    8  C5  UNL     1      20.712   4.293  49.486  1.00  0.00     0.070 A 
HETATM    9  C13 UNL     1      20.941   3.338  50.446  1.00  0.00     0.022 A 
HETATM   10  C14 UNL     1      21.238   3.491  51.872  1.00  0.00     0.171 C 
HETATM   11  N3  UNL     1      22.230   2.556  52.352  1.00  0.00    -0.331 N 
HETATM   12  C15 UNL     1      23.583   3.060  52.412  1.00  0.00     0.244 C 
HETATM   13  O2  UNL     1      23.373   4.248  51.978  1.00  0.00    -0.268 OA
ENDROOT
BRANCH  12  14
HETATM   14  C16 UNL     1      24.887   2.537  52.808  1.00  0.00     0.072 C 
HETATM   15  C17 UNL     1      25.759   2.326  53.814  1.00  0.00     0.008 C 
BRANCH  15  16
HETATM   16  C18 UNL     1      27.080   1.693  53.662  1.00  0.00     0.300 C 
BRANCH  16  17
HETATM   17  N4  UNL     1      27.169   0.563  54.556  1.00  0.00     0.096 N 
HETATM   18  C19 UNL     1      26.243  -0.497  54.253  1.00  0.00     0.299 C 
HETATM   19  C20 UNL     1      26.730  -1.223  53.025  1.00  0.00     0.198 C 
HETATM   20  O3  UNL     1      28.004  -1.739  53.184  1.00  0.00    -0.388 OA
HETATM   21  C21 UNL     1      28.946  -0.781  53.486  1.00  0.00     0.198 C 
HETATM   22  C22 UNL     1      28.483   0.011  54.694  1.00  0.00     0.299 C 
ENDBRANCH  16  17
ENDBRANCH  15  16
ENDBRANCH  12  14
BRANCH   8  23
HETATM   23  C6  UNL     1      20.776   5.710  49.925  1.00  0.00     0.235 C 
BRANCH  23  24
HETATM   24  O1  UNL     1      21.684   6.425  49.094  1.00  0.00    -0.345 OA
BRANCH  24  25
HETATM   25  C7  UNL     1      23.040   6.524  49.420  1.00  0.00     0.069 A 
HETATM   26  C8  UNL     1      23.857   5.711  48.638  1.00  0.00     0.037 A 
HETATM   27  C9  UNL     1      25.225   5.750  48.898  1.00  0.00     0.003 A 
HETATM   28  C10 UNL     1      25.709   6.576  49.900  1.00  0.00     0.000 A 
HETATM   29  C11 UNL     1      24.899   7.375  50.665  1.00  0.00     0.003 A 
HETATM   30  C12 UNL     1      23.532   7.344  50.413  1.00  0.00     0.037 A 
ENDBRANCH  24  25
ENDBRANCH  23  24
ENDBRANCH   8  23
TORSDOF 6
ENDMDL
MODEL 5
REMARK VINA RESULT:      -7.8      3.352      8.068
REMARK  6 active torsions:
REMARK  status: ('A' for Active; 'I' for Inactive)
REMARK    1  A    between atoms: C5_8  and  C6_9 
REMARK    2  A    between atoms: C6_9  and  O1_10 
REMARK    3  A    between atoms: O1_10  and  C7_11 
REMARK       I    between atoms: N3_19  and  C15_20 
REMARK    4  A    between atoms: C15_20  and  C16_22 
REMARK    5  A    between atoms: C17_23  and  C18_24 
REMARK    6  A    between atoms: C18_24  and  N4_25 
ROOT
HETATM    1  C1  UNL     1      22.296   0.232  53.446  1.00  0.00     0.044 C 
HETATM    2  C2  UNL     1      21.898   1.306  52.505  1.00  0.00     0.152 C 
HETATM    3  S1  UNL     1      21.520   0.681  50.820  1.00  0.00    -0.084 SA
HETATM    4  C3  UNL     1      21.886   2.108  49.766  1.00  0.00     0.106 A 
HETATM    5  N1  UNL     1      21.753   1.842  48.442  1.00  0.00    -0.234 NA
HETATM    6  C4  UNL     1      21.993   2.819  47.532  1.00  0.00     0.234 A 
HETATM    7  N2  UNL     1      22.365   4.062  47.940  1.00  0.00    -0.244 NA
HETATM    8  C5  UNL     1      22.495   4.313  49.254  1.00  0.00     0.070 A 
HETATM    9  C13 UNL     1      22.269   3.375  50.231  1.00  0.00     0.022 A 
HETATM   10  C14 UNL     1      22.359   3.495  51.687  1.00  0.00     0.171 C 
HETATM   11  N3  UNL     1      22.936   2.331  52.321  1.00  0.00    -0.331 N 
HETATM   12  C15 UNL     1      24.349   2.419  52.615  1.00  0.00     0.244 C 
HETATM   13  O2  UNL     1      24.575   3.596  52.161  1.00  0.00    -0.268 OA
ENDROOT
BRANCH  12  14
HETATM   14  C16 UNL     1      25.356   1.553  53.223  1.00  0.00     0.072 C 
HETATM   15  C17 UNL     1      26.105   1.288  54.310  1.00  0.00     0.008 C 
BRANCH  15  16
HETATM   16  C18 UNL     1      27.068   0.178  54.417  1.00  0.00     0.300 C 
BRANCH  16  17
HETATM   17  N4  UNL     1      27.750   0.020  53.154  1.00  0.00     0.096 N 
HETATM   18  C19 UNL     1      29.182   0.134  53.245  1.00  0.00     0.299 C 
HETATM   19  C20 UNL     1      29.725  -1.119  53.882  1.00  0.00     0.198 C 
HETATM   20  O3  UNL     1      29.385  -2.261  53.177  1.00  0.00    -0.388 OA
HETATM   21  C21 UNL     1      28.026  -2.434  53.041  1.00  0.00     0.198 C 
HETATM   22  C22 UNL     1      27.421  -1.179  52.442  1.00  0.00     0.299 C 
ENDBRANCH  16  17
ENDBRANCH  15  16
ENDBRANCH  12  14
BRANCH   8  23
HETATM   23  C6  UNL     1      22.903   5.666  49.708  1.00  0.00     0.235 C 
BRANCH  23  24
HETATM   24  O1  UNL     1      23.771   6.251  48.743  1.00  0.00    -0.345 OA
BRANCH  24  25
HETATM   25  C7  UNL     1      25.133   5.937  48.709  1.00  0.00     0.069 A 
HETATM   26  C8  UNL     1      25.920   6.951  48.168  1.00  0.00     0.037 A 
HETATM   27  C9  UNL     1      27.292   6.720  48.098  1.00  0.00     0.003 A 
HETATM   28  C10 UNL     1      27.809   5.520  48.559  1.00  0.00     0.000 A 
HETATM   29  C11 UNL     1      27.029   4.526  49.091  1.00  0.00     0.003 A 
HETATM   30  C12 UNL     1      25.658   4.748  49.166  1.00  0.00     0.037 A 
ENDBRANCH  24  25
ENDBRANCH  23  24
ENDBRANCH   8  23
TORSDOF 6
ENDMDL
MODEL 6
REMARK VINA RESULT:      -7.5      2.817      8.125
REMARK  6 active torsions:
REMARK  status: ('A' for Active; 'I' for Inactive)
REMARK    1  A    between atoms: C5_8  and  C6_9 
REMARK    2  A    between atoms: C6_9  and  O1_10 
REMARK    3  A    between atoms: O1_10  and  C7_11 
REMARK       I    between atoms: N3_19  and  C15_20 
REMARK    4  A    between atoms: C15_20  and  C16_22 
REMARK    5  A    between atoms: C17_23  and  C18_24 
REMARK    6  A    between atoms: C18_24  and  N4_25 
ROOT
HETATM    1  C1  UNL     1      20.920   3.418  52.168  1.00  0.00     0.044 C 
HETATM    2  C2  UNL     1      21.079   4.536  51.208  1.00  0.00     0.152 C 
HETATM    3  S1  UNL     1      20.536   4.105  49.507  1.00  0.00    -0.084 SA
HETATM    4  C3  UNL     1      21.542   5.200  48.471  1.00  0.00     0.106 A 
HETATM    5  N1  UNL     1      21.361   4.991  47.142  1.00  0.00    -0.234 NA
HETATM    6  C4  UNL     1      22.048   5.742  46.244  1.00  0.00     0.234 A 
HETATM    7  N2  UNL     1      22.913   6.700  46.669  1.00  0.00    -0.244 NA
HETATM    8  C5  UNL     1      23.084   6.898  47.987  1.00  0.00     0.070 A 
HETATM    9  C13 UNL     1      22.425   6.177  48.953  1.00  0.00     0.022 A 
HETATM   10  C14 UNL     1      22.496   6.277  50.412  1.00  0.00     0.171 C 
HETATM   11  N3  UNL     1      22.470   4.993  51.074  1.00  0.00    -0.331 N 
HETATM   12  C15 UNL     1      23.762   4.453  51.436  1.00  0.00     0.244 C 
HETATM   13  O2  UNL     1      24.505   5.400  50.992  1.00  0.00    -0.268 OA
ENDROOT
BRANCH  12  14
HETATM   14  C16 UNL     1      24.255   3.246  52.092  1.00  0.00     0.072 C 
HETATM   15  C17 UNL     1      24.661   2.675  53.242  1.00  0.00     0.008 C 
BRANCH  15  16
HETATM   16  C18 UNL     1      25.103   1.276  53.376  1.00  0.00     0.300 C 
BRANCH  16  17
HETATM   17  N4  UNL     1      26.419   1.138  52.798  1.00  0.00     0.096 N 
HETATM   18  C19 UNL     1      27.493   1.368  53.729  1.00  0.00     0.299 C 
HETATM   19  C20 UNL     1      27.594   0.179  54.649  1.00  0.00     0.198 C 
HETATM   20  O3  UNL     1      27.807  -1.005  53.965  1.00  0.00    -0.388 OA
HETATM   21  C21 UNL     1      26.821  -1.288  53.046  1.00  0.00     0.198 C 
HETATM   22  C22 UNL     1      26.647  -0.102  52.118  1.00  0.00     0.299 C 
ENDBRANCH  16  17
ENDBRANCH  15  16
ENDBRANCH  12  14
BRANCH   8  23
HETATM   23  C6  UNL     1      24.029   7.941  48.460  1.00  0.00     0.235 C 
BRANCH  23  24
HETATM   24  O1  UNL     1      25.074   8.103  47.507  1.00  0.00    -0.345 OA
BRANCH  24  25
HETATM   25  C7  UNL     1      26.309   7.468  47.671  1.00  0.00     0.069 A 
HETATM   26  C8  UNL     1      27.356   8.120  47.022  1.00  0.00     0.037 A 
HETATM   27  C9  UNL     1      28.622   7.553  47.135  1.00  0.00     0.003 A 
HETATM   28  C10 UNL     1      28.790   6.390  47.870  1.00  0.00     0.000 A 
HETATM   29  C11 UNL     1      27.755   5.754  48.507  1.00  0.00     0.003 A 
HETATM   30  C12 UNL     1      26.487   6.313  48.401  1.00  0.00     0.037 A 
ENDBRANCH  24  25
ENDBRANCH  23  24
ENDBRANCH   8  23
TORSDOF 6
ENDMDL
MODEL 7
REMARK VINA RESULT:      -7.4     21.175     24.703
REMARK  6 active torsions:
REMARK  status: ('A' for Active; 'I' for Inactive)
REMARK    1  A    between atoms: C5_8  and  C6_9 
REMARK    2  A    between atoms: C6_9  and  O1_10 
REMARK    3  A    between atoms: O1_10  and  C7_11 
REMARK       I    between atoms: N3_19  and  C15_20 
REMARK    4  A    between atoms: C15_20  and  C16_22 
REMARK    5  A    between atoms: C17_23  and  C18_24 
REMARK    6  A    between atoms: C18_24  and  N4_25 
ROOT
HETATM    1  C1  UNL     1      42.367   0.375  71.200  1.00  0.00     0.044 C 
HETATM    2  C2  UNL     1      43.015   1.659  70.841  1.00  0.00     0.152 C 
HETATM    3  S1  UNL     1      41.960   3.120  71.201  1.00  0.00    -0.084 SA
HETATM    4  C3  UNL     1      42.539   4.344  69.997  1.00  0.00     0.106 A 
HETATM    5  N1  UNL     1      41.827   5.499  70.028  1.00  0.00    -0.234 NA
HETATM    6  C4  UNL     1      42.149   6.510  69.182  1.00  0.00     0.234 A 
HETATM    7  N2  UNL     1      43.180   6.370  68.306  1.00  0.00    -0.244 NA
HETATM    8  C5  UNL     1      43.876   5.221  68.284  1.00  0.00     0.070 A 
HETATM    9  C13 UNL     1      43.608   4.157  69.109  1.00  0.00     0.022 A 
HETATM   10  C14 UNL     1      44.272   2.856  69.211  1.00  0.00     0.171 C 
HETATM   11  N3  UNL     1      43.353   1.760  69.413  1.00  0.00    -0.331 N 
HETATM   12  C15 UNL     1      42.973   1.037  68.220  1.00  0.00     0.244 C 
HETATM   13  O2  UNL     1      43.653   1.702  67.360  1.00  0.00    -0.268 OA
ENDROOT
BRANCH  12  14
HETATM   14  C16 UNL     1      42.111  -0.098  67.903  1.00  0.00     0.072 C 
HETATM   15  C17 UNL     1      41.881  -1.416  68.060  1.00  0.00     0.008 C 
BRANCH  15  16
HETATM   16  C18 UNL     1      40.751  -2.148  67.464  1.00  0.00     0.300 C 
BRANCH  16  17
HETATM   17  N4  UNL     1      39.552  -1.863  68.218  1.00  0.00     0.096 N 
HETATM   18  C19 UNL     1      38.590  -1.062  67.506  1.00  0.00     0.299 C 
HETATM   19  C20 UNL     1      37.926  -1.924  66.462  1.00  0.00     0.198 C 
HETATM   20  O3  UNL     1      37.306  -3.034  67.008  1.00  0.00    -0.388 OA
HETATM   21  C21 UNL     1      38.164  -3.846  67.715  1.00  0.00     0.198 C 
HETATM   22  C22 UNL     1      38.894  -3.017  68.754  1.00  0.00     0.299 C 
ENDBRANCH  16  17
ENDBRANCH  15  16
ENDBRANCH  12  14
BRANCH   8  23
HETATM   23  C6  UNL     1      45.002   5.060  67.330  1.00  0.00     0.235 C 
BRANCH  23  24
HETATM   24  O1  UNL     1      44.487   4.825  66.023  1.00  0.00    -0.345 OA
BRANCH  24  25
HETATM   25  C7  UNL     1      44.962   5.539  64.918  1.00  0.00     0.069 A 
HETATM   26  C8  UNL     1      45.342   4.723  63.855  1.00  0.00     0.037 A 
HETATM   27  C9  UNL     1      45.826   5.356  62.713  1.00  0.00     0.003 A 
HETATM   28  C10 UNL     1      45.910   6.739  62.678  1.00  0.00     0.000 A 
HETATM   29  C11 UNL     1      45.533   7.536  63.728  1.00  0.00     0.003 A 
HETATM   30  C12 UNL     1      45.048   6.914  64.873  1.00  0.00     0.037 A 
ENDBRANCH  24  25
ENDBRANCH  23  24
ENDBRANCH   8  23
TORSDOF 6
ENDMDL
MODEL 8
REMARK VINA RESULT:      -7.3      2.111      2.675
REMARK  6 active torsions:
REMARK  status: ('A' for Active; 'I' for Inactive)
REMARK    1  A    between atoms: C5_8  and  C6_9 
REMARK    2  A    between atoms: C6_9  and  O1_10 
REMARK    3  A    between atoms: O1_10  and  C7_11 
REMARK       I    between atoms: N3_19  and  C15_20 
REMARK    4  A    between atoms: C15_20  and  C16_22 
REMARK    5  A    between atoms: C17_23  and  C18_24 
REMARK    6  A    between atoms: C18_24  and  N4_25 
ROOT
HETATM    1  C1  UNL     1      23.312   6.318  47.584  1.00  0.00     0.044 C 
HETATM    2  C2  UNL     1      22.896   5.057  48.243  1.00  0.00     0.152 C 
HETATM    3  S1  UNL     1      21.346   5.233  49.213  1.00  0.00    -0.084 SA
HETATM    4  C3  UNL     1      21.517   3.955  50.486  1.00  0.00     0.106 A 
HETATM    5  N1  UNL     1      20.500   3.958  51.385  1.00  0.00    -0.234 NA
HETATM    6  C4  UNL     1      20.494   3.053  52.396  1.00  0.00     0.234 A 
HETATM    7  N2  UNL     1      21.499   2.145  52.511  1.00  0.00    -0.244 NA
HETATM    8  C5  UNL     1      22.501   2.152  51.616  1.00  0.00     0.070 A 
HETATM    9  C13 UNL     1      22.574   3.038  50.568  1.00  0.00     0.022 A 
HETATM   10  C14 UNL     1      23.584   3.166  49.516  1.00  0.00     0.171 C 
HETATM   11  N3  UNL     1      23.896   4.539  49.189  1.00  0.00    -0.331 N 
HETATM   12  C15 UNL     1      25.065   5.086  49.841  1.00  0.00     0.244 C 
HETATM   13  O2  UNL     1      25.411   4.057  50.523  1.00  0.00    -0.268 OA
ENDROOT
BRANCH  12  14
HETATM   14  C16 UNL     1      25.769   6.364  49.846  1.00  0.00     0.072 C 
HETATM   15  C17 UNL     1      25.810   7.627  50.313  1.00  0.00     0.008 C 
BRANCH  15  16
HETATM   16  C18 UNL     1      26.844   8.617  49.971  1.00  0.00     0.300 C 
BRANCH  16  17
HETATM   17  N4  UNL     1      27.447   8.255  48.710  1.00  0.00     0.096 N 
HETATM   18  C19 UNL     1      27.060   9.102  47.612  1.00  0.00     0.299 C 
HETATM   19  C20 UNL     1      27.764  10.426  47.755  1.00  0.00     0.198 C 
HETATM   20  O3  UNL     1      29.141  10.293  47.786  1.00  0.00    -0.388 OA
HETATM   21  C21 UNL     1      29.588   9.486  48.808  1.00  0.00     0.198 C 
HETATM   22  C22 UNL     1      28.876   8.150  48.737  1.00  0.00     0.299 C 
ENDBRANCH  16  17
ENDBRANCH  15  16
ENDBRANCH  12  14
BRANCH   8  23
HETATM   23  C6  UNL     1      23.603   1.166  51.736  1.00  0.00     0.235 C 
BRANCH  23  24
HETATM   24  O1  UNL     1      24.256   1.332  52.990  1.00  0.00    -0.345 OA
BRANCH  24  25
HETATM   25  C7  UNL     1      25.643   1.194  53.109  1.00  0.00     0.069 A 
HETATM   26  C8  UNL     1      26.105  -0.071  52.753  1.00  0.00     0.037 A 
HETATM   27  C9  UNL     1      27.477  -0.293  52.842  1.00  0.00     0.003 A 
HETATM   28  C10 UNL     1      28.310   0.728  53.271  1.00  0.00     0.000 A 
HETATM   29  C11 UNL     1      27.849   1.972  53.618  1.00  0.00     0.003 A 
HETATM   30  C12 UNL     1      26.481   2.203  53.532  1.00  0.00     0.037 A 
ENDBRANCH  24  25
ENDBRANCH  23  24
ENDBRANCH   8  23
TORSDOF 6
ENDMDL
MODEL 9
REMARK VINA RESULT:      -7.1      3.142      4.393
REMARK  6 active torsions:
REMARK  status: ('A' for Active; 'I' for Inactive)
REMARK    1  A    between atoms: C5_8  and  C6_9 
REMARK    2  A    between atoms: C6_9  and  O1_10 
REMARK    3  A    between atoms: O1_10  and  C7_11 
REMARK       I    between atoms: N3_19  and  C15_20 
REMARK    4  A    between atoms: C15_20  and  C16_22 
REMARK    5  A    between atoms: C17_23  and  C18_24 
REMARK    6  A    between atoms: C18_24  and  N4_25 
ROOT
HETATM    1  C1  UNL     1      28.665   8.208  46.581  1.00  0.00     0.044 C 
HETATM    2  C2  UNL     1      27.382   7.696  47.118  1.00  0.00     0.152 C 
HETATM    3  S1  UNL     1      26.539   8.893  48.228  1.00  0.00    -0.084 SA
HETATM    4  C3  UNL     1      25.571   7.820  49.320  1.00  0.00     0.106 A 
HETATM    5  N1  UNL     1      24.917   8.502  50.295  1.00  0.00    -0.234 NA
HETATM    6  C4  UNL     1      24.148   7.828  51.188  1.00  0.00     0.234 A 
HETATM    7  N2  UNL     1      24.031   6.475  51.109  1.00  0.00    -0.244 NA
HETATM    8  C5  UNL     1      24.684   5.811  50.141  1.00  0.00     0.070 A 
HETATM    9  C13 UNL     1      25.478   6.425  49.204  1.00  0.00     0.022 A 
HETATM   10  C14 UNL     1      26.239   5.848  48.094  1.00  0.00     0.171 C 
HETATM   11  N3  UNL     1      27.533   6.465  47.908  1.00  0.00    -0.331 N 
HETATM   12  C15 UNL     1      28.646   5.775  48.521  1.00  0.00     0.244 C 
HETATM   13  O2  UNL     1      28.008   4.793  49.044  1.00  0.00    -0.268 OA
ENDROOT
BRANCH  12  14
HETATM   14  C16 UNL     1      30.089   5.978  48.620  1.00  0.00     0.072 C 
HETATM   15  C17 UNL     1      31.279   5.928  47.991  1.00  0.00     0.008 C 
BRANCH  15  16
HETATM   16  C18 UNL     1      32.571   6.272  48.609  1.00  0.00     0.300 C 
BRANCH  16  17
HETATM   17  N4  UNL     1      33.629   6.039  47.655  1.00  0.00     0.096 N 
HETATM   18  C19 UNL     1      34.263   7.241  47.180  1.00  0.00     0.299 C 
HETATM   19  C20 UNL     1      35.147   7.782  48.275  1.00  0.00     0.198 C 
HETATM   20  O3  UNL     1      36.105   6.871  48.682  1.00  0.00    -0.388 OA
HETATM   21  C21 UNL     1      35.572   5.688  49.142  1.00  0.00     0.198 C 
HETATM   22  C22 UNL     1      34.637   5.120  48.092  1.00  0.00     0.299 C 
ENDBRANCH  16  17
ENDBRANCH  15  16
ENDBRANCH  12  14
BRANCH   8  23
HETATM   23  C6  UNL     1      24.562   4.335  50.050  1.00  0.00     0.235 C 
BRANCH  23  24
HETATM   24  O1  UNL     1      24.300   3.798  51.342  1.00  0.00    -0.345 OA
BRANCH  24  25
HETATM   25  C7  UNL     1      24.822   2.561  51.732  1.00  0.00     0.069 A 
HETATM   26  C8  UNL     1      26.147   2.374  51.344  1.00  0.00     0.037 A 
HETATM   27  C9  UNL     1      26.745   1.166  51.694  1.00  0.00     0.003 A 
HETATM   28  C10 UNL     1      26.017   0.219  52.398  1.00  0.00     0.000 A 
HETATM   29  C11 UNL     1      24.714   0.410  52.777  1.00  0.00     0.003 A 
HETATM   30  C12 UNL     1      24.108   1.613  52.433  1.00  0.00     0.037 A 
ENDBRANCH  24  25
ENDBRANCH  23  24
ENDBRANCH   8  23
TORSDOF 6
ENDMDL
