MODEL 1
REMARK VINA RESULT:      -8.9      0.000      0.000
REMARK  2 active torsions:
REMARK  status: ('A' for Active; 'I' for Inactive)
REMARK    1  A    between atoms: C6_9  and  N4_10 
REMARK    2  A    between atoms: N4_10  and  C7_11 
ROOT
HETATM    1  C1  UNL     1      20.053   1.986  49.030  1.00  0.00     0.185 C 
HETATM    2  N1  UNL     1      19.671   2.615  50.283  1.00  0.00    -0.223 N 
HETATM    3  N2  UNL     1      19.017   1.458  50.843  1.00  0.00    -0.063 NA
HETATM    4  N3  UNL     1      19.816   0.770  51.510  1.00  0.00    -0.132 NA
HETATM    5  C2  UNL     1      21.188   1.068  51.705  1.00  0.00     0.086 C 
HETATM    6  C3  UNL     1      21.818   0.039  52.381  1.00  0.00     0.008 C 
HETATM    7  C4  UNL     1      22.750  -0.832  53.060  1.00  0.00     0.037 C 
HETATM    8  C5  UNL     1      23.944  -0.402  53.786  1.00  0.00     0.082 C 
HETATM    9  C6  UNL     1      24.986   0.455  53.346  1.00  0.00     0.102 C 
HETATM   10  N5  UNL     1      24.834   1.062  52.243  1.00  0.00    -0.245 NA
HETATM   11  C13 UNL     1      25.700   1.965  51.594  1.00  0.00     0.271 C 
HETATM   12  N6  UNL     1      24.609   2.523  51.074  1.00  0.00    -0.294 NA
HETATM   13  C14 UNL     1      23.459   1.909  51.462  1.00  0.00     0.187 C 
HETATM   14  C15 UNL     1      22.054   2.215  51.210  1.00  0.00     0.006 C 
HETATM   15  C16 UNL     1      22.216   3.371  50.598  1.00  0.00     0.094 C 
HETATM   16  N7  UNL     1      21.535   4.434  49.898  1.00  0.00    -0.389 N 
HETATM   17  C17 UNL     1      20.691   4.883  50.994  1.00  0.00     0.223 C 
HETATM   18  C18 UNL     1      19.737   3.725  51.169  1.00  0.00     0.258 C 
HETATM   19  O1  UNL     1      18.889   3.526  52.043  1.00  0.00    -0.270 OA
HETATM   20  H19 UNL     1      21.638   4.739  48.930  1.00  0.00     0.159 HD
ENDROOT
BRANCH   9  21
HETATM   21  N4  UNL     1      26.136   0.596  54.180  1.00  0.00    -0.345 N 
HETATM   22  H9  UNL     1      26.130   1.210  55.027  1.00  0.00     0.167 HD
BRANCH  21  23
HETATM   23  C7  UNL     1      27.315  -0.113  53.853  1.00  0.00     0.033 A 
HETATM   24  C8  UNL     1      28.519   0.471  54.181  1.00  0.00     0.029 A 
HETATM   25  C9  UNL     1      29.768  -0.062  53.948  1.00  0.00     0.002 A 
HETATM   26  C10 UNL     1      29.773  -1.308  53.320  1.00  0.00     0.000 A 
HETATM   27  C11 UNL     1      28.598  -1.957  52.959  1.00  0.00     0.002 A 
HETATM   28  C12 UNL     1      27.390  -1.342  53.236  1.00  0.00     0.029 A 
ENDBRANCH  21  23
ENDBRANCH   9  21
TORSDOF 2
ENDMDL
MODEL 2
REMARK VINA RESULT:      -8.4      3.122      4.373
REMARK  2 active torsions:
REMARK  status: ('A' for Active; 'I' for Inactive)
REMARK    1  A    between atoms: C6_9  and  N4_10 
REMARK    2  A    between atoms: N4_10  and  C7_11 
ROOT
HETATM    1  C1  UNL     1      23.659   8.296  50.108  1.00  0.00     0.185 C 
HETATM    2  N1  UNL     1      22.925   7.429  49.202  1.00  0.00    -0.223 N 
HETATM    3  N2  UNL     1      23.939   7.386  48.176  1.00  0.00    -0.063 NA
HETATM    4  N3  UNL     1      24.717   6.427  48.355  1.00  0.00    -0.132 NA
HETATM    5  C2  UNL     1      24.635   5.492  49.418  1.00  0.00     0.086 C 
HETATM    6  C3  UNL     1      25.722   4.638  49.400  1.00  0.00     0.008 C 
HETATM    7  C4  UNL     1      26.702   3.606  49.652  1.00  0.00     0.037 C 
HETATM    8  C5  UNL     1      26.438   2.321  50.296  1.00  0.00     0.082 C 
HETATM    9  C6  UNL     1      25.779   2.067  51.527  1.00  0.00     0.102 C 
HETATM   10  N5  UNL     1      25.201   3.036  52.106  1.00  0.00    -0.245 NA
HETATM   11  C13 UNL     1      24.476   3.051  53.315  1.00  0.00     0.271 C 
HETATM   12  N6  UNL     1      23.774   4.055  52.795  1.00  0.00    -0.294 NA
HETATM   13  C14 UNL     1      24.179   4.398  51.543  1.00  0.00     0.187 C 
HETATM   14  C15 UNL     1      23.662   5.366  50.580  1.00  0.00     0.006 C 
HETATM   15  C16 UNL     1      22.575   5.723  51.231  1.00  0.00     0.094 C 
HETATM   16  N7  UNL     1      21.446   6.624  51.226  1.00  0.00    -0.389 N 
HETATM   17  C17 UNL     1      20.822   6.152  49.999  1.00  0.00     0.223 C 
HETATM   18  C18 UNL     1      21.805   6.594  48.940  1.00  0.00     0.258 C 
HETATM   19  O1  UNL     1      21.828   6.345  47.732  1.00  0.00    -0.270 OA
HETATM   20  H19 UNL     1      21.202   7.357  51.892  1.00  0.00     0.159 HD
ENDROOT
BRANCH   9  21
HETATM   21  N4  UNL     1      25.789   0.730  52.030  1.00  0.00    -0.345 N 
HETATM   22  H9  UNL     1      24.934   0.128  52.009  1.00  0.00     0.167 HD
BRANCH  21  23
HETATM   23  C7  UNL     1      26.986   0.208  52.572  1.00  0.00     0.033 A 
HETATM   24  C8  UNL     1      27.891   1.106  53.093  1.00  0.00     0.029 A 
HETATM   25  C9  UNL     1      29.105   0.792  53.665  1.00  0.00     0.002 A 
HETATM   26  C10 UNL     1      29.410  -0.569  53.700  1.00  0.00     0.000 A 
HETATM   27  C11 UNL     1      28.545  -1.532  53.193  1.00  0.00     0.002 A 
HETATM   28  C12 UNL     1      27.347  -1.120  52.639  1.00  0.00     0.029 A 
ENDBRANCH  21  23
ENDBRANCH   9  21
TORSDOF 2
ENDMDL
MODEL 3
REMARK VINA RESULT:      -8.2      1.347      2.852
REMARK  2 active torsions:
REMARK  status: ('A' for Active; 'I' for Inactive)
REMARK    1  A    between atoms: C6_9  and  N4_10 
REMARK    2  A    between atoms: N4_10  and  C7_11 
ROOT
HETATM    1  C1  UNL     1      19.637   3.999  51.449  1.00  0.00     0.185 C 
HETATM    2  N1  UNL     1      19.828   3.188  50.260  1.00  0.00    -0.223 N 
HETATM    3  N2  UNL     1      20.798   4.055  49.637  1.00  0.00    -0.063 NA
HETATM    4  N3  UNL     1      21.960   3.734  49.961  1.00  0.00    -0.132 NA
HETATM    5  C2  UNL     1      22.303   2.663  50.824  1.00  0.00     0.086 C 
HETATM    6  C3  UNL     1      23.662   2.660  51.079  1.00  0.00     0.008 C 
HETATM    7  C4  UNL     1      25.006   2.381  51.532  1.00  0.00     0.037 C 
HETATM    8  C5  UNL     1      25.522   1.065  51.904  1.00  0.00     0.082 C 
HETATM    9  C6  UNL     1      24.967   0.119  52.805  1.00  0.00     0.102 C 
HETATM   10  N5  UNL     1      23.803   0.339  53.258  1.00  0.00    -0.245 NA
HETATM   11  C13 UNL     1      23.030  -0.436  54.147  1.00  0.00     0.271 C 
HETATM   12  N6  UNL     1      21.960   0.066  53.535  1.00  0.00    -0.294 NA
HETATM   13  C14 UNL     1      22.273   0.936  52.538  1.00  0.00     0.187 C 
HETATM   14  C15 UNL     1      21.448   1.651  51.569  1.00  0.00     0.006 C 
HETATM   15  C16 UNL     1      20.290   1.090  51.852  1.00  0.00     0.094 C 
HETATM   16  N7  UNL     1      18.874   1.110  51.566  1.00  0.00    -0.389 N 
HETATM   17  C17 UNL     1      18.953   0.756  50.158  1.00  0.00     0.223 C 
HETATM   18  C18 UNL     1      19.591   1.981  49.547  1.00  0.00     0.258 C 
HETATM   19  O1  UNL     1      19.999   2.168  48.397  1.00  0.00    -0.270 OA
HETATM   20  H19 UNL     1      18.094   1.320  52.188  1.00  0.00     0.159 HD
ENDROOT
BRANCH   9  21
HETATM   21  N4  UNL     1      25.745  -1.033  53.132  1.00  0.00    -0.345 N 
HETATM   22  H9  UNL     1      25.324  -1.990  53.164  1.00  0.00     0.167 HD
BRANCH  21  23
HETATM   23  C7  UNL     1      27.120  -0.875  53.420  1.00  0.00     0.033 A 
HETATM   24  C8  UNL     1      27.471   0.096  54.331  1.00  0.00     0.029 A 
HETATM   25  C9  UNL     1      28.751   0.397  54.742  1.00  0.00     0.002 A 
HETATM   26  C10 UNL     1      29.758  -0.374  54.160  1.00  0.00     0.000 A 
HETATM   27  C11 UNL     1      29.479  -1.372  53.233  1.00  0.00     0.002 A 
HETATM   28  C12 UNL     1      28.161  -1.601  52.883  1.00  0.00     0.029 A 
ENDBRANCH  21  23
ENDBRANCH   9  21
TORSDOF 2
ENDMDL
MODEL 4
REMARK VINA RESULT:      -8.2      5.252      7.605
REMARK  2 active torsions:
REMARK  status: ('A' for Active; 'I' for Inactive)
REMARK    1  A    between atoms: C6_9  and  N4_10 
REMARK    2  A    between atoms: N4_10  and  C7_11 
ROOT
HETATM    1  C1  UNL     1      28.576   8.963  49.215  1.00  0.00     0.185 C 
HETATM    2  N1  UNL     1      27.896   8.742  47.950  1.00  0.00    -0.223 N 
HETATM    3  N2  UNL     1      28.787   7.713  47.475  1.00  0.00    -0.063 NA
HETATM    4  N3  UNL     1      28.385   6.580  47.811  1.00  0.00    -0.132 NA
HETATM    5  C2  UNL     1      27.211   6.318  48.561  1.00  0.00     0.086 C 
HETATM    6  C3  UNL     1      27.123   4.974  48.874  1.00  0.00     0.008 C 
HETATM    7  C4  UNL     1      26.739   3.665  49.351  1.00  0.00     0.037 C 
HETATM    8  C5  UNL     1      25.370   3.215  49.592  1.00  0.00     0.082 C 
HETATM    9  C6  UNL     1      24.352   3.847  50.354  1.00  0.00     0.102 C 
HETATM   10  N5  UNL     1      24.567   5.022  50.777  1.00  0.00    -0.245 NA
HETATM   11  C13 UNL     1      23.730   5.865  51.536  1.00  0.00     0.271 C 
HETATM   12  N6  UNL     1      24.340   6.886  50.938  1.00  0.00    -0.294 NA
HETATM   13  C14 UNL     1      25.304   6.493  50.063  1.00  0.00     0.187 C 
HETATM   14  C15 UNL     1      26.157   7.244  49.146  1.00  0.00     0.006 C 
HETATM   15  C16 UNL     1      25.615   8.434  49.311  1.00  0.00     0.094 C 
HETATM   16  N7  UNL     1      25.726   9.832  48.967  1.00  0.00    -0.389 N 
HETATM   17  C17 UNL     1      25.529   9.698  47.532  1.00  0.00     0.223 C 
HETATM   18  C18 UNL     1      26.788   8.987  47.094  1.00  0.00     0.258 C 
HETATM   19  O1  UNL     1      27.087   8.517  45.992  1.00  0.00    -0.270 OA
HETATM   20  H19 UNL     1      25.896  10.635  49.574  1.00  0.00     0.159 HD
ENDROOT
BRANCH   9  21
HETATM   21  N4  UNL     1      23.140   3.127  50.581  1.00  0.00    -0.345 N 
HETATM   22  H9  UNL     1      22.245   3.395  50.110  1.00  0.00     0.167 HD
BRANCH  21  23
HETATM   23  C7  UNL     1      23.150   2.025  51.466  1.00  0.00     0.033 A 
HETATM   24  C8  UNL     1      22.106   1.130  51.377  1.00  0.00     0.029 A 
HETATM   25  C9  UNL     1      21.941  -0.001  52.147  1.00  0.00     0.002 A 
HETATM   26  C10 UNL     1      22.944  -0.227  53.091  1.00  0.00     0.000 A 
HETATM   27  C11 UNL     1      24.027   0.632  53.238  1.00  0.00     0.002 A 
HETATM   28  C12 UNL     1      24.105   1.743  52.418  1.00  0.00     0.029 A 
ENDBRANCH  21  23
ENDBRANCH   9  21
TORSDOF 2
ENDMDL
MODEL 5
REMARK VINA RESULT:      -8.2      1.582      2.200
REMARK  2 active torsions:
REMARK  status: ('A' for Active; 'I' for Inactive)
REMARK    1  A    between atoms: C6_9  and  N4_10 
REMARK    2  A    between atoms: N4_10  and  C7_11 
ROOT
HETATM    1  C1  UNL     1      21.847   3.702  47.690  1.00  0.00     0.185 C 
HETATM    2  N1  UNL     1      21.459   4.499  48.841  1.00  0.00    -0.223 N 
HETATM    3  N2  UNL     1      20.414   3.614  49.294  1.00  0.00    -0.063 NA
HETATM    4  N3  UNL     1      20.855   2.777  50.107  1.00  0.00    -0.132 NA
HETATM    5  C2  UNL     1      22.202   2.689  50.542  1.00  0.00     0.086 C 
HETATM    6  C3  UNL     1      22.384   1.575  51.339  1.00  0.00     0.008 C 
HETATM    7  C4  UNL     1      22.896   0.525  52.192  1.00  0.00     0.037 C 
HETATM    8  C5  UNL     1      24.023   0.651  53.114  1.00  0.00     0.082 C 
HETATM    9  C6  UNL     1      25.327   1.148  52.855  1.00  0.00     0.102 C 
HETATM   10  N5  UNL     1      25.545   1.695  51.732  1.00  0.00    -0.245 NA
HETATM   11  C13 UNL     1      26.732   2.271  51.234  1.00  0.00     0.271 C 
HETATM   12  N6  UNL     1      25.952   3.075  50.515  1.00  0.00    -0.294 NA
HETATM   13  C14 UNL     1      24.626   2.838  50.699  1.00  0.00     0.187 C 
HETATM   14  C15 UNL     1      23.433   3.509  50.192  1.00  0.00     0.006 C 
HETATM   15  C16 UNL     1      24.023   4.527  49.599  1.00  0.00     0.094 C 
HETATM   16  N7  UNL     1      23.807   5.688  48.767  1.00  0.00    -0.389 N 
HETATM   17  C17 UNL     1      22.957   6.431  49.685  1.00  0.00     0.223 C 
HETATM   18  C18 UNL     1      21.693   5.603  49.704  1.00  0.00     0.258 C 
HETATM   19  O1  UNL     1      20.689   5.713  50.414  1.00  0.00    -0.270 OA
HETATM   20  H19 UNL     1      24.155   5.884  47.829  1.00  0.00     0.159 HD
ENDROOT
BRANCH   9  21
HETATM   21  N4  UNL     1      26.311   1.017  53.881  1.00  0.00    -0.345 N 
HETATM   22  H9  UNL     1      26.267   1.580  54.761  1.00  0.00     0.167 HD
BRANCH  21  23
HETATM   23  C7  UNL     1      27.374   0.101  53.703  1.00  0.00     0.033 A 
HETATM   24  C8  UNL     1      27.070  -1.126  53.158  1.00  0.00     0.029 A 
HETATM   25  C9  UNL     1      27.963  -2.145  52.906  1.00  0.00     0.002 A 
HETATM   26  C10 UNL     1      29.289  -1.869  53.246  1.00  0.00     0.000 A 
HETATM   27  C11 UNL     1      29.670  -0.651  53.800  1.00  0.00     0.002 A 
HETATM   28  C12 UNL     1      28.700   0.310  54.016  1.00  0.00     0.029 A 
ENDBRANCH  21  23
ENDBRANCH   9  21
TORSDOF 2
ENDMDL
MODEL 6
REMARK VINA RESULT:      -7.8      2.531      3.593
REMARK  2 active torsions:
REMARK  status: ('A' for Active; 'I' for Inactive)
REMARK    1  A    between atoms: C6_9  and  N4_10 
REMARK    2  A    between atoms: N4_10  and  C7_11 
ROOT
HETATM    1  C1  UNL     1      16.355  -0.587  49.615  1.00  0.00     0.185 C 
HETATM    2  N1  UNL     1      16.040   0.473  50.557  1.00  0.00    -0.223 N 
HETATM    3  N2  UNL     1      15.784  -0.393  51.682  1.00  0.00    -0.063 NA
HETATM    4  N3  UNL     1      16.823  -0.583  52.347  1.00  0.00    -0.132 NA
HETATM    5  C2  UNL     1      18.095  -0.032  52.055  1.00  0.00     0.086 C 
HETATM    6  C3  UNL     1      19.055  -0.543  52.908  1.00  0.00     0.008 C 
HETATM    7  C4  UNL     1      20.267  -0.870  53.625  1.00  0.00     0.037 C 
HETATM    8  C5  UNL     1      21.422   0.010  53.790  1.00  0.00     0.082 C 
HETATM    9  C6  UNL     1      22.142   0.721  52.795  1.00  0.00     0.102 C 
HETATM   10  N5  UNL     1      21.672   0.740  51.618  1.00  0.00    -0.245 NA
HETATM   11  C13 UNL     1      22.178   1.372  50.464  1.00  0.00     0.271 C 
HETATM   12  N6  UNL     1      20.915   1.471  50.054  1.00  0.00    -0.294 NA
HETATM   13  C14 UNL     1      20.026   0.934  50.932  1.00  0.00     0.187 C 
HETATM   14  C15 UNL     1      18.567   0.886  50.938  1.00  0.00     0.006 C 
HETATM   15  C16 UNL     1      18.345   1.654  49.891  1.00  0.00     0.094 C 
HETATM   16  N7  UNL     1      17.323   2.178  49.014  1.00  0.00    -0.389 N 
HETATM   17  C17 UNL     1      16.584   2.942  50.008  1.00  0.00     0.223 C 
HETATM   18  C18 UNL     1      15.979   1.859  50.870  1.00  0.00     0.258 C 
HETATM   19  O1  UNL     1      15.356   1.951  51.931  1.00  0.00    -0.270 OA
HETATM   20  H19 UNL     1      17.193   2.029  48.014  1.00  0.00     0.159 HD
ENDROOT
BRANCH   9  21
HETATM   21  N4  UNL     1      23.343   1.388  53.184  1.00  0.00    -0.345 N 
HETATM   22  H9  UNL     1      23.327   2.331  53.637  1.00  0.00     0.167 HD
BRANCH  21  23
HETATM   23  C7  UNL     1      24.587   0.757  52.950  1.00  0.00     0.033 A 
HETATM   24  C8  UNL     1      25.595   1.524  52.408  1.00  0.00     0.029 A 
HETATM   25  C9  UNL     1      26.870   1.094  52.112  1.00  0.00     0.002 A 
HETATM   26  C10 UNL     1      27.125  -0.248  52.401  1.00  0.00     0.000 A 
HETATM   27  C11 UNL     1      26.157  -1.082  52.948  1.00  0.00     0.002 A 
HETATM   28  C12 UNL     1      24.904  -0.557  53.211  1.00  0.00     0.029 A 
ENDBRANCH  21  23
ENDBRANCH   9  21
TORSDOF 2
ENDMDL
MODEL 7
REMARK VINA RESULT:      -7.8      4.669      6.783
REMARK  2 active torsions:
REMARK  status: ('A' for Active; 'I' for Inactive)
REMARK    1  A    between atoms: C6_9  and  N4_10 
REMARK    2  A    between atoms: N4_10  and  C7_11 
ROOT
HETATM    1  C1  UNL     1      25.335   8.265  46.772  1.00  0.00     0.185 C 
HETATM    2  N1  UNL     1      25.839   8.950  47.950  1.00  0.00    -0.223 N 
HETATM    3  N2  UNL     1      24.572   9.503  48.360  1.00  0.00    -0.063 NA
HETATM    4  N3  UNL     1      23.979   8.734  49.144  1.00  0.00    -0.132 NA
HETATM    5  C2  UNL     1      24.468   7.479  49.586  1.00  0.00     0.086 C 
HETATM    6  C3  UNL     1      23.513   6.823  50.340  1.00  0.00     0.008 C 
HETATM    7  C4  UNL     1      22.758   5.898  51.155  1.00  0.00     0.037 C 
HETATM    8  C5  UNL     1      23.325   4.929  52.091  1.00  0.00     0.082 C 
HETATM    9  C6  UNL     1      24.348   3.972  51.861  1.00  0.00     0.102 C 
HETATM   10  N5  UNL     1      24.979   4.024  50.762  1.00  0.00    -0.245 NA
HETATM   11  C13 UNL     1      26.031   3.209  50.296  1.00  0.00     0.271 C 
HETATM   12  N6  UNL     1      26.444   4.268  49.603  1.00  0.00    -0.294 NA
HETATM   13  C14 UNL     1      25.648   5.358  49.767  1.00  0.00     0.187 C 
HETATM   14  C15 UNL     1      25.754   6.729  49.277  1.00  0.00     0.006 C 
HETATM   15  C16 UNL     1      26.949   6.645  48.728  1.00  0.00     0.094 C 
HETATM   16  N7  UNL     1      27.932   7.352  47.941  1.00  0.00    -0.389 N 
HETATM   17  C17 UNL     1      28.197   8.431  48.880  1.00  0.00     0.223 C 
HETATM   18  C18 UNL     1      26.903   9.210  48.858  1.00  0.00     0.258 C 
HETATM   19  O1  UNL     1      26.538  10.155  49.563  1.00  0.00    -0.270 OA
HETATM   20  H19 UNL     1      28.296   7.132  47.013  1.00  0.00     0.159 HD
ENDROOT
BRANCH   9  21
HETATM   21  N4  UNL     1      24.618   3.018  52.889  1.00  0.00    -0.345 N 
HETATM   22  H9  UNL     1      25.334   3.197  53.631  1.00  0.00     0.167 HD
BRANCH  21  23
HETATM   23  C7  UNL     1      23.899   1.801  52.905  1.00  0.00     0.033 A 
HETATM   24  C8  UNL     1      24.538   0.693  53.415  1.00  0.00     0.029 A 
HETATM   25  C9  UNL     1      24.006  -0.574  53.517  1.00  0.00     0.002 A 
HETATM   26  C10 UNL     1      22.697  -0.707  53.051  1.00  0.00     0.000 A 
HETATM   27  C11 UNL     1      21.989   0.368  52.523  1.00  0.00     0.002 A 
HETATM   28  C12 UNL     1      22.609   1.603  52.462  1.00  0.00     0.029 A 
ENDBRANCH  21  23
ENDBRANCH   9  21
TORSDOF 2
ENDMDL
MODEL 8
REMARK VINA RESULT:      -7.6      3.090      4.181
REMARK  2 active torsions:
REMARK  status: ('A' for Active; 'I' for Inactive)
REMARK    1  A    between atoms: C6_9  and  N4_10 
REMARK    2  A    between atoms: N4_10  and  C7_11 
ROOT
HETATM    1  C1  UNL     1      22.726   6.213  47.083  1.00  0.00     0.185 C 
HETATM    2  N1  UNL     1      22.804   7.183  48.162  1.00  0.00    -0.223 N 
HETATM    3  N2  UNL     1      21.513   6.884  48.730  1.00  0.00    -0.063 NA
HETATM    4  N3  UNL     1      21.602   6.002  49.608  1.00  0.00    -0.132 NA
HETATM    5  C2  UNL     1      22.803   5.364  50.009  1.00  0.00     0.086 C 
HETATM    6  C3  UNL     1      22.538   4.347  50.906  1.00  0.00     0.008 C 
HETATM    7  C4  UNL     1      22.600   3.246  51.842  1.00  0.00     0.037 C 
HETATM    8  C5  UNL     1      23.731   2.933  52.713  1.00  0.00     0.082 C 
HETATM    9  C6  UNL     1      25.100   2.785  52.367  1.00  0.00     0.102 C 
HETATM   10  N5  UNL     1      25.455   3.095  51.190  1.00  0.00    -0.245 NA
HETATM   11  C13 UNL     1      26.736   3.051  50.603  1.00  0.00     0.271 C 
HETATM   12  N6  UNL     1      26.336   4.060  49.832  1.00  0.00    -0.294 NA
HETATM   13  C14 UNL     1      25.055   4.444  50.078  1.00  0.00     0.187 C 
HETATM   14  C15 UNL     1      24.241   5.531  49.543  1.00  0.00     0.006 C 
HETATM   15  C16 UNL     1      25.172   6.138  48.836  1.00  0.00     0.094 C 
HETATM   16  N7  UNL     1      25.424   7.210  47.901  1.00  0.00    -0.389 N 
HETATM   17  C17 UNL     1      25.049   8.318  48.766  1.00  0.00     0.223 C 
HETATM   18  C18 UNL     1      23.556   8.134  48.905  1.00  0.00     0.258 C 
HETATM   19  O1  UNL     1      22.752   8.726  49.630  1.00  0.00    -0.270 OA
HETATM   20  H19 UNL     1      25.757   7.162  46.938  1.00  0.00     0.159 HD
ENDROOT
BRANCH   9  21
HETATM   21  N4  UNL     1      25.998   2.312  53.372  1.00  0.00    -0.345 N 
HETATM   22  H9  UNL     1      26.238   2.889  54.211  1.00  0.00     0.167 HD
BRANCH  21  23
HETATM   23  C7  UNL     1      26.579   1.031  53.228  1.00  0.00     0.033 A 
HETATM   24  C8  UNL     1      27.901   0.890  53.586  1.00  0.00     0.029 A 
HETATM   25  C9  UNL     1      28.639  -0.273  53.520  1.00  0.00     0.002 A 
HETATM   26  C10 UNL     1      27.947  -1.387  53.043  1.00  0.00     0.000 A 
HETATM   27  C11 UNL     1      26.612  -1.320  52.663  1.00  0.00     0.002 A 
HETATM   28  C12 UNL     1      25.955  -0.107  52.765  1.00  0.00     0.029 A 
ENDBRANCH  21  23
ENDBRANCH   9  21
TORSDOF 2
ENDMDL
MODEL 9
REMARK VINA RESULT:      -7.6      2.355      3.763
REMARK  2 active torsions:
REMARK  status: ('A' for Active; 'I' for Inactive)
REMARK    1  A    between atoms: C6_9  and  N4_10 
REMARK    2  A    between atoms: N4_10  and  C7_11 
ROOT
HETATM    1  C1  UNL     1      16.440   3.003  48.867  1.00  0.00     0.185 C 
HETATM    2  N1  UNL     1      16.065   2.424  50.145  1.00  0.00    -0.223 N 
HETATM    3  N2  UNL     1      16.205   1.048  49.737  1.00  0.00    -0.063 NA
HETATM    4  N3  UNL     1      17.359   0.629  49.963  1.00  0.00    -0.132 NA
HETATM    5  C2  UNL     1      18.407   1.387  50.542  1.00  0.00     0.086 C 
HETATM    6  C3  UNL     1      19.589   0.671  50.532  1.00  0.00     0.008 C 
HETATM    7  C4  UNL     1      20.949   0.201  50.677  1.00  0.00     0.037 C 
HETATM    8  C5  UNL     1      21.890   0.624  51.712  1.00  0.00     0.082 C 
HETATM    9  C6  UNL     1      22.251   1.943  52.094  1.00  0.00     0.102 C 
HETATM   10  N5  UNL     1      21.592   2.908  51.602  1.00  0.00    -0.245 NA
HETATM   11  C13 UNL     1      21.738   4.293  51.822  1.00  0.00     0.271 C 
HETATM   12  N6  UNL     1      20.434   4.394  51.576  1.00  0.00    -0.294 NA
HETATM   13  C14 UNL     1      19.851   3.200  51.285  1.00  0.00     0.187 C 
HETATM   14  C15 UNL     1      18.463   2.826  51.031  1.00  0.00     0.006 C 
HETATM   15  C16 UNL     1      17.898   3.983  51.310  1.00  0.00     0.094 C 
HETATM   16  N7  UNL     1      16.650   4.710  51.313  1.00  0.00    -0.389 N 
HETATM   17  C17 UNL     1      15.943   3.882  52.278  1.00  0.00     0.223 C 
HETATM   18  C18 UNL     1      15.752   2.588  51.522  1.00  0.00     0.258 C 
HETATM   19  O1  UNL     1      15.316   1.502  51.914  1.00  0.00    -0.270 OA
HETATM   20  H19 UNL     1      16.385   5.540  50.782  1.00  0.00     0.159 HD
ENDROOT
BRANCH   9  21
HETATM   21  N4  UNL     1      23.322   2.102  53.025  1.00  0.00    -0.345 N 
HETATM   22  H9  UNL     1      23.257   2.767  53.830  1.00  0.00     0.167 HD
BRANCH  21  23
HETATM   23  C7  UNL     1      24.502   1.342  52.853  1.00  0.00     0.033 A 
HETATM   24  C8  UNL     1      25.405   1.776  51.908  1.00  0.00     0.029 A 
HETATM   25  C9  UNL     1      26.606   1.175  51.598  1.00  0.00     0.002 A 
HETATM   26  C10 UNL     1      26.898   0.024  52.330  1.00  0.00     0.000 A 
HETATM   27  C11 UNL     1      26.035  -0.474  53.300  1.00  0.00     0.002 A 
HETATM   28  C12 UNL     1      24.851   0.200  53.540  1.00  0.00     0.029 A 
ENDBRANCH  21  23
ENDBRANCH   9  21
TORSDOF 2
ENDMDL
