MODEL 1
REMARK VINA RESULT:      -7.7      0.000      0.000
REMARK  5 active torsions:
REMARK  status: ('A' for Active; 'I' for Inactive)
REMARK    1  A    between atoms: O1_2  and  C2_3 
REMARK    2  A    between atoms: C6_7  and  C7_8 
REMARK    3  A    between atoms: C8_11  and  S1_12 
REMARK    4  A    between atoms: S1_12  and  C9_13 
REMARK    5  A    between atoms: C9_13  and  C10_14 
ROOT
HETATM    1  C7  UNL     1      21.420  -0.847  53.745  1.00  0.00     0.203 A 
HETATM    2  N1  UNL     1      21.202  -1.703  54.771  1.00  0.00    -0.120 NA
HETATM    3  N2  UNL     1      22.364  -1.840  55.382  1.00  0.00    -0.114 NA
HETATM    4  C8  UNL     1      23.271  -1.089  54.751  1.00  0.00     0.231 A 
HETATM    5  O2  UNL     1      22.668  -0.492  53.753  1.00  0.00    -0.263 OA
ENDROOT
BRANCH   1   6
HETATM    6  C6  UNL     1      20.307  -0.483  52.858  1.00  0.00     0.021 A 
HETATM    7  C5  UNL     1      18.966  -0.804  53.095  1.00  0.00     0.016 A 
HETATM    8  C4  UNL     1      17.988  -0.427  52.200  1.00  0.00     0.004 A 
HETATM    9  C3  UNL     1      18.317   0.277  51.049  1.00  0.00     0.037 A 
HETATM   10  C2  UNL     1      19.657   0.601  50.806  1.00  0.00     0.069 A 
HETATM   11  C16 UNL     1      20.628   0.213  51.719  1.00  0.00     0.052 A 
BRANCH  10  12
HETATM   12  O1  UNL     1      19.773   1.298  49.613  1.00  0.00    -0.356 OA
HETATM   13  C1  UNL     1      21.009   1.340  48.930  1.00  0.00     0.210 C 
ENDBRANCH  10  12
ENDBRANCH   1   6
BRANCH   4  14
HETATM   14  S1  UNL     1      25.024  -0.675  54.870  1.00  0.00    -0.078 SA
BRANCH  14  15
HETATM   15  C9  UNL     1      25.719  -0.832  53.192  1.00  0.00     0.121 C 
BRANCH  15  16
HETATM   16  C10 UNL     1      27.188  -0.657  53.318  1.00  0.00    -0.049 A 
HETATM   17  C11 UNL     1      27.975  -1.800  53.124  1.00  0.00     0.008 A 
HETATM   18  C12 UNL     1      29.345  -1.821  53.206  1.00  0.00     0.001 A 
HETATM   19  C13 UNL     1      30.026  -0.663  53.497  1.00  0.00     0.000 A 
HETATM   20  C14 UNL     1      29.270   0.489  53.696  1.00  0.00     0.001 A 
HETATM   21  C15 UNL     1      27.897   0.489  53.608  1.00  0.00     0.008 A 
ENDBRANCH  15  16
ENDBRANCH  14  15
ENDBRANCH   4  14
TORSDOF 5
ENDMDL
MODEL 2
REMARK VINA RESULT:      -7.7      4.759      6.129
REMARK  5 active torsions:
REMARK  status: ('A' for Active; 'I' for Inactive)
REMARK    1  A    between atoms: O1_2  and  C2_3 
REMARK    2  A    between atoms: C6_7  and  C7_8 
REMARK    3  A    between atoms: C8_11  and  S1_12 
REMARK    4  A    between atoms: S1_12  and  C9_13 
REMARK    5  A    between atoms: C9_13  and  C10_14 
ROOT
HETATM    1  C7  UNL     1      24.563   2.748  50.725  1.00  0.00     0.203 A 
HETATM    2  N1  UNL     1      23.284   2.403  50.449  1.00  0.00    -0.120 NA
HETATM    3  N2  UNL     1      22.997   1.397  51.255  1.00  0.00    -0.114 NA
HETATM    4  C8  UNL     1      24.070   1.132  52.006  1.00  0.00     0.231 A 
HETATM    5  O2  UNL     1      25.014   1.972  51.661  1.00  0.00    -0.263 OA
ENDROOT
BRANCH   1   6
HETATM    6  C6  UNL     1      25.190   3.851  49.985  1.00  0.00     0.021 A 
HETATM    7  C5  UNL     1      24.537   5.033  49.618  1.00  0.00     0.016 A 
HETATM    8  C4  UNL     1      25.205   6.013  48.916  1.00  0.00     0.004 A 
HETATM    9  C3  UNL     1      26.537   5.843  48.561  1.00  0.00     0.037 A 
HETATM   10  C2  UNL     1      27.197   4.663  48.924  1.00  0.00     0.069 A 
HETATM   11  C16 UNL     1      26.507   3.688  49.632  1.00  0.00     0.052 A 
BRANCH  10  12
HETATM   12  O1  UNL     1      28.509   4.690  48.478  1.00  0.00    -0.356 OA
HETATM   13  C1  UNL     1      29.124   5.917  48.146  1.00  0.00     0.210 C 
ENDBRANCH  10  12
ENDBRANCH   1   6
BRANCH   4  14
HETATM   14  S1  UNL     1      24.577  -0.009  53.309  1.00  0.00    -0.078 SA
BRANCH  14  15
HETATM   15  C9  UNL     1      26.081   0.688  54.067  1.00  0.00     0.121 C 
BRANCH  15  16
HETATM   16  C10 UNL     1      27.190  -0.249  53.758  1.00  0.00    -0.049 A 
HETATM   17  C11 UNL     1      26.856  -1.401  53.034  1.00  0.00     0.008 A 
HETATM   18  C12 UNL     1      27.752  -2.373  52.665  1.00  0.00     0.001 A 
HETATM   19  C13 UNL     1      29.075  -2.244  53.013  1.00  0.00     0.000 A 
HETATM   20  C14 UNL     1      29.438  -1.109  53.733  1.00  0.00     0.001 A 
HETATM   21  C15 UNL     1      28.524  -0.145  54.092  1.00  0.00     0.008 A 
ENDBRANCH  15  16
ENDBRANCH  14  15
ENDBRANCH   4  14
TORSDOF 5
ENDMDL
MODEL 3
REMARK VINA RESULT:      -7.7      3.578      7.947
REMARK  5 active torsions:
REMARK  status: ('A' for Active; 'I' for Inactive)
REMARK    1  A    between atoms: O1_2  and  C2_3 
REMARK    2  A    between atoms: C6_7  and  C7_8 
REMARK    3  A    between atoms: C8_11  and  S1_12 
REMARK    4  A    between atoms: S1_12  and  C9_13 
REMARK    5  A    between atoms: C9_13  and  C10_14 
ROOT
HETATM    1  C7  UNL     1      26.414   2.205  51.917  1.00  0.00     0.203 A 
HETATM    2  N1  UNL     1      26.738   2.865  50.781  1.00  0.00    -0.120 NA
HETATM    3  N2  UNL     1      25.595   3.270  50.258  1.00  0.00    -0.114 NA
HETATM    4  C8  UNL     1      24.597   2.870  51.050  1.00  0.00     0.231 A 
HETATM    5  O2  UNL     1      25.124   2.220  52.058  1.00  0.00    -0.263 OA
ENDROOT
BRANCH   1   6
HETATM    6  C6  UNL     1      27.479   1.622  52.744  1.00  0.00     0.021 A 
HETATM    7  C5  UNL     1      28.400   2.364  53.491  1.00  0.00     0.016 A 
HETATM    8  C4  UNL     1      29.373   1.730  54.233  1.00  0.00     0.004 A 
HETATM    9  C3  UNL     1      29.455   0.344  54.251  1.00  0.00     0.037 A 
HETATM   10  C2  UNL     1      28.537  -0.406  53.506  1.00  0.00     0.069 A 
HETATM   11  C16 UNL     1      27.564   0.251  52.765  1.00  0.00     0.052 A 
BRANCH  10  12
HETATM   12  O1  UNL     1      28.789  -1.761  53.657  1.00  0.00    -0.356 OA
HETATM   13  C1  UNL     1      28.113  -2.705  52.852  1.00  0.00     0.210 C 
ENDBRANCH  10  12
ENDBRANCH   1   6
BRANCH   4  14
HETATM   14  S1  UNL     1      22.796   2.961  51.130  1.00  0.00    -0.078 SA
BRANCH  14  15
HETATM   15  C9  UNL     1      22.170   1.267  50.881  1.00  0.00     0.121 C 
BRANCH  15  16
HETATM   16  C10 UNL     1      21.883   0.713  52.228  1.00  0.00    -0.049 A 
HETATM   17  C11 UNL     1      22.812  -0.204  52.740  1.00  0.00     0.008 A 
HETATM   18  C12 UNL     1      22.704  -0.815  53.964  1.00  0.00     0.001 A 
HETATM   19  C13 UNL     1      21.627  -0.536  54.770  1.00  0.00     0.000 A 
HETATM   20  C14 UNL     1      20.687   0.371  54.288  1.00  0.00     0.001 A 
HETATM   21  C15 UNL     1      20.814   0.974  53.057  1.00  0.00     0.008 A 
ENDBRANCH  15  16
ENDBRANCH  14  15
ENDBRANCH   4  14
TORSDOF 5
ENDMDL
MODEL 4
REMARK VINA RESULT:      -7.7      1.318      2.357
REMARK  5 active torsions:
REMARK  status: ('A' for Active; 'I' for Inactive)
REMARK    1  A    between atoms: O1_2  and  C2_3 
REMARK    2  A    between atoms: C6_7  and  C7_8 
REMARK    3  A    between atoms: C8_11  and  S1_12 
REMARK    4  A    between atoms: S1_12  and  C9_13 
REMARK    5  A    between atoms: C9_13  and  C10_14 
ROOT
HETATM    1  C7  UNL     1      21.426  -0.782  53.745  1.00  0.00     0.203 A 
HETATM    2  N1  UNL     1      21.274  -1.609  54.806  1.00  0.00    -0.120 NA
HETATM    3  N2  UNL     1      22.467  -1.704  55.365  1.00  0.00    -0.114 NA
HETATM    4  C8  UNL     1      23.327  -0.957  54.668  1.00  0.00     0.231 A 
HETATM    5  O2  UNL     1      22.665  -0.403  53.682  1.00  0.00    -0.263 OA
ENDROOT
BRANCH   1   6
HETATM    6  C6  UNL     1      20.265  -0.468  52.902  1.00  0.00     0.021 A 
HETATM    7  C5  UNL     1      20.327   0.248  51.701  1.00  0.00     0.016 A 
HETATM    8  C4  UNL     1      19.181   0.503  50.978  1.00  0.00     0.004 A 
HETATM    9  C3  UNL     1      17.947   0.054  51.430  1.00  0.00     0.037 A 
HETATM   10  C2  UNL     1      17.877  -0.663  52.631  1.00  0.00     0.069 A 
HETATM   11  C16 UNL     1      19.043  -0.910  53.345  1.00  0.00     0.052 A 
BRANCH  10  12
HETATM   12  O1  UNL     1      16.565  -1.017  52.904  1.00  0.00    -0.356 OA
HETATM   13  C1  UNL     1      15.510  -0.497  52.122  1.00  0.00     0.210 C 
ENDBRANCH  10  12
ENDBRANCH   1   6
BRANCH   4  14
HETATM   14  S1  UNL     1      25.075  -0.506  54.689  1.00  0.00    -0.078 SA
BRANCH  14  15
HETATM   15  C9  UNL     1      25.738  -0.882  53.033  1.00  0.00     0.121 C 
BRANCH  15  16
HETATM   16  C10 UNL     1      27.210  -1.005  53.179  1.00  0.00    -0.049 A 
HETATM   17  C11 UNL     1      27.904   0.157  53.544  1.00  0.00     0.008 A 
HETATM   18  C12 UNL     1      29.263   0.226  53.720  1.00  0.00     0.001 A 
HETATM   19  C13 UNL     1      30.030  -0.899  53.532  1.00  0.00     0.000 A 
HETATM   20  C14 UNL     1      29.369  -2.068  53.168  1.00  0.00     0.001 A 
HETATM   21  C15 UNL     1      28.004  -2.117  52.998  1.00  0.00     0.008 A 
ENDBRANCH  15  16
ENDBRANCH  14  15
ENDBRANCH   4  14
TORSDOF 5
ENDMDL
MODEL 5
REMARK VINA RESULT:      -7.6      2.277      7.241
REMARK  5 active torsions:
REMARK  status: ('A' for Active; 'I' for Inactive)
REMARK    1  A    between atoms: O1_2  and  C2_3 
REMARK    2  A    between atoms: C6_7  and  C7_8 
REMARK    3  A    between atoms: C8_11  and  S1_12 
REMARK    4  A    between atoms: S1_12  and  C9_13 
REMARK    5  A    between atoms: C9_13  and  C10_14 
ROOT
HETATM    1  C7  UNL     1      24.250  -0.401  53.906  1.00  0.00     0.203 A 
HETATM    2  N1  UNL     1      23.612  -1.108  54.868  1.00  0.00    -0.120 NA
HETATM    3  N2  UNL     1      22.333  -0.797  54.759  1.00  0.00    -0.114 NA
HETATM    4  C8  UNL     1      22.189   0.076  53.758  1.00  0.00     0.231 A 
HETATM    5  O2  UNL     1      23.377   0.302  53.253  1.00  0.00    -0.263 OA
ENDROOT
BRANCH   1   6
HETATM    6  C6  UNL     1      25.706  -0.528  53.761  1.00  0.00     0.021 A 
HETATM    7  C5  UNL     1      26.344  -1.439  52.912  1.00  0.00     0.016 A 
HETATM    8  C4  UNL     1      27.719  -1.491  52.848  1.00  0.00     0.004 A 
HETATM    9  C3  UNL     1      28.495  -0.642  53.626  1.00  0.00     0.037 A 
HETATM   10  C2  UNL     1      27.865   0.272  54.478  1.00  0.00     0.069 A 
HETATM   11  C16 UNL     1      26.477   0.311  54.528  1.00  0.00     0.052 A 
BRANCH  10  12
HETATM   12  O1  UNL     1      28.809   1.021  55.162  1.00  0.00    -0.356 OA
HETATM   13  C1  UNL     1      29.509   2.057  54.505  1.00  0.00     0.210 C 
ENDBRANCH  10  12
ENDBRANCH   1   6
BRANCH   4  14
HETATM   14  S1  UNL     1      20.879   1.004  52.932  1.00  0.00    -0.078 SA
BRANCH  14  15
HETATM   15  C9  UNL     1      20.739   0.330  51.244  1.00  0.00     0.121 C 
BRANCH  15  16
HETATM   16  C10 UNL     1      21.533   1.220  50.360  1.00  0.00    -0.049 A 
HETATM   17  C11 UNL     1      21.409   1.008  48.980  1.00  0.00     0.008 A 
HETATM   18  C12 UNL     1      22.070   1.734  48.021  1.00  0.00     0.001 A 
HETATM   19  C13 UNL     1      22.921   2.744  48.401  1.00  0.00     0.000 A 
HETATM   20  C14 UNL     1      23.065   2.979  49.765  1.00  0.00     0.001 A 
HETATM   21  C15 UNL     1      22.392   2.240  50.711  1.00  0.00     0.008 A 
ENDBRANCH  15  16
ENDBRANCH  14  15
ENDBRANCH   4  14
TORSDOF 5
ENDMDL
MODEL 6
REMARK VINA RESULT:      -7.5      5.388      7.449
REMARK  5 active torsions:
REMARK  status: ('A' for Active; 'I' for Inactive)
REMARK    1  A    between atoms: O1_2  and  C2_3 
REMARK    2  A    between atoms: C6_7  and  C7_8 
REMARK    3  A    between atoms: C8_11  and  S1_12 
REMARK    4  A    between atoms: S1_12  and  C9_13 
REMARK    5  A    between atoms: C9_13  and  C10_14 
ROOT
HETATM    1  C7  UNL     1      23.844   3.017  52.440  1.00  0.00     0.203 A 
HETATM    2  N1  UNL     1      22.493   3.099  52.388  1.00  0.00    -0.120 NA
HETATM    3  N2  UNL     1      22.223   4.282  51.868  1.00  0.00    -0.114 NA
HETATM    4  C8  UNL     1      23.374   4.909  51.608  1.00  0.00     0.231 A 
HETATM    5  O2  UNL     1      24.350   4.113  51.968  1.00  0.00    -0.263 OA
ENDROOT
BRANCH   1   6
HETATM    6  C6  UNL     1      24.473   1.803  52.979  1.00  0.00     0.021 A 
HETATM    7  C5  UNL     1      23.960   0.510  52.829  1.00  0.00     0.016 A 
HETATM    8  C4  UNL     1      24.618  -0.571  53.377  1.00  0.00     0.004 A 
HETATM    9  C3  UNL     1      25.798  -0.394  54.086  1.00  0.00     0.037 A 
HETATM   10  C2  UNL     1      26.317   0.897  54.240  1.00  0.00     0.069 A 
HETATM   11  C16 UNL     1      25.641   1.974  53.681  1.00  0.00     0.052 A 
BRANCH  10  12
HETATM   12  O1  UNL     1      27.492   0.858  54.975  1.00  0.00    -0.356 OA
HETATM   13  C1  UNL     1      28.723   0.591  54.336  1.00  0.00     0.210 C 
ENDBRANCH  10  12
ENDBRANCH   1   6
BRANCH   4  14
HETATM   14  S1  UNL     1      23.951   6.479  50.931  1.00  0.00    -0.078 SA
BRANCH  14  15
HETATM   15  C9  UNL     1      24.139   6.243  49.133  1.00  0.00     0.121 C 
BRANCH  15  16
HETATM   16  C10 UNL     1      25.569   5.927  48.889  1.00  0.00    -0.049 A 
HETATM   17  C11 UNL     1      26.361   6.961  48.372  1.00  0.00     0.008 A 
HETATM   18  C12 UNL     1      27.698   6.845  48.084  1.00  0.00     0.001 A 
HETATM   19  C13 UNL     1      28.337   5.648  48.303  1.00  0.00     0.000 A 
HETATM   20  C14 UNL     1      27.576   4.602  48.816  1.00  0.00     0.001 A 
HETATM   21  C15 UNL     1      26.236   4.739  49.099  1.00  0.00     0.008 A 
ENDBRANCH  15  16
ENDBRANCH  14  15
ENDBRANCH   4  14
TORSDOF 5
ENDMDL
MODEL 7
REMARK VINA RESULT:      -7.4      5.929      7.640
REMARK  5 active torsions:
REMARK  status: ('A' for Active; 'I' for Inactive)
REMARK    1  A    between atoms: O1_2  and  C2_3 
REMARK    2  A    between atoms: C6_7  and  C7_8 
REMARK    3  A    between atoms: C8_11  and  S1_12 
REMARK    4  A    between atoms: S1_12  and  C9_13 
REMARK    5  A    between atoms: C9_13  and  C10_14 
ROOT
HETATM    1  C7  UNL     1      25.456   4.223  49.738  1.00  0.00     0.203 A 
HETATM    2  N1  UNL     1      24.310   3.856  49.118  1.00  0.00    -0.120 NA
HETATM    3  N2  UNL     1      23.686   3.051  49.958  1.00  0.00    -0.114 NA
HETATM    4  C8  UNL     1      24.428   2.926  51.062  1.00  0.00     0.231 A 
HETATM    5  O2  UNL     1      25.506   3.653  50.902  1.00  0.00    -0.263 OA
ENDROOT
BRANCH   1   6
HETATM    6  C6  UNL     1      26.388   5.131  49.056  1.00  0.00     0.021 A 
HETATM    7  C5  UNL     1      26.050   6.400  48.574  1.00  0.00     0.016 A 
HETATM    8  C4  UNL     1      26.991   7.181  47.938  1.00  0.00     0.004 A 
HETATM    9  C3  UNL     1      28.290   6.721  47.765  1.00  0.00     0.037 A 
HETATM   10  C2  UNL     1      28.635   5.452  48.244  1.00  0.00     0.069 A 
HETATM   11  C16 UNL     1      27.674   4.680  48.883  1.00  0.00     0.052 A 
BRANCH  10  12
HETATM   12  O1  UNL     1      29.968   5.182  47.972  1.00  0.00    -0.356 OA
HETATM   13  C1  UNL     1      30.990   5.879  48.655  1.00  0.00     0.210 C 
ENDBRANCH  10  12
ENDBRANCH   1   6
BRANCH   4  14
HETATM   14  S1  UNL     1      24.376   2.075  52.653  1.00  0.00    -0.078 SA
BRANCH  14  15
HETATM   15  C9  UNL     1      25.286   0.509  52.444  1.00  0.00     0.121 C 
BRANCH  15  16
HETATM   16  C10 UNL     1      26.662   0.741  52.952  1.00  0.00    -0.049 A 
HETATM   17  C11 UNL     1      27.483  -0.387  53.082  1.00  0.00     0.008 A 
HETATM   18  C12 UNL     1      28.777  -0.357  53.536  1.00  0.00     0.001 A 
HETATM   19  C13 UNL     1      29.341   0.842  53.900  1.00  0.00     0.000 A 
HETATM   20  C14 UNL     1      28.550   1.981  53.783  1.00  0.00     0.001 A 
HETATM   21  C15 UNL     1      27.254   1.930  53.324  1.00  0.00     0.008 A 
ENDBRANCH  15  16
ENDBRANCH  14  15
ENDBRANCH   4  14
TORSDOF 5
ENDMDL
MODEL 8
REMARK VINA RESULT:      -7.2      5.728      7.165
REMARK  5 active torsions:
REMARK  status: ('A' for Active; 'I' for Inactive)
REMARK    1  A    between atoms: O1_2  and  C2_3 
REMARK    2  A    between atoms: C6_7  and  C7_8 
REMARK    3  A    between atoms: C8_11  and  S1_12 
REMARK    4  A    between atoms: S1_12  and  C9_13 
REMARK    5  A    between atoms: C9_13  and  C10_14 
ROOT
HETATM    1  C7  UNL     1      25.540   3.949  49.940  1.00  0.00     0.203 A 
HETATM    2  N1  UNL     1      24.398   3.483  49.383  1.00  0.00    -0.120 NA
HETATM    3  N2  UNL     1      23.898   2.620  50.248  1.00  0.00    -0.114 NA
HETATM    4  C8  UNL     1      24.710   2.558  51.307  1.00  0.00     0.231 A 
HETATM    5  O2  UNL     1      25.708   3.380  51.094  1.00  0.00    -0.263 OA
ENDROOT
BRANCH   1   6
HETATM    6  C6  UNL     1      26.346   4.940  49.215  1.00  0.00     0.021 A 
HETATM    7  C5  UNL     1      27.671   4.744  48.810  1.00  0.00     0.016 A 
HETATM    8  C4  UNL     1      28.352   5.737  48.140  1.00  0.00     0.004 A 
HETATM    9  C3  UNL     1      27.736   6.948  47.856  1.00  0.00     0.037 A 
HETATM   10  C2  UNL     1      26.411   7.152  48.258  1.00  0.00     0.069 A 
HETATM   11  C16 UNL     1      25.740   6.140  48.932  1.00  0.00     0.052 A 
BRANCH  10  12
HETATM   12  O1  UNL     1      25.984   8.417  47.883  1.00  0.00    -0.356 OA
HETATM   13  C1  UNL     1      24.650   8.817  48.117  1.00  0.00     0.210 C 
ENDBRANCH  10  12
ENDBRANCH   1   6
BRANCH   4  14
HETATM   14  S1  UNL     1      24.827   1.697  52.890  1.00  0.00    -0.078 SA
BRANCH  14  15
HETATM   15  C9  UNL     1      25.564   0.065  52.551  1.00  0.00     0.121 C 
BRANCH  15  16
HETATM   16  C10 UNL     1      26.997   0.154  52.932  1.00  0.00    -0.049 A 
HETATM   17  C11 UNL     1      27.700  -1.055  53.019  1.00  0.00     0.008 A 
HETATM   18  C12 UNL     1      29.025  -1.159  53.359  1.00  0.00     0.001 A 
HETATM   19  C13 UNL     1      29.744  -0.023  53.642  1.00  0.00     0.000 A 
HETATM   20  C14 UNL     1      29.073   1.194  53.565  1.00  0.00     0.001 A 
HETATM   21  C15 UNL     1      27.743   1.277  53.221  1.00  0.00     0.008 A 
ENDBRANCH  15  16
ENDBRANCH  14  15
ENDBRANCH   4  14
TORSDOF 5
ENDMDL
MODEL 9
REMARK VINA RESULT:      -7.2      2.964      3.900
REMARK  5 active torsions:
REMARK  status: ('A' for Active; 'I' for Inactive)
REMARK    1  A    between atoms: O1_2  and  C2_3 
REMARK    2  A    between atoms: C6_7  and  C7_8 
REMARK    3  A    between atoms: C8_11  and  S1_12 
REMARK    4  A    between atoms: S1_12  and  C9_13 
REMARK    5  A    between atoms: C9_13  and  C10_14 
ROOT
HETATM    1  C7  UNL     1      23.362   1.809  51.022  1.00  0.00     0.203 A 
HETATM    2  N1  UNL     1      23.587   2.701  50.029  1.00  0.00    -0.120 NA
HETATM    3  N2  UNL     1      24.860   3.037  50.124  1.00  0.00    -0.114 NA
HETATM    4  C8  UNL     1      25.403   2.370  51.147  1.00  0.00     0.231 A 
HETATM    5  O2  UNL     1      24.465   1.627  51.680  1.00  0.00    -0.263 OA
ENDROOT
BRANCH   1   6
HETATM    6  C6  UNL     1      22.020   1.236  51.188  1.00  0.00     0.021 A 
HETATM    7  C5  UNL     1      20.955   1.438  50.303  1.00  0.00     0.016 A 
HETATM    8  C4  UNL     1      19.725   0.864  50.546  1.00  0.00     0.004 A 
HETATM    9  C3  UNL     1      19.523   0.078  51.672  1.00  0.00     0.037 A 
HETATM   10  C2  UNL     1      20.584  -0.128  52.562  1.00  0.00     0.069 A 
HETATM   11  C16 UNL     1      21.815   0.457  52.301  1.00  0.00     0.052 A 
BRANCH  10  12
HETATM   12  O1  UNL     1      20.178  -0.935  53.614  1.00  0.00    -0.356 OA
HETATM   13  C1  UNL     1      21.133  -1.495  54.492  1.00  0.00     0.210 C 
ENDBRANCH  10  12
ENDBRANCH   1   6
BRANCH   4  14
HETATM   14  S1  UNL     1      26.997   2.205  51.979  1.00  0.00    -0.078 SA
BRANCH  14  15
HETATM   15  C9  UNL     1      26.705   1.231  53.491  1.00  0.00     0.121 C 
BRANCH  15  16
HETATM   16  C10 UNL     1      27.302  -0.108  53.260  1.00  0.00    -0.049 A 
HETATM   17  C11 UNL     1      28.647  -0.267  53.621  1.00  0.00     0.008 A 
HETATM   18  C12 UNL     1      29.357  -1.433  53.476  1.00  0.00     0.001 A 
HETATM   19  C13 UNL     1      28.742  -2.539  52.941  1.00  0.00     0.000 A 
HETATM   20  C14 UNL     1      27.406  -2.412  52.572  1.00  0.00     0.001 A 
HETATM   21  C15 UNL     1      26.712  -1.234  52.728  1.00  0.00     0.008 A 
ENDBRANCH  15  16
ENDBRANCH  14  15
ENDBRANCH   4  14
TORSDOF 5
ENDMDL
