MODEL 1
REMARK VINA RESULT:      -8.5      0.000      0.000
REMARK  3 active torsions:
REMARK  status: ('A' for Active; 'I' for Inactive)
REMARK    1  A    between atoms: C3_3  and  C4_4 
REMARK       I    between atoms: C4_4  and  N1_6 
REMARK    2  A    between atoms: N1_6  and  C5_7 
REMARK    3  A    between atoms: C8_10  and  N2_11 
ROOT
HETATM    1  C5  UNL     1      24.259   3.076  51.749  1.00  0.00     0.131 A 
HETATM    2  C6  UNL     1      24.597   1.946  52.475  1.00  0.00     0.068 A 
HETATM    3  C7  UNL     1      23.652   1.041  52.905  1.00  0.00     0.044 A 
HETATM    4  C8  UNL     1      24.088  -0.055  53.621  1.00  0.00     0.140 A 
HETATM    5  N3  UNL     1      23.124  -0.921  54.023  1.00  0.00    -0.224 NA
HETATM    6  C15 UNL     1      21.818  -0.730  53.744  1.00  0.00     0.236 A 
HETATM    7  N4  UNL     1      21.428   0.350  53.043  1.00  0.00    -0.240 NA
HETATM    8  C16 UNL     1      22.323   1.238  52.620  1.00  0.00     0.089 A 
HETATM    9  C17 UNL     1      22.007   2.371  51.895  1.00  0.00     0.151 A 
HETATM   10  N5  UNL     1      22.946   3.258  51.475  1.00  0.00    -0.241 NA
ENDROOT
BRANCH   1  11
HETATM   11  N1  UNL     1      25.216   4.028  51.293  1.00  0.00    -0.308 N 
HETATM   12  C4  UNL     1      25.448   4.049  49.881  1.00  0.00     0.246 C 
HETATM   13  O1  UNL     1      24.770   3.220  49.220  1.00  0.00    -0.268 OA
HETATM   14  H6  UNL     1      25.690   4.642  51.972  1.00  0.00     0.170 HD
BRANCH  12  15
HETATM   15  C3  UNL     1      26.414   4.996  49.336  1.00  0.00     0.070 C 
HETATM   16  C2  UNL     1      27.563   4.762  48.723  1.00  0.00    -0.026 C 
HETATM   17  C1  UNL     1      28.425   5.852  48.229  1.00  0.00     0.036 C 
ENDBRANCH  12  15
ENDBRANCH   1  11
BRANCH   4  18
HETATM   18  N2  UNL     1      25.466  -0.320  53.960  1.00  0.00    -0.361 N 
HETATM   19  C9  UNL     1      26.276  -0.133  55.166  1.00  0.00     0.152 C 
HETATM   20  C10 UNL     1      27.587   0.428  54.737  1.00  0.00    -0.005 C 
HETATM   21  C11 UNL     1      28.156  -0.201  53.713  1.00  0.00    -0.084 C 
HETATM   22  C12 UNL     1      29.481   0.194  53.113  1.00  0.00     0.043 C 
HETATM   23  C13 UNL     1      27.447  -1.373  53.112  1.00  0.00     0.053 C 
HETATM   24  C14 UNL     1      26.056  -0.887  52.768  1.00  0.00     0.129 C 
ENDBRANCH   4  18
TORSDOF 3
ENDMDL
MODEL 2
REMARK VINA RESULT:      -8.1      2.085      5.501
REMARK  3 active torsions:
REMARK  status: ('A' for Active; 'I' for Inactive)
REMARK    1  A    between atoms: C3_3  and  C4_4 
REMARK       I    between atoms: C4_4  and  N1_6 
REMARK    2  A    between atoms: N1_6  and  C5_7 
REMARK    3  A    between atoms: C8_10  and  N2_11 
ROOT
HETATM    1  C5  UNL     1      22.469   2.162  52.041  1.00  0.00     0.131 A 
HETATM    2  C6  UNL     1      23.827   1.914  52.146  1.00  0.00     0.068 A 
HETATM    3  C7  UNL     1      24.754   2.570  51.364  1.00  0.00     0.044 A 
HETATM    4  C8  UNL     1      26.085   2.255  51.543  1.00  0.00     0.140 A 
HETATM    5  N3  UNL     1      26.962   2.925  50.754  1.00  0.00    -0.224 NA
HETATM    6  C15 UNL     1      26.566   3.843  49.848  1.00  0.00     0.236 A 
HETATM    7  N4  UNL     1      25.259   4.125  49.700  1.00  0.00    -0.240 NA
HETATM    8  C16 UNL     1      24.348   3.503  50.443  1.00  0.00     0.089 A 
HETATM    9  C17 UNL     1      22.988   3.734  50.354  1.00  0.00     0.151 A 
HETATM   10  N5  UNL     1      22.081   3.083  51.129  1.00  0.00    -0.241 NA
ENDROOT
BRANCH   1  11
HETATM   11  N1  UNL     1      21.489   1.498  52.836  1.00  0.00    -0.308 N 
HETATM   12  C4  UNL     1      20.773   0.442  52.187  1.00  0.00     0.246 C 
HETATM   13  O1  UNL     1      21.104   0.235  50.991  1.00  0.00    -0.268 OA
HETATM   14  H6  UNL     1      21.338   1.792  53.812  1.00  0.00     0.170 HD
BRANCH  12  15
HETATM   15  C3  UNL     1      19.754  -0.286  52.934  1.00  0.00     0.070 C 
HETATM   16  C2  UNL     1      18.555  -0.688  52.544  1.00  0.00    -0.026 C 
HETATM   17  C1  UNL     1      17.644  -1.422  53.441  1.00  0.00     0.036 C 
ENDBRANCH  12  15
ENDBRANCH   1  11
BRANCH   4  18
HETATM   18  N2  UNL     1      26.580   1.283  52.488  1.00  0.00    -0.361 N 
HETATM   19  C9  UNL     1      26.959   1.333  53.902  1.00  0.00     0.152 C 
HETATM   20  C10 UNL     1      28.227   0.567  54.050  1.00  0.00    -0.005 C 
HETATM   21  C11 UNL     1      28.232  -0.625  53.461  1.00  0.00    -0.084 C 
HETATM   22  C12 UNL     1      29.407  -1.568  53.480  1.00  0.00     0.043 C 
HETATM   23  C13 UNL     1      27.003  -1.065  52.731  1.00  0.00     0.053 C 
HETATM   24  C14 UNL     1      26.679   0.042  51.752  1.00  0.00     0.129 C 
ENDBRANCH   4  18
TORSDOF 3
ENDMDL
MODEL 3
REMARK VINA RESULT:      -7.9      1.793      2.057
REMARK  3 active torsions:
REMARK  status: ('A' for Active; 'I' for Inactive)
REMARK    1  A    between atoms: C3_3  and  C4_4 
REMARK       I    between atoms: C4_4  and  N1_6 
REMARK    2  A    between atoms: N1_6  and  C5_7 
REMARK    3  A    between atoms: C8_10  and  N2_11 
ROOT
HETATM    1  C5  UNL     1      23.244   4.253  52.421  1.00  0.00     0.131 A 
HETATM    2  C6  UNL     1      23.994   3.134  52.745  1.00  0.00     0.068 A 
HETATM    3  C7  UNL     1      23.435   1.878  52.834  1.00  0.00     0.044 A 
HETATM    4  C8  UNL     1      24.265   0.826  53.160  1.00  0.00     0.140 A 
HETATM    5  N3  UNL     1      23.673  -0.393  53.235  1.00  0.00    -0.224 NA
HETATM    6  C15 UNL     1      22.356  -0.574  53.007  1.00  0.00     0.236 A 
HETATM    7  N4  UNL     1      21.576   0.475  52.690  1.00  0.00    -0.240 NA
HETATM    8  C16 UNL     1      22.094   1.697  52.601  1.00  0.00     0.089 A 
HETATM    9  C17 UNL     1      21.364   2.826  52.280  1.00  0.00     0.151 A 
HETATM   10  N5  UNL     1      21.923   4.061  52.194  1.00  0.00    -0.241 NA
ENDROOT
BRANCH   1  11
HETATM   11  N1  UNL     1      23.797   5.563  52.323  1.00  0.00    -0.308 N 
HETATM   12  C4  UNL     1      24.218   5.963  51.015  1.00  0.00     0.246 C 
HETATM   13  O1  UNL     1      24.043   5.101  50.115  1.00  0.00    -0.268 OA
HETATM   14  H6  UNL     1      23.871   6.151  53.166  1.00  0.00     0.170 HD
BRANCH  12  15
HETATM   15  C3  UNL     1      24.794   7.290  50.832  1.00  0.00     0.070 C 
HETATM   16  C2  UNL     1      25.861   7.653  50.137  1.00  0.00    -0.026 C 
HETATM   17  C1  UNL     1      26.306   9.056  50.059  1.00  0.00     0.036 C 
ENDBRANCH  12  15
ENDBRANCH   1  11
BRANCH   4  18
HETATM   18  N2  UNL     1      25.680   0.945  53.422  1.00  0.00    -0.361 N 
HETATM   19  C9  UNL     1      26.760   1.751  52.849  1.00  0.00     0.152 C 
HETATM   20  C10 UNL     1      27.937   0.855  52.675  1.00  0.00    -0.005 C 
HETATM   21  C11 UNL     1      28.232   0.106  53.734  1.00  0.00    -0.084 C 
HETATM   22  C12 UNL     1      29.378  -0.871  53.782  1.00  0.00     0.043 C 
HETATM   23  C13 UNL     1      27.379   0.234  54.957  1.00  0.00     0.053 C 
HETATM   24  C14 UNL     1      25.954   0.017  54.497  1.00  0.00     0.129 C 
ENDBRANCH   4  18
TORSDOF 3
ENDMDL
MODEL 4
REMARK VINA RESULT:      -7.9      1.735      2.241
REMARK  3 active torsions:
REMARK  status: ('A' for Active; 'I' for Inactive)
REMARK    1  A    between atoms: C3_3  and  C4_4 
REMARK       I    between atoms: C4_4  and  N1_6 
REMARK    2  A    between atoms: N1_6  and  C5_7 
REMARK    3  A    between atoms: C8_10  and  N2_11 
ROOT
HETATM    1  C5  UNL     1      22.595   1.953  51.644  1.00  0.00     0.131 A 
HETATM    2  C6  UNL     1      23.589   1.196  52.240  1.00  0.00     0.068 A 
HETATM    3  C7  UNL     1      23.332   0.351  53.298  1.00  0.00     0.044 A 
HETATM    4  C8  UNL     1      24.389  -0.363  53.824  1.00  0.00     0.140 A 
HETATM    5  N3  UNL     1      24.090  -1.183  54.863  1.00  0.00    -0.224 NA
HETATM    6  C15 UNL     1      22.841  -1.298  55.358  1.00  0.00     0.236 A 
HETATM    7  N4  UNL     1      21.833  -0.586  54.821  1.00  0.00    -0.240 NA
HETATM    8  C16 UNL     1      22.059   0.237  53.801  1.00  0.00     0.089 A 
HETATM    9  C17 UNL     1      21.082   1.001  53.191  1.00  0.00     0.151 A 
HETATM   10  N5  UNL     1      21.345   1.831  52.148  1.00  0.00    -0.241 NA
ENDROOT
BRANCH   1  11
HETATM   11  N1  UNL     1      22.834   2.834  50.549  1.00  0.00    -0.308 N 
HETATM   12  C4  UNL     1      23.245   4.160  50.897  1.00  0.00     0.246 C 
HETATM   13  O1  UNL     1      23.344   4.377  52.132  1.00  0.00    -0.268 OA
HETATM   14  H6  UNL     1      22.705   2.497  49.584  1.00  0.00     0.170 HD
BRANCH  12  15
HETATM   15  C3  UNL     1      23.509   5.121  49.833  1.00  0.00     0.070 C 
HETATM   16  C2  UNL     1      24.667   5.571  49.377  1.00  0.00    -0.026 C 
HETATM   17  C1  UNL     1      24.751   6.553  48.280  1.00  0.00     0.036 C 
ENDBRANCH  12  15
ENDBRANCH   1  11
BRANCH   4  18
HETATM   18  N2  UNL     1      25.750  -0.287  53.349  1.00  0.00    -0.361 N 
HETATM   19  C9  UNL     1      26.460  -0.838  52.192  1.00  0.00     0.152 C 
HETATM   20  C10 UNL     1      27.770  -1.351  52.680  1.00  0.00    -0.005 C 
HETATM   21  C11 UNL     1      28.442  -0.514  53.465  1.00  0.00    -0.084 C 
HETATM   22  C12 UNL     1      29.786  -0.824  54.072  1.00  0.00     0.043 C 
HETATM   23  C13 UNL     1      27.835   0.819  53.771  1.00  0.00     0.053 C 
HETATM   24  C14 UNL     1      26.451   0.532  54.311  1.00  0.00     0.129 C 
ENDBRANCH   4  18
TORSDOF 3
ENDMDL
MODEL 5
REMARK VINA RESULT:      -7.8      2.241      5.666
REMARK  3 active torsions:
REMARK  status: ('A' for Active; 'I' for Inactive)
REMARK    1  A    between atoms: C3_3  and  C4_4 
REMARK       I    between atoms: C4_4  and  N1_6 
REMARK    2  A    between atoms: N1_6  and  C5_7 
REMARK    3  A    between atoms: C8_10  and  N2_11 
ROOT
HETATM    1  C5  UNL     1      24.653  -0.413  53.791  1.00  0.00     0.131 A 
HETATM    2  C6  UNL     1      24.109   0.598  53.016  1.00  0.00     0.068 A 
HETATM    3  C7  UNL     1      22.768   0.912  53.057  1.00  0.00     0.044 A 
HETATM    4  C8  UNL     1      22.322   1.937  52.249  1.00  0.00     0.140 A 
HETATM    5  N3  UNL     1      20.995   2.213  52.322  1.00  0.00    -0.224 NA
HETATM    6  C15 UNL     1      20.158   1.533  53.131  1.00  0.00     0.236 A 
HETATM    7  N4  UNL     1      20.627   0.539  53.907  1.00  0.00    -0.240 NA
HETATM    8  C16 UNL     1      21.918   0.218  53.882  1.00  0.00     0.089 A 
HETATM    9  C17 UNL     1      22.481  -0.787  54.646  1.00  0.00     0.151 A 
HETATM   10  N5  UNL     1      23.804  -1.090  54.600  1.00  0.00    -0.241 NA
ENDROOT
BRANCH   1  11
HETATM   11  N1  UNL     1      26.036  -0.758  53.768  1.00  0.00    -0.308 N 
HETATM   12  C4  UNL     1      26.912   0.142  54.454  1.00  0.00     0.246 C 
HETATM   13  O1  UNL     1      26.344   1.126  54.993  1.00  0.00    -0.268 OA
HETATM   14  H6  UNL     1      26.342  -1.610  53.275  1.00  0.00     0.170 HD
BRANCH  12  15
HETATM   15  C3  UNL     1      28.343  -0.142  54.475  1.00  0.00     0.070 C 
HETATM   16  C2  UNL     1      29.072  -0.841  53.620  1.00  0.00    -0.026 C 
HETATM   17  C1  UNL     1      30.524  -1.028  53.797  1.00  0.00     0.036 C 
ENDBRANCH  12  15
ENDBRANCH   1  11
BRANCH   4  18
HETATM   18  N2  UNL     1      23.158   2.704  51.356  1.00  0.00    -0.361 N 
HETATM   19  C9  UNL     1      24.250   3.661  51.548  1.00  0.00     0.152 C 
HETATM   20  C10 UNL     1      24.018   4.793  50.610  1.00  0.00    -0.005 C 
HETATM   21  C11 UNL     1      23.736   4.435  49.361  1.00  0.00    -0.084 C 
HETATM   22  C12 UNL     1      23.464   5.412  48.246  1.00  0.00     0.043 C 
HETATM   23  C13 UNL     1      23.681   2.977  49.032  1.00  0.00     0.053 C 
HETATM   24  C14 UNL     1      22.716   2.362  50.022  1.00  0.00     0.129 C 
ENDBRANCH   4  18
TORSDOF 3
ENDMDL
MODEL 6
REMARK VINA RESULT:      -7.5      1.919      4.930
REMARK  3 active torsions:
REMARK  status: ('A' for Active; 'I' for Inactive)
REMARK    1  A    between atoms: C3_3  and  C4_4 
REMARK       I    between atoms: C4_4  and  N1_6 
REMARK    2  A    between atoms: N1_6  and  C5_7 
REMARK    3  A    between atoms: C8_10  and  N2_11 
ROOT
HETATM    1  C5  UNL     1      25.523   2.914  51.680  1.00  0.00     0.131 A 
HETATM    2  C6  UNL     1      24.259   2.352  51.742  1.00  0.00     0.068 A 
HETATM    3  C7  UNL     1      23.996   1.219  52.482  1.00  0.00     0.044 A 
HETATM    4  C8  UNL     1      22.704   0.736  52.482  1.00  0.00     0.140 A 
HETATM    5  N3  UNL     1      22.490  -0.379  53.225  1.00  0.00    -0.224 NA
HETATM    6  C15 UNL     1      23.474  -0.985  53.922  1.00  0.00     0.236 A 
HETATM    7  N4  UNL     1      24.723  -0.486  53.899  1.00  0.00    -0.240 NA
HETATM    8  C16 UNL     1      24.999   0.606  53.190  1.00  0.00     0.089 A 
HETATM    9  C17 UNL     1      26.253   1.183  53.114  1.00  0.00     0.151 A 
HETATM   10  N5  UNL     1      26.503   2.299  52.382  1.00  0.00    -0.241 NA
ENDROOT
BRANCH   1  11
HETATM   11  N1  UNL     1      25.822   4.084  50.922  1.00  0.00    -0.308 N 
HETATM   12  C4  UNL     1      26.573   3.872  49.723  1.00  0.00     0.246 C 
HETATM   13  O1  UNL     1      26.873   2.672  49.490  1.00  0.00    -0.268 OA
HETATM   14  H6  UNL     1      25.500   5.005  51.255  1.00  0.00     0.170 HD
BRANCH  12  15
HETATM   15  C3  UNL     1      26.919   5.020  48.892  1.00  0.00     0.070 C 
HETATM   16  C2  UNL     1      28.111   5.444  48.502  1.00  0.00    -0.026 C 
HETATM   17  C1  UNL     1      28.279   6.637  47.652  1.00  0.00     0.036 C 
ENDBRANCH  12  15
ENDBRANCH   1  11
BRANCH   4  18
HETATM   18  N2  UNL     1      21.604   1.328  51.758  1.00  0.00    -0.361 N 
HETATM   19  C9  UNL     1      20.753   2.500  51.973  1.00  0.00     0.152 C 
HETATM   20  C10 UNL     1      19.352   2.090  51.677  1.00  0.00    -0.005 C 
HETATM   21  C11 UNL     1      19.193   1.423  50.537  1.00  0.00    -0.084 C 
HETATM   22  C12 UNL     1      17.866   0.912  50.039  1.00  0.00     0.043 C 
HETATM   23  C13 UNL     1      20.399   1.158  49.692  1.00  0.00     0.053 C 
HETATM   24  C14 UNL     1      21.405   0.485  50.600  1.00  0.00     0.129 C 
ENDBRANCH   4  18
TORSDOF 3
ENDMDL
MODEL 7
REMARK VINA RESULT:      -7.4      2.064      5.117
REMARK  3 active torsions:
REMARK  status: ('A' for Active; 'I' for Inactive)
REMARK    1  A    between atoms: C3_3  and  C4_4 
REMARK       I    between atoms: C4_4  and  N1_6 
REMARK    2  A    between atoms: N1_6  and  C5_7 
REMARK    3  A    between atoms: C8_10  and  N2_11 
ROOT
HETATM    1  C5  UNL     1      25.046   3.005  51.525  1.00  0.00     0.131 A 
HETATM    2  C6  UNL     1      23.863   2.347  51.234  1.00  0.00     0.068 A 
HETATM    3  C7  UNL     1      23.450   1.236  51.938  1.00  0.00     0.044 A 
HETATM    4  C8  UNL     1      22.255   0.650  51.574  1.00  0.00     0.140 A 
HETATM    5  N3  UNL     1      21.887  -0.439  52.295  1.00  0.00    -0.224 NA
HETATM    6  C15 UNL     1      22.636  -0.925  53.306  1.00  0.00     0.236 A 
HETATM    7  N4  UNL     1      23.796  -0.328  53.634  1.00  0.00    -0.240 NA
HETATM    8  C16 UNL     1      24.215   0.744  52.966  1.00  0.00     0.089 A 
HETATM    9  C17 UNL     1      25.391   1.416  53.240  1.00  0.00     0.151 A 
HETATM   10  N5  UNL     1      25.790   2.509  52.540  1.00  0.00    -0.241 NA
ENDROOT
BRANCH   1  11
HETATM   11  N1  UNL     1      25.496   4.155  50.812  1.00  0.00    -0.308 N 
HETATM   12  C4  UNL     1      26.440   3.906  49.765  1.00  0.00     0.246 C 
HETATM   13  O1  UNL     1      26.751   2.697  49.608  1.00  0.00    -0.268 OA
HETATM   14  H6  UNL     1      25.140   5.087  51.068  1.00  0.00     0.170 HD
BRANCH  12  15
HETATM   15  C3  UNL     1      26.949   5.031  48.989  1.00  0.00     0.070 C 
HETATM   16  C2  UNL     1      28.179   5.264  48.558  1.00  0.00    -0.026 C 
HETATM   17  C1  UNL     1      28.521   6.466  47.776  1.00  0.00     0.036 C 
ENDBRANCH  12  15
ENDBRANCH   1  11
BRANCH   4  18
HETATM   18  N2  UNL     1      21.406   1.112  50.502  1.00  0.00    -0.361 N 
HETATM   19  C9  UNL     1      21.454   1.006  49.042  1.00  0.00     0.152 C 
HETATM   20  C10 UNL     1      21.100   2.342  48.488  1.00  0.00    -0.005 C 
HETATM   21  C11 UNL     1      20.017   2.899  49.022  1.00  0.00    -0.084 C 
HETATM   22  C12 UNL     1      19.475   4.245  48.616  1.00  0.00     0.043 C 
HETATM   23  C13 UNL     1      19.285   2.153  50.093  1.00  0.00     0.053 C 
HETATM   24  C14 UNL     1      20.317   1.814  51.145  1.00  0.00     0.129 C 
ENDBRANCH   4  18
TORSDOF 3
ENDMDL
MODEL 8
REMARK VINA RESULT:      -7.4      2.468      6.893
REMARK  3 active torsions:
REMARK  status: ('A' for Active; 'I' for Inactive)
REMARK    1  A    between atoms: C3_3  and  C4_4 
REMARK       I    between atoms: C4_4  and  N1_6 
REMARK    2  A    between atoms: N1_6  and  C5_7 
REMARK    3  A    between atoms: C8_10  and  N2_11 
ROOT
HETATM    1  C5  UNL     1      23.019  -0.337  53.235  1.00  0.00     0.131 A 
HETATM    2  C6  UNL     1      23.701   0.776  52.773  1.00  0.00     0.068 A 
HETATM    3  C7  UNL     1      24.987   1.066  53.173  1.00  0.00     0.044 A 
HETATM    4  C8  UNL     1      25.583   2.197  52.655  1.00  0.00     0.140 A 
HETATM    5  N3  UNL     1      26.849   2.444  53.075  1.00  0.00    -0.224 NA
HETATM    6  C15 UNL     1      27.493   1.639  53.945  1.00  0.00     0.236 A 
HETATM    7  N4  UNL     1      26.881   0.544  54.431  1.00  0.00    -0.240 NA
HETATM    8  C16 UNL     1      25.639   0.245  54.059  1.00  0.00     0.089 A 
HETATM    9  C17 UNL     1      24.941  -0.859  54.509  1.00  0.00     0.151 A 
HETATM   10  N5  UNL     1      23.673  -1.138  54.108  1.00  0.00    -0.241 NA
ENDROOT
BRANCH   1  11
HETATM   11  N1  UNL     1      21.689  -0.660  52.838  1.00  0.00    -0.308 N 
HETATM   12  C4  UNL     1      20.658  -0.288  53.758  1.00  0.00     0.246 C 
HETATM   13  O1  UNL     1      21.062   0.282  54.804  1.00  0.00    -0.268 OA
HETATM   14  H6  UNL     1      21.525  -1.134  51.937  1.00  0.00     0.170 HD
BRANCH  12  15
HETATM   15  C3  UNL     1      19.269  -0.584  53.423  1.00  0.00     0.070 C 
HETATM   16  C2  UNL     1      18.624  -1.739  53.470  1.00  0.00    -0.026 C 
HETATM   17  C1  UNL     1      17.203  -1.859  53.092  1.00  0.00     0.036 C 
ENDBRANCH  12  15
ENDBRANCH   1  11
BRANCH   4  18
HETATM   18  N2  UNL     1      24.954   3.106  51.725  1.00  0.00    -0.361 N 
HETATM   19  C9  UNL     1      23.924   4.140  51.846  1.00  0.00     0.152 C 
HETATM   20  C10 UNL     1      22.999   3.982  50.691  1.00  0.00    -0.005 C 
HETATM   21  C11 UNL     1      23.596   3.853  49.509  1.00  0.00    -0.084 C 
HETATM   22  C12 UNL     1      22.858   3.680  48.207  1.00  0.00     0.043 C 
HETATM   23  C13 UNL     1      25.091   3.878  49.459  1.00  0.00     0.053 C 
HETATM   24  C14 UNL     1      25.559   2.827  50.442  1.00  0.00     0.129 C 
ENDBRANCH   4  18
TORSDOF 3
ENDMDL
MODEL 9
REMARK VINA RESULT:      -7.2      2.675      4.699
REMARK  3 active torsions:
REMARK  status: ('A' for Active; 'I' for Inactive)
REMARK    1  A    between atoms: C3_3  and  C4_4 
REMARK       I    between atoms: C4_4  and  N1_6 
REMARK    2  A    between atoms: N1_6  and  C5_7 
REMARK    3  A    between atoms: C8_10  and  N2_11 
ROOT
HETATM    1  C5  UNL     1      20.401   1.049  51.794  1.00  0.00     0.131 A 
HETATM    2  C6  UNL     1      21.702   1.043  52.270  1.00  0.00     0.068 A 
HETATM    3  C7  UNL     1      22.115   0.181  53.263  1.00  0.00     0.044 A 
HETATM    4  C8  UNL     1      23.432   0.251  53.669  1.00  0.00     0.140 A 
HETATM    5  N3  UNL     1      23.796  -0.616  54.647  1.00  0.00    -0.224 NA
HETATM    6  C15 UNL     1      22.931  -1.495  55.194  1.00  0.00     0.236 A 
HETATM    7  N4  UNL     1      21.653  -1.535  54.774  1.00  0.00    -0.240 NA
HETATM    8  C16 UNL     1      21.232  -0.711  53.818  1.00  0.00     0.089 A 
HETATM    9  C17 UNL     1      19.940  -0.689  53.329  1.00  0.00     0.151 A 
HETATM   10  N5  UNL     1      19.541   0.164  52.350  1.00  0.00    -0.241 NA
ENDROOT
BRANCH   1  11
HETATM   11  N1  UNL     1      19.948   1.929  50.769  1.00  0.00    -0.308 N 
HETATM   12  C4  UNL     1      19.439   3.191  51.214  1.00  0.00     0.246 C 
HETATM   13  O1  UNL     1      19.460   3.361  52.461  1.00  0.00    -0.268 OA
HETATM   14  H6  UNL     1      20.000   1.636  49.783  1.00  0.00     0.170 HD
BRANCH  12  15
HETATM   15  C3  UNL     1      18.955   4.148  50.226  1.00  0.00     0.070 C 
HETATM   16  C2  UNL     1      19.549   5.228  49.743  1.00  0.00    -0.026 C 
HETATM   17  C1  UNL     1      18.907   6.091  48.735  1.00  0.00     0.036 C 
ENDBRANCH  12  15
ENDBRANCH   1  11
BRANCH   4  18
HETATM   18  N2  UNL     1      24.411   1.167  53.132  1.00  0.00    -0.361 N 
HETATM   19  C9  UNL     1      24.626   2.611  53.243  1.00  0.00     0.152 C 
HETATM   20  C10 UNL     1      24.952   3.117  51.881  1.00  0.00    -0.005 C 
HETATM   21  C11 UNL     1      25.872   2.413  51.228  1.00  0.00    -0.084 C 
HETATM   22  C12 UNL     1      26.354   2.741  49.839  1.00  0.00     0.043 C 
HETATM   23  C13 UNL     1      26.470   1.220  51.904  1.00  0.00     0.053 C 
HETATM   24  C14 UNL     1      25.304   0.356  52.335  1.00  0.00     0.129 C 
ENDBRANCH   4  18
TORSDOF 3
ENDMDL
