MODEL 1
REMARK VINA RESULT:      -6.9      0.000      0.000
REMARK  8 active torsions:
REMARK  status: ('A' for Active; 'I' for Inactive)
REMARK    1  A    between atoms: C5_8  and  N3_9 
REMARK    2  A    between atoms: N3_9  and  C6_10 
REMARK    3  A    between atoms: C8_13  and  C9_14 
REMARK    4  A    between atoms: C9_14  and  C10_15 
REMARK    5  A    between atoms: C10_15  and  N4_16 
REMARK       I    between atoms: N4_16  and  C11_17 
REMARK    6  A    between atoms: C11_17  and  C12_19 
REMARK    7  A    between atoms: C13_20  and  C14_21 
REMARK    8  A    between atoms: C14_21  and  N5_22 
ROOT
HETATM    1  C1  UNL     1      21.743   1.387  53.044  1.00  0.00     0.057 C 
HETATM    2  C2  UNL     1      23.166   0.994  53.021  1.00  0.00    -0.012 A 
HETATM    3  S1  UNL     1      23.433  -0.687  53.232  1.00  0.00    -0.074 SA
HETATM    4  C3  UNL     1      25.304  -0.562  53.160  1.00  0.00     0.114 A 
HETATM    5  N1  UNL     1      26.321  -1.547  53.250  1.00  0.00    -0.234 NA
HETATM    6  C4  UNL     1      27.581  -1.148  53.154  1.00  0.00     0.236 A 
HETATM    7  N2  UNL     1      27.762   0.148  52.981  1.00  0.00    -0.223 NA
HETATM    8  C5  UNL     1      26.829   1.072  52.896  1.00  0.00     0.144 A 
HETATM    9  C7  UNL     1      25.492   0.802  52.977  1.00  0.00     0.053 A 
HETATM   10  C8  UNL     1      24.393   1.598  52.905  1.00  0.00    -0.027 A 
ENDROOT
BRANCH  10  11
HETATM   11  C9  UNL     1      24.439   3.055  52.659  1.00  0.00     0.060 C 
BRANCH  11  12
HETATM   12  C10 UNL     1      24.348   3.382  51.193  1.00  0.00     0.127 C 
BRANCH  12  13
HETATM   13  N4  UNL     1      25.055   4.556  50.763  1.00  0.00    -0.357 N 
HETATM   14  C11 UNL     1      26.115   4.062  49.901  1.00  0.00     0.240 C 
HETATM   15  O2  UNL     1      26.165   2.788  49.736  1.00  0.00    -0.269 OA
HETATM   16  H11 UNL     1      25.257   5.592  50.709  1.00  0.00     0.162 HD
BRANCH  14  17
HETATM   17  C12 UNL     1      27.167   4.748  49.164  1.00  0.00     0.072 C 
HETATM   18  C13 UNL     1      27.091   5.869  48.516  1.00  0.00     0.008 C 
BRANCH  18  19
HETATM   19  C14 UNL     1      26.068   6.897  48.217  1.00  0.00     0.299 C 
BRANCH  19  20
HETATM   20  N5  UNL     1      26.647   8.200  48.495  1.00  0.00     0.083 N 
HETATM   21  C15 UNL     1      27.926   8.214  47.802  1.00  0.00     0.309 C 
HETATM   22  C16 UNL     1      26.798   8.355  49.911  1.00  0.00     0.309 C 
ENDBRANCH  19  20
ENDBRANCH  18  19
ENDBRANCH  14  17
ENDBRANCH  12  13
ENDBRANCH  11  12
ENDBRANCH  10  11
BRANCH   8  23
HETATM   23  N3  UNL     1      27.410   2.350  52.718  1.00  0.00    -0.318 N 
HETATM   24  H5  UNL     1      27.414   3.291  52.314  1.00  0.00     0.169 HD
BRANCH  23  25
HETATM   25  C6  UNL     1      28.633   2.355  53.497  1.00  0.00     0.354 C 
HETATM   26  O1  UNL     1      29.209   2.532  54.624  1.00  0.00    -0.283 OA
ENDBRANCH  23  25
ENDBRANCH   8  23
TORSDOF 8
ENDMDL
MODEL 2
REMARK VINA RESULT:      -6.8      3.572      5.944
REMARK  8 active torsions:
REMARK  status: ('A' for Active; 'I' for Inactive)
REMARK    1  A    between atoms: C5_8  and  N3_9 
REMARK    2  A    between atoms: N3_9  and  C6_10 
REMARK    3  A    between atoms: C8_13  and  C9_14 
REMARK    4  A    between atoms: C9_14  and  C10_15 
REMARK    5  A    between atoms: C10_15  and  N4_16 
REMARK       I    between atoms: N4_16  and  C11_17 
REMARK    6  A    between atoms: C11_17  and  C12_19 
REMARK    7  A    between atoms: C13_20  and  C14_21 
REMARK    8  A    between atoms: C14_21  and  N5_22 
ROOT
HETATM    1  C1  UNL     1      21.837   3.913  50.599  1.00  0.00     0.057 C 
HETATM    2  C2  UNL     1      21.856   2.713  51.460  1.00  0.00    -0.012 A 
HETATM    3  S1  UNL     1      20.352   2.358  52.203  1.00  0.00    -0.074 SA
HETATM    4  C3  UNL     1      20.984   0.859  53.137  1.00  0.00     0.114 A 
HETATM    5  N1  UNL     1      20.339  -0.048  54.017  1.00  0.00    -0.234 NA
HETATM    6  C4  UNL     1      21.060  -1.035  54.529  1.00  0.00     0.236 A 
HETATM    7  N2  UNL     1      22.326  -1.073  54.159  1.00  0.00    -0.223 NA
HETATM    8  C5  UNL     1      22.937  -0.239  53.345  1.00  0.00     0.144 A 
HETATM    9  C7  UNL     1      22.317   0.821  52.746  1.00  0.00     0.053 A 
HETATM   10  C8  UNL     1      22.761   1.772  51.885  1.00  0.00    -0.027 A 
ENDROOT
BRANCH  10  11
HETATM   11  C9  UNL     1      24.135   1.824  51.343  1.00  0.00     0.060 C 
BRANCH  11  12
HETATM   12  C10 UNL     1      25.022   2.742  52.142  1.00  0.00     0.127 C 
BRANCH  12  13
HETATM   13  N4  UNL     1      26.428   2.661  51.863  1.00  0.00    -0.357 N 
HETATM   14  C11 UNL     1      27.058   2.475  53.159  1.00  0.00     0.240 C 
HETATM   15  O2  UNL     1      26.269   2.428  54.172  1.00  0.00    -0.269 OA
HETATM   16  H11 UNL     1      27.289   2.658  51.250  1.00  0.00     0.162 HD
BRANCH  14  17
HETATM   17  C12 UNL     1      28.453   2.328  53.549  1.00  0.00     0.072 C 
HETATM   18  C13 UNL     1      29.003   1.354  54.205  1.00  0.00     0.008 C 
BRANCH  18  19
HETATM   19  C14 UNL     1      28.589   0.071  54.818  1.00  0.00     0.299 C 
BRANCH  19  20
HETATM   20  N5  UNL     1      29.178  -1.006  54.042  1.00  0.00     0.083 N 
HETATM   21  C15 UNL     1      30.345  -0.429  53.394  1.00  0.00     0.309 C 
HETATM   22  C16 UNL     1      28.214  -1.483  53.094  1.00  0.00     0.309 C 
ENDBRANCH  19  20
ENDBRANCH  18  19
ENDBRANCH  14  17
ENDBRANCH  12  13
ENDBRANCH  11  12
ENDBRANCH  10  11
BRANCH   8  23
HETATM   23  N3  UNL     1      24.298  -0.599  53.196  1.00  0.00    -0.318 N 
HETATM   24  H5  UNL     1      25.109  -0.843  52.619  1.00  0.00     0.169 HD
BRANCH  23  25
HETATM   25  C6  UNL     1      24.853  -0.663  54.533  1.00  0.00     0.354 C 
HETATM   26  O1  UNL     1      25.380  -1.360  55.465  1.00  0.00    -0.283 OA
ENDBRANCH  23  25
ENDBRANCH   8  23
TORSDOF 8
ENDMDL
MODEL 3
REMARK VINA RESULT:      -6.6      1.866      2.137
REMARK  8 active torsions:
REMARK  status: ('A' for Active; 'I' for Inactive)
REMARK    1  A    between atoms: C5_8  and  N3_9 
REMARK    2  A    between atoms: N3_9  and  C6_10 
REMARK    3  A    between atoms: C8_13  and  C9_14 
REMARK    4  A    between atoms: C9_14  and  C10_15 
REMARK    5  A    between atoms: C10_15  and  N4_16 
REMARK       I    between atoms: N4_16  and  C11_17 
REMARK    6  A    between atoms: C11_17  and  C12_19 
REMARK    7  A    between atoms: C13_20  and  C14_21 
REMARK    8  A    between atoms: C14_21  and  N5_22 
ROOT
HETATM    1  C1  UNL     1      21.475   0.644  51.286  1.00  0.00     0.057 C 
HETATM    2  C2  UNL     1      22.688   0.600  52.128  1.00  0.00    -0.012 A 
HETATM    3  S1  UNL     1      22.757  -0.747  53.188  1.00  0.00    -0.074 SA
HETATM    4  C3  UNL     1      24.390  -0.253  53.968  1.00  0.00     0.114 A 
HETATM    5  N1  UNL     1      25.181  -0.865  54.974  1.00  0.00    -0.234 NA
HETATM    6  C4  UNL     1      26.315  -0.272  55.319  1.00  0.00     0.236 A 
HETATM    7  N2  UNL     1      26.595   0.847  54.679  1.00  0.00    -0.223 NA
HETATM    8  C5  UNL     1      25.872   1.427  53.745  1.00  0.00     0.144 A 
HETATM    9  C7  UNL     1      24.685   0.925  53.292  1.00  0.00     0.053 A 
HETATM   10  C8  UNL     1      23.810   1.360  52.348  1.00  0.00    -0.027 A 
ENDROOT
BRANCH  10  11
HETATM   11  C9  UNL     1      24.018   2.563  51.516  1.00  0.00     0.060 C 
BRANCH  11  12
HETATM   12  C10 UNL     1      23.319   3.769  52.084  1.00  0.00     0.127 C 
BRANCH  12  13
HETATM   13  N4  UNL     1      24.111   4.961  52.200  1.00  0.00    -0.357 N 
HETATM   14  C11 UNL     1      23.482   5.919  51.307  1.00  0.00     0.240 C 
HETATM   15  O2  UNL     1      22.442   5.507  50.674  1.00  0.00    -0.269 OA
HETATM   16  H11 UNL     1      24.903   5.559  52.564  1.00  0.00     0.162 HD
BRANCH  14  17
HETATM   17  C12 UNL     1      23.808   7.299  50.976  1.00  0.00     0.072 C 
HETATM   18  C13 UNL     1      24.857   7.747  50.358  1.00  0.00     0.008 C 
BRANCH  18  19
HETATM   19  C14 UNL     1      26.092   7.200  49.751  1.00  0.00     0.299 C 
BRANCH  19  20
HETATM   20  N5  UNL     1      26.847   8.308  49.195  1.00  0.00     0.083 N 
HETATM   21  C15 UNL     1      27.999   7.707  48.541  1.00  0.00     0.309 C 
HETATM   22  C16 UNL     1      27.229   9.195  50.254  1.00  0.00     0.309 C 
ENDBRANCH  19  20
ENDBRANCH  18  19
ENDBRANCH  14  17
ENDBRANCH  12  13
ENDBRANCH  11  12
ENDBRANCH  10  11
BRANCH   8  23
HETATM   23  N3  UNL     1      26.496   2.617  53.301  1.00  0.00    -0.318 N 
HETATM   24  H5  UNL     1      26.465   3.604  53.028  1.00  0.00     0.169 HD
BRANCH  23  25
HETATM   25  C6  UNL     1      27.902   2.305  53.140  1.00  0.00     0.354 C 
HETATM   26  O1  UNL     1      29.121   2.669  53.255  1.00  0.00    -0.283 OA
ENDBRANCH  23  25
ENDBRANCH   8  23
TORSDOF 8
ENDMDL
MODEL 4
REMARK VINA RESULT:      -6.4      2.960      4.405
REMARK  8 active torsions:
REMARK  status: ('A' for Active; 'I' for Inactive)
REMARK    1  A    between atoms: C5_8  and  N3_9 
REMARK    2  A    between atoms: N3_9  and  C6_10 
REMARK    3  A    between atoms: C8_13  and  C9_14 
REMARK    4  A    between atoms: C9_14  and  C10_15 
REMARK    5  A    between atoms: C10_15  and  N4_16 
REMARK       I    between atoms: N4_16  and  C11_17 
REMARK    6  A    between atoms: C11_17  and  C12_19 
REMARK    7  A    between atoms: C13_20  and  C14_21 
REMARK    8  A    between atoms: C14_21  and  N5_22 
ROOT
HETATM    1  C1  UNL     1      26.605   1.107  52.816  1.00  0.00     0.057 C 
HETATM    2  C2  UNL     1      25.229   0.636  53.072  1.00  0.00    -0.012 A 
HETATM    3  S1  UNL     1      25.112  -0.544  54.312  1.00  0.00    -0.074 SA
HETATM    4  C3  UNL     1      23.255  -0.763  54.148  1.00  0.00     0.114 A 
HETATM    5  N1  UNL     1      22.336  -1.587  54.846  1.00  0.00    -0.234 NA
HETATM    6  C4  UNL     1      21.057  -1.517  54.505  1.00  0.00     0.236 A 
HETATM    7  N2  UNL     1      20.767  -0.672  53.534  1.00  0.00    -0.223 NA
HETATM    8  C5  UNL     1      21.608   0.098  52.879  1.00  0.00     0.144 A 
HETATM    9  C7  UNL     1      22.952   0.129  53.127  1.00  0.00     0.053 A 
HETATM   10  C8  UNL     1      23.966   0.846  52.577  1.00  0.00    -0.027 A 
ENDROOT
BRANCH  10  11
HETATM   11  C9  UNL     1      23.785   1.866  51.524  1.00  0.00     0.060 C 
BRANCH  11  12
HETATM   12  C10 UNL     1      23.575   3.241  52.102  1.00  0.00     0.127 C 
BRANCH  12  13
HETATM   13  N4  UNL     1      24.536   4.238  51.721  1.00  0.00    -0.357 N 
HETATM   14  C11 UNL     1      23.773   5.470  51.608  1.00  0.00     0.240 C 
HETATM   15  O2  UNL     1      22.516   5.384  51.858  1.00  0.00    -0.269 OA
HETATM   16  H11 UNL     1      25.495   4.605  51.470  1.00  0.00     0.162 HD
BRANCH  14  17
HETATM   17  C12 UNL     1      24.166   6.826  51.253  1.00  0.00     0.072 C 
HETATM   18  C13 UNL     1      25.093   7.202  50.427  1.00  0.00     0.008 C 
BRANCH  18  19
HETATM   19  C14 UNL     1      26.093   6.568  49.538  1.00  0.00     0.299 C 
BRANCH  19  20
HETATM   20  N5  UNL     1      26.812   7.624  48.848  1.00  0.00     0.083 N 
HETATM   21  C15 UNL     1      28.003   6.993  48.300  1.00  0.00     0.309 C 
HETATM   22  C16 UNL     1      27.133   8.663  49.782  1.00  0.00     0.309 C 
ENDBRANCH  19  20
ENDBRANCH  18  19
ENDBRANCH  14  17
ENDBRANCH  12  13
ENDBRANCH  11  12
ENDBRANCH  10  11
BRANCH   8  23
HETATM   23  N3  UNL     1      20.925   0.864  51.903  1.00  0.00    -0.318 N 
HETATM   24  H5  UNL     1      20.671   1.068  50.933  1.00  0.00     0.169 HD
BRANCH  23  25
HETATM   25  C6  UNL     1      20.210   1.898  52.624  1.00  0.00     0.354 C 
HETATM   26  O1  UNL     1      19.905   3.133  52.745  1.00  0.00    -0.283 OA
ENDBRANCH  23  25
ENDBRANCH   8  23
TORSDOF 8
ENDMDL
MODEL 5
REMARK VINA RESULT:      -6.4      2.735      4.251
REMARK  8 active torsions:
REMARK  status: ('A' for Active; 'I' for Inactive)
REMARK    1  A    between atoms: C5_8  and  N3_9 
REMARK    2  A    between atoms: N3_9  and  C6_10 
REMARK    3  A    between atoms: C8_13  and  C9_14 
REMARK    4  A    between atoms: C9_14  and  C10_15 
REMARK    5  A    between atoms: C10_15  and  N4_16 
REMARK       I    between atoms: N4_16  and  C11_17 
REMARK    6  A    between atoms: C11_17  and  C12_19 
REMARK    7  A    between atoms: C13_20  and  C14_21 
REMARK    8  A    between atoms: C14_21  and  N5_22 
ROOT
HETATM    1  C1  UNL     1      27.301   1.135  53.470  1.00  0.00     0.057 C 
HETATM    2  C2  UNL     1      25.846   0.886  53.411  1.00  0.00    -0.012 A 
HETATM    3  S1  UNL     1      25.368  -0.627  54.063  1.00  0.00    -0.074 SA
HETATM    4  C3  UNL     1      23.545  -0.395  53.686  1.00  0.00     0.114 A 
HETATM    5  N1  UNL     1      22.418  -1.221  53.924  1.00  0.00    -0.234 NA
HETATM    6  C4  UNL     1      21.229  -0.775  53.544  1.00  0.00     0.236 A 
HETATM    7  N2  UNL     1      21.218   0.415  52.973  1.00  0.00    -0.223 NA
HETATM    8  C5  UNL     1      22.255   1.192  52.746  1.00  0.00     0.144 A 
HETATM    9  C7  UNL     1      23.535   0.859  53.086  1.00  0.00     0.053 A 
HETATM   10  C8  UNL     1      24.718   1.514  52.947  1.00  0.00    -0.027 A 
ENDROOT
BRANCH  10  11
HETATM   11  C9  UNL     1      24.852   2.872  52.380  1.00  0.00     0.060 C 
BRANCH  11  12
HETATM   12  C10 UNL     1      25.394   2.844  50.975  1.00  0.00     0.127 C 
BRANCH  12  13
HETATM   13  N4  UNL     1      26.378   3.841  50.659  1.00  0.00    -0.357 N 
HETATM   14  C11 UNL     1      25.766   4.659  49.627  1.00  0.00     0.240 C 
HETATM   15  O2  UNL     1      24.578   4.325  49.268  1.00  0.00    -0.269 OA
HETATM   16  H11 UNL     1      27.309   4.335  50.742  1.00  0.00     0.162 HD
BRANCH  14  17
HETATM   17  C12 UNL     1      26.249   5.819  48.893  1.00  0.00     0.072 C 
HETATM   18  C13 UNL     1      27.434   6.022  48.404  1.00  0.00     0.008 C 
BRANCH  18  19
HETATM   19  C14 UNL     1      28.730   5.308  48.335  1.00  0.00     0.299 C 
BRANCH  19  20
HETATM   20  N5  UNL     1      29.704   6.204  47.739  1.00  0.00     0.083 N 
HETATM   21  C15 UNL     1      31.000   5.587  47.978  1.00  0.00     0.309 C 
HETATM   22  C16 UNL     1      29.597   7.493  48.357  1.00  0.00     0.309 C 
ENDBRANCH  19  20
ENDBRANCH  18  19
ENDBRANCH  14  17
ENDBRANCH  12  13
ENDBRANCH  11  12
ENDBRANCH  10  11
BRANCH   8  23
HETATM   23  N3  UNL     1      21.848   2.389  52.109  1.00  0.00    -0.318 N 
HETATM   24  H5  UNL     1      22.030   3.196  51.506  1.00  0.00     0.169 HD
BRANCH  23  25
HETATM   25  C6  UNL     1      20.468   2.608  52.494  1.00  0.00     0.354 C 
HETATM   26  O1  UNL     1      19.416   3.329  52.424  1.00  0.00    -0.283 OA
ENDBRANCH  23  25
ENDBRANCH   8  23
TORSDOF 8
ENDMDL
MODEL 6
REMARK VINA RESULT:      -6.4      2.030      2.743
REMARK  8 active torsions:
REMARK  status: ('A' for Active; 'I' for Inactive)
REMARK    1  A    between atoms: C5_8  and  N3_9 
REMARK    2  A    between atoms: N3_9  and  C6_10 
REMARK    3  A    between atoms: C8_13  and  C9_14 
REMARK    4  A    between atoms: C9_14  and  C10_15 
REMARK    5  A    between atoms: C10_15  and  N4_16 
REMARK       I    between atoms: N4_16  and  C11_17 
REMARK    6  A    between atoms: C11_17  and  C12_19 
REMARK    7  A    between atoms: C13_20  and  C14_21 
REMARK    8  A    between atoms: C14_21  and  N5_22 
ROOT
HETATM    1  C1  UNL     1      21.182   2.934  50.880  1.00  0.00     0.057 C 
HETATM    2  C2  UNL     1      21.768   1.950  51.813  1.00  0.00    -0.012 A 
HETATM    3  S1  UNL     1      20.665   1.350  52.982  1.00  0.00    -0.074 SA
HETATM    4  C3  UNL     1      21.922   0.254  53.841  1.00  0.00     0.114 A 
HETATM    5  N1  UNL     1      21.811  -0.622  54.950  1.00  0.00    -0.234 NA
HETATM    6  C4  UNL     1      22.896  -1.282  55.332  1.00  0.00     0.236 A 
HETATM    7  N2  UNL     1      23.986  -1.050  54.626  1.00  0.00    -0.223 NA
HETATM    8  C5  UNL     1      24.104  -0.241  53.595  1.00  0.00     0.144 A 
HETATM    9  C7  UNL     1      23.070   0.498  53.095  1.00  0.00     0.053 A 
HETATM   10  C8  UNL     1      22.987   1.368  52.055  1.00  0.00    -0.027 A 
ENDROOT
BRANCH  10  11
HETATM   11  C9  UNL     1      24.108   1.682  51.145  1.00  0.00     0.060 C 
BRANCH  11  12
HETATM   12  C10 UNL     1      24.723   3.022  51.450  1.00  0.00     0.127 C 
BRANCH  12  13
HETATM   13  N4  UNL     1      24.943   3.886  50.324  1.00  0.00    -0.357 N 
HETATM   14  C11 UNL     1      26.362   3.773  50.035  1.00  0.00     0.240 C 
HETATM   15  O2  UNL     1      27.035   2.985  50.795  1.00  0.00    -0.269 OA
HETATM   16  H11 UNL     1      24.666   4.571  49.568  1.00  0.00     0.162 HD
BRANCH  14  17
HETATM   17  C12 UNL     1      27.200   4.398  49.022  1.00  0.00     0.072 C 
HETATM   18  C13 UNL     1      27.189   5.633  48.625  1.00  0.00     0.008 C 
BRANCH  18  19
HETATM   19  C14 UNL     1      26.447   6.878  48.929  1.00  0.00     0.299 C 
BRANCH  19  20
HETATM   20  N5  UNL     1      25.295   6.939  48.046  1.00  0.00     0.083 N 
HETATM   21  C15 UNL     1      25.541   8.068  47.162  1.00  0.00     0.309 C 
HETATM   22  C16 UNL     1      24.110   7.117  48.832  1.00  0.00     0.309 C 
ENDBRANCH  19  20
ENDBRANCH  18  19
ENDBRANCH  14  17
ENDBRANCH  12  13
ENDBRANCH  11  12
ENDBRANCH  10  11
BRANCH   8  23
HETATM   23  N3  UNL     1      25.432  -0.253  53.103  1.00  0.00    -0.318 N 
HETATM   24  H5  UNL     1      26.141  -0.555  52.429  1.00  0.00     0.169 HD
BRANCH  23  25
HETATM   25  C6  UNL     1      26.206   0.586  53.996  1.00  0.00     0.354 C 
HETATM   26  O1  UNL     1      26.348   1.708  54.591  1.00  0.00    -0.283 OA
ENDBRANCH  23  25
ENDBRANCH   8  23
TORSDOF 8
ENDMDL
MODEL 7
REMARK VINA RESULT:      -6.3      2.445      2.975
REMARK  8 active torsions:
REMARK  status: ('A' for Active; 'I' for Inactive)
REMARK    1  A    between atoms: C5_8  and  N3_9 
REMARK    2  A    between atoms: N3_9  and  C6_10 
REMARK    3  A    between atoms: C8_13  and  C9_14 
REMARK    4  A    between atoms: C9_14  and  C10_15 
REMARK    5  A    between atoms: C10_15  and  N4_16 
REMARK       I    between atoms: N4_16  and  C11_17 
REMARK    6  A    between atoms: C11_17  and  C12_19 
REMARK    7  A    between atoms: C13_20  and  C14_21 
REMARK    8  A    between atoms: C14_21  and  N5_22 
ROOT
HETATM    1  C1  UNL     1      21.523   3.565  49.943  1.00  0.00     0.057 C 
HETATM    2  C2  UNL     1      22.450   2.702  50.703  1.00  0.00    -0.012 A 
HETATM    3  S1  UNL     1      21.685   1.721  51.885  1.00  0.00    -0.074 SA
HETATM    4  C3  UNL     1      23.277   0.943  52.501  1.00  0.00     0.114 A 
HETATM    5  N1  UNL     1      23.528  -0.024  53.508  1.00  0.00    -0.234 NA
HETATM    6  C4  UNL     1      24.785  -0.390  53.717  1.00  0.00     0.236 A 
HETATM    7  N2  UNL     1      25.687   0.193  52.952  1.00  0.00    -0.223 NA
HETATM    8  C5  UNL     1      25.469   1.091  52.015  1.00  0.00     0.144 A 
HETATM    9  C7  UNL     1      24.226   1.558  51.694  1.00  0.00     0.053 A 
HETATM   10  C8  UNL     1      23.799   2.459  50.772  1.00  0.00    -0.027 A 
ENDROOT
BRANCH  10  11
HETATM   11  C9  UNL     1      24.686   3.148  49.811  1.00  0.00     0.060 C 
BRANCH  11  12
HETATM   12  C10 UNL     1      25.054   4.531  50.277  1.00  0.00     0.127 C 
BRANCH  12  13
HETATM   13  N4  UNL     1      26.399   4.952  50.003  1.00  0.00    -0.357 N 
HETATM   14  C11 UNL     1      26.272   5.971  48.975  1.00  0.00     0.240 C 
HETATM   15  O2  UNL     1      25.077   6.237  48.585  1.00  0.00    -0.269 OA
HETATM   16  H11 UNL     1      27.450   4.951  50.116  1.00  0.00     0.162 HD
BRANCH  14  17
HETATM   17  C12 UNL     1      27.264   6.775  48.276  1.00  0.00     0.072 C 
HETATM   18  C13 UNL     1      28.496   6.469  48.005  1.00  0.00     0.008 C 
BRANCH  18  19
HETATM   19  C14 UNL     1      29.417   5.331  48.219  1.00  0.00     0.299 C 
BRANCH  19  20
HETATM   20  N5  UNL     1      30.766   5.786  47.933  1.00  0.00     0.083 N 
HETATM   21  C15 UNL     1      31.476   4.616  47.439  1.00  0.00     0.309 C 
HETATM   22  C16 UNL     1      31.352   6.306  49.133  1.00  0.00     0.309 C 
ENDBRANCH  19  20
ENDBRANCH  18  19
ENDBRANCH  14  17
ENDBRANCH  12  13
ENDBRANCH  11  12
ENDBRANCH  10  11
BRANCH   8  23
HETATM   23  N3  UNL     1      26.688   1.488  51.414  1.00  0.00    -0.318 N 
HETATM   24  H5  UNL     1      27.332   1.523  50.618  1.00  0.00     0.169 HD
BRANCH  23  25
HETATM   25  C6  UNL     1      27.420   2.225  52.424  1.00  0.00     0.354 C 
HETATM   26  O1  UNL     1      28.530   2.470  53.007  1.00  0.00    -0.283 OA
ENDBRANCH  23  25
ENDBRANCH   8  23
TORSDOF 8
ENDMDL
MODEL 8
REMARK VINA RESULT:      -6.1      2.543      4.199
REMARK  8 active torsions:
REMARK  status: ('A' for Active; 'I' for Inactive)
REMARK    1  A    between atoms: C5_8  and  N3_9 
REMARK    2  A    between atoms: N3_9  and  C6_10 
REMARK    3  A    between atoms: C8_13  and  C9_14 
REMARK    4  A    between atoms: C9_14  and  C10_15 
REMARK    5  A    between atoms: C10_15  and  N4_16 
REMARK       I    between atoms: N4_16  and  C11_17 
REMARK    6  A    between atoms: C11_17  and  C12_19 
REMARK    7  A    between atoms: C13_20  and  C14_21 
REMARK    8  A    between atoms: C14_21  and  N5_22 
ROOT
HETATM    1  C1  UNL     1      25.225  -0.432  54.230  1.00  0.00     0.057 C 
HETATM    2  C2  UNL     1      24.137   0.152  53.419  1.00  0.00    -0.012 A 
HETATM    3  S1  UNL     1      22.728  -0.822  53.333  1.00  0.00    -0.074 SA
HETATM    4  C3  UNL     1      21.792   0.352  52.208  1.00  0.00     0.114 A 
HETATM    5  N1  UNL     1      20.490   0.289  51.647  1.00  0.00    -0.234 NA
HETATM    6  C4  UNL     1      20.094   1.294  50.880  1.00  0.00     0.236 A 
HETATM    7  N2  UNL     1      20.969   2.268  50.715  1.00  0.00    -0.223 NA
HETATM    8  C5  UNL     1      22.178   2.341  51.227  1.00  0.00     0.144 A 
HETATM    9  C7  UNL     1      22.713   1.378  52.035  1.00  0.00     0.053 A 
HETATM   10  C8  UNL     1      23.916   1.273  52.659  1.00  0.00    -0.027 A 
ENDROOT
BRANCH  10  11
HETATM   11  C9  UNL     1      24.969   2.308  52.609  1.00  0.00     0.060 C 
BRANCH  11  12
HETATM   12  C10 UNL     1      25.942   2.069  51.485  1.00  0.00     0.127 C 
BRANCH  12  13
HETATM   13  N4  UNL     1      26.812   3.165  51.161  1.00  0.00    -0.357 N 
HETATM   14  C11 UNL     1      26.328   3.664  49.885  1.00  0.00     0.240 C 
HETATM   15  O2  UNL     1      25.312   3.055  49.386  1.00  0.00    -0.269 OA
HETATM   16  H11 UNL     1      27.617   3.832  51.314  1.00  0.00     0.162 HD
BRANCH  14  17
HETATM   17  C12 UNL     1      26.784   4.751  49.032  1.00  0.00     0.072 C 
HETATM   18  C13 UNL     1      26.431   5.999  49.067  1.00  0.00     0.008 C 
BRANCH  18  19
HETATM   19  C14 UNL     1      25.525   6.862  49.858  1.00  0.00     0.299 C 
BRANCH  19  20
HETATM   20  N5  UNL     1      24.452   7.305  48.985  1.00  0.00     0.083 N 
HETATM   21  C15 UNL     1      25.108   7.868  47.815  1.00  0.00     0.309 C 
HETATM   22  C16 UNL     1      23.654   8.274  49.676  1.00  0.00     0.309 C 
ENDBRANCH  19  20
ENDBRANCH  18  19
ENDBRANCH  14  17
ENDBRANCH  12  13
ENDBRANCH  11  12
ENDBRANCH  10  11
BRANCH   8  23
HETATM   23  N3  UNL     1      22.820   3.535  50.819  1.00  0.00    -0.318 N 
HETATM   24  H5  UNL     1      23.547   4.036  50.299  1.00  0.00     0.169 HD
BRANCH  23  25
HETATM   25  C6  UNL     1      22.097   4.623  51.446  1.00  0.00     0.354 C 
HETATM   26  O1  UNL     1      21.886   5.879  51.547  1.00  0.00    -0.283 OA
ENDBRANCH  23  25
ENDBRANCH   8  23
TORSDOF 8
ENDMDL
MODEL 9
REMARK VINA RESULT:      -6.0      2.726      3.496
REMARK  8 active torsions:
REMARK  status: ('A' for Active; 'I' for Inactive)
REMARK    1  A    between atoms: C5_8  and  N3_9 
REMARK    2  A    between atoms: N3_9  and  C6_10 
REMARK    3  A    between atoms: C8_13  and  C9_14 
REMARK    4  A    between atoms: C9_14  and  C10_15 
REMARK    5  A    between atoms: C10_15  and  N4_16 
REMARK       I    between atoms: N4_16  and  C11_17 
REMARK    6  A    between atoms: C11_17  and  C12_19 
REMARK    7  A    between atoms: C13_20  and  C14_21 
REMARK    8  A    between atoms: C14_21  and  N5_22 
ROOT
HETATM    1  C1  UNL     1      20.910   1.727  51.257  1.00  0.00     0.057 C 
HETATM    2  C2  UNL     1      21.789   1.012  52.204  1.00  0.00    -0.012 A 
HETATM    3  S1  UNL     1      20.949   0.081  53.374  1.00  0.00    -0.074 SA
HETATM    4  C3  UNL     1      22.499  -0.509  54.251  1.00  0.00     0.114 A 
HETATM    5  N1  UNL     1      22.685  -1.360  55.371  1.00  0.00    -0.234 NA
HETATM    6  C4  UNL     1      23.927  -1.604  55.765  1.00  0.00     0.236 A 
HETATM    7  N2  UNL     1      24.878  -1.019  55.061  1.00  0.00    -0.223 NA
HETATM    8  C5  UNL     1      24.720  -0.228  54.022  1.00  0.00     0.144 A 
HETATM    9  C7  UNL     1      23.499   0.107  53.509  1.00  0.00     0.053 A 
HETATM   10  C8  UNL     1      23.132   0.886  52.458  1.00  0.00    -0.027 A 
ENDROOT
BRANCH  10  11
HETATM   11  C9  UNL     1      24.085   1.557  51.550  1.00  0.00     0.060 C 
BRANCH  11  12
HETATM   12  C10 UNL     1      24.320   2.992  51.940  1.00  0.00     0.127 C 
BRANCH  12  13
HETATM   13  N4  UNL     1      23.982   3.978  50.952  1.00  0.00    -0.357 N 
HETATM   14  C11 UNL     1      22.971   4.810  51.581  1.00  0.00     0.240 C 
HETATM   15  O2  UNL     1      22.643   4.494  52.783  1.00  0.00    -0.269 OA
HETATM   16  H11 UNL     1      24.042   4.459  50.013  1.00  0.00     0.162 HD
BRANCH  14  17
HETATM   17  C12 UNL     1      22.230   5.968  51.102  1.00  0.00     0.072 C 
HETATM   18  C13 UNL     1      22.694   7.128  50.754  1.00  0.00     0.008 C 
BRANCH  18  19
HETATM   19  C14 UNL     1      24.009   7.803  50.667  1.00  0.00     0.299 C 
BRANCH  19  20
HETATM   20  N5  UNL     1      24.169   8.301  49.313  1.00  0.00     0.083 N 
HETATM   21  C15 UNL     1      22.884   8.885  48.957  1.00  0.00     0.309 C 
HETATM   22  C16 UNL     1      24.524   7.213  48.451  1.00  0.00     0.309 C 
ENDBRANCH  19  20
ENDBRANCH  18  19
ENDBRANCH  14  17
ENDBRANCH  12  13
ENDBRANCH  11  12
ENDBRANCH  10  11
BRANCH   8  23
HETATM   23  N3  UNL     1      25.975   0.212  53.537  1.00  0.00    -0.318 N 
HETATM   24  H5  UNL     1      26.689   0.934  53.407  1.00  0.00     0.169 HD
BRANCH  23  25
HETATM   25  C6  UNL     1      26.582  -0.929  52.881  1.00  0.00     0.354 C 
HETATM   26  O1  UNL     1      27.075  -2.105  52.969  1.00  0.00    -0.283 OA
ENDBRANCH  23  25
ENDBRANCH   8  23
TORSDOF 8
ENDMDL
