MODEL 1
REMARK VINA RESULT:      -9.5      0.000      0.000
REMARK  2 active torsions:
REMARK  status: ('A' for Active; 'I' for Inactive)
REMARK    1  A    between atoms: C11_15  and  N4_16 
REMARK    2  A    between atoms: N4_16  and  C12_17 
ROOT
HETATM    1  O1  UNL     1      21.336   3.519  52.027  1.00  0.00    -0.271 OA
HETATM    2  C1  UNL     1      21.856   2.994  51.018  1.00  0.00     0.242 C 
HETATM    3  C2  UNL     1      22.354   2.623  49.708  1.00  0.00     0.105 C 
HETATM    4  C3  UNL     1      21.503   1.811  48.810  1.00  0.00     0.009 C 
HETATM    5  C4  UNL     1      20.131   2.250  48.526  1.00  0.00     0.001 C 
HETATM    6  C5  UNL     1      19.069   2.236  49.542  1.00  0.00     0.002 C 
HETATM    7  C6  UNL     1      18.612   0.971  50.144  1.00  0.00     0.022 C 
HETATM    8  C7  UNL     1      19.445   0.244  51.140  1.00  0.00     0.148 C 
HETATM    9  N1  UNL     1      19.646   0.891  52.392  1.00  0.00    -0.299 NA
HETATM   10  C8  UNL     1      20.527   0.738  53.282  1.00  0.00     0.143 C 
HETATM   11  C9  UNL     1      21.719   0.085  53.803  1.00  0.00     0.090 A 
HETATM   12  N2  UNL     1      21.720  -0.627  54.942  1.00  0.00    -0.240 NA
HETATM   13  C10 UNL     1      22.886  -1.203  55.371  1.00  0.00     0.236 A 
HETATM   14  N3  UNL     1      24.023  -1.077  54.687  1.00  0.00    -0.223 NA
HETATM   15  C11 UNL     1      24.057  -0.379  53.556  1.00  0.00     0.143 A 
HETATM   16  C18 UNL     1      22.916   0.221  53.077  1.00  0.00     0.058 A 
HETATM   17  C19 UNL     1      22.732   1.013  51.839  1.00  0.00     0.138 C 
HETATM   18  N5  UNL     1      22.111   2.137  52.115  1.00  0.00    -0.226 NA
ENDROOT
BRANCH  15  19
HETATM   19  N4  UNL     1      25.197  -0.171  52.732  1.00  0.00    -0.340 N 
HETATM   20  H15 UNL     1      25.084   0.154  51.723  1.00  0.00     0.167 HD
BRANCH  19  21
HETATM   21  C12 UNL     1      26.583  -0.327  53.021  1.00  0.00     0.035 A 
HETATM   22  C13 UNL     1      27.308  -1.480  52.824  1.00  0.00     0.032 A 
HETATM   23  C14 UNL     1      28.643  -1.566  53.127  1.00  0.00     0.046 A 
HETATM   24  C15 UNL     1      29.353  -0.525  53.641  1.00  0.00     0.138 A 
HETATM   25  F1  UNL     1      30.667  -0.670  53.916  1.00  0.00    -0.204 F 
HETATM   26  C16 UNL     1      28.654   0.638  53.845  1.00  0.00     0.074 A 
HETATM   27 CL1  UNL     1      29.585   1.985  54.513  1.00  0.00    -0.081 Cl
HETATM   28  C17 UNL     1      27.305   0.721  53.540  1.00  0.00     0.056 A 
ENDBRANCH  19  21
ENDBRANCH  15  19
TORSDOF 2
ENDMDL
MODEL 2
REMARK VINA RESULT:      -9.3      1.354      1.781
REMARK  2 active torsions:
REMARK  status: ('A' for Active; 'I' for Inactive)
REMARK    1  A    between atoms: C11_15  and  N4_16 
REMARK    2  A    between atoms: N4_16  and  C12_17 
ROOT
HETATM    1  O1  UNL     1      22.419   4.226  51.660  1.00  0.00    -0.271 OA
HETATM    2  C1  UNL     1      22.976   3.580  50.746  1.00  0.00     0.242 C 
HETATM    3  C2  UNL     1      23.624   3.091  49.544  1.00  0.00     0.105 C 
HETATM    4  C3  UNL     1      22.796   2.571  48.433  1.00  0.00     0.009 C 
HETATM    5  C4  UNL     1      21.702   3.394  47.903  1.00  0.00     0.001 C 
HETATM    6  C5  UNL     1      20.484   3.683  48.673  1.00  0.00     0.002 C 
HETATM    7  C6  UNL     1      19.566   2.603  49.074  1.00  0.00     0.022 C 
HETATM    8  C7  UNL     1      19.919   1.655  50.166  1.00  0.00     0.148 C 
HETATM    9  N1  UNL     1      20.015   2.205  51.476  1.00  0.00    -0.299 NA
HETATM   10  C8  UNL     1      20.598   1.793  52.515  1.00  0.00     0.143 C 
HETATM   11  C9  UNL     1      21.411   0.815  53.224  1.00  0.00     0.090 A 
HETATM   12  N2  UNL     1      20.960   0.124  54.285  1.00  0.00    -0.240 NA
HETATM   13  C10 UNL     1      21.791  -0.771  54.903  1.00  0.00     0.236 A 
HETATM   14  N3  UNL     1      23.038  -0.978  54.481  1.00  0.00    -0.223 NA
HETATM   15  C11 UNL     1      23.516  -0.311  53.435  1.00  0.00     0.143 A 
HETATM   16  C18 UNL     1      22.727   0.602  52.774  1.00  0.00     0.058 A 
HETATM   17  C19 UNL     1      23.052   1.423  51.585  1.00  0.00     0.138 C 
HETATM   18  N5  UNL     1      22.730   2.677  51.807  1.00  0.00    -0.226 NA
ENDROOT
BRANCH  15  19
HETATM   19  N4  UNL     1      24.820  -0.438  52.883  1.00  0.00    -0.340 N 
HETATM   20  H15 UNL     1      24.991  -1.062  52.037  1.00  0.00     0.167 HD
BRANCH  19  21
HETATM   21  C12 UNL     1      26.051   0.159  53.280  1.00  0.00     0.035 A 
HETATM   22  C13 UNL     1      26.212   1.477  53.641  1.00  0.00     0.032 A 
HETATM   23  C14 UNL     1      27.429   1.991  54.012  1.00  0.00     0.046 A 
HETATM   24  C15 UNL     1      28.566   1.245  54.052  1.00  0.00     0.138 A 
HETATM   25  F1  UNL     1      29.735   1.808  54.428  1.00  0.00    -0.204 F 
HETATM   26  C16 UNL     1      28.433  -0.075  53.698  1.00  0.00     0.074 A 
HETATM   27 CL1  UNL     1      29.915  -1.037  53.754  1.00  0.00    -0.081 Cl
HETATM   28  C17 UNL     1      27.203  -0.591  53.323  1.00  0.00     0.056 A 
ENDBRANCH  19  21
ENDBRANCH  15  19
TORSDOF 2
ENDMDL
MODEL 3
REMARK VINA RESULT:      -9.2      3.469      6.843
REMARK  2 active torsions:
REMARK  status: ('A' for Active; 'I' for Inactive)
REMARK    1  A    between atoms: C11_15  and  N4_16 
REMARK    2  A    between atoms: N4_16  and  C12_17 
ROOT
HETATM    1  O1  UNL     1      26.464  -0.768  51.638  1.00  0.00    -0.271 OA
HETATM    2  C1  UNL     1      26.534   0.476  51.748  1.00  0.00     0.242 C 
HETATM    3  C2  UNL     1      26.879   1.885  51.746  1.00  0.00     0.105 C 
HETATM    4  C3  UNL     1      27.604   2.457  52.902  1.00  0.00     0.009 C 
HETATM    5  C4  UNL     1      28.842   1.819  53.365  1.00  0.00     0.001 C 
HETATM    6  C5  UNL     1      28.857   0.498  54.011  1.00  0.00     0.002 C 
HETATM    7  C6  UNL     1      28.182   0.278  55.302  1.00  0.00     0.022 C 
HETATM    8  C7  UNL     1      26.699   0.201  55.393  1.00  0.00     0.148 C 
HETATM    9  N1  UNL     1      26.081  -0.914  54.758  1.00  0.00    -0.299 NA
HETATM   10  C8  UNL     1      24.899  -1.101  54.360  1.00  0.00     0.143 C 
HETATM   11  C9  UNL     1      23.525  -0.656  54.177  1.00  0.00     0.090 A 
HETATM   12  N2  UNL     1      22.477  -1.271  54.752  1.00  0.00    -0.240 NA
HETATM   13  C10 UNL     1      21.214  -0.796  54.523  1.00  0.00     0.236 A 
HETATM   14  N3  UNL     1      20.993   0.262  53.743  1.00  0.00    -0.223 NA
HETATM   15  C11 UNL     1      22.007   0.893  53.158  1.00  0.00     0.143 A 
HETATM   16  C18 UNL     1      23.298   0.461  53.352  1.00  0.00     0.058 A 
HETATM   17  C19 UNL     1      24.558   1.030  52.821  1.00  0.00     0.138 C 
HETATM   18  N5  UNL     1      25.289   0.077  52.289  1.00  0.00    -0.226 NA
ENDROOT
BRANCH  15  19
HETATM   19  N4  UNL     1      21.910   2.030  52.309  1.00  0.00    -0.340 N 
HETATM   20  H15 UNL     1      21.727   2.997  52.718  1.00  0.00     0.167 HD
BRANCH  19  21
HETATM   21  C12 UNL     1      22.017   2.134  50.893  1.00  0.00     0.035 A 
HETATM   22  C13 UNL     1      21.620   1.170  49.995  1.00  0.00     0.032 A 
HETATM   23  C14 UNL     1      21.754   1.332  48.640  1.00  0.00     0.046 A 
HETATM   24  C15 UNL     1      22.286   2.451  48.077  1.00  0.00     0.138 A 
HETATM   25  F1  UNL     1      22.390   2.553  46.735  1.00  0.00    -0.204 F 
HETATM   26  C16 UNL     1      22.690   3.430  48.952  1.00  0.00     0.074 A 
HETATM   27 CL1  UNL     1      23.381   4.880  48.212  1.00  0.00    -0.081 Cl
HETATM   28  C17 UNL     1      22.554   3.263  50.320  1.00  0.00     0.056 A 
ENDBRANCH  19  21
ENDBRANCH  15  19
TORSDOF 2
ENDMDL
MODEL 4
REMARK VINA RESULT:      -9.1      2.073      2.960
REMARK  2 active torsions:
REMARK  status: ('A' for Active; 'I' for Inactive)
REMARK    1  A    between atoms: C11_15  and  N4_16 
REMARK    2  A    between atoms: N4_16  and  C12_17 
ROOT
HETATM    1  O1  UNL     1      22.025   4.876  51.802  1.00  0.00    -0.271 OA
HETATM    2  C1  UNL     1      23.199   4.927  51.373  1.00  0.00     0.242 C 
HETATM    3  C2  UNL     1      24.489   5.263  50.801  1.00  0.00     0.105 C 
HETATM    4  C3  UNL     1      24.731   5.019  49.362  1.00  0.00     0.009 C 
HETATM    5  C4  UNL     1      23.787   5.550  48.372  1.00  0.00     0.001 C 
HETATM    6  C5  UNL     1      22.419   5.033  48.227  1.00  0.00     0.002 C 
HETATM    7  C6  UNL     1      22.174   3.641  47.812  1.00  0.00     0.022 C 
HETATM    8  C7  UNL     1      22.403   2.506  48.747  1.00  0.00     0.148 C 
HETATM    9  N1  UNL     1      21.543   2.432  49.879  1.00  0.00    -0.299 NA
HETATM   10  C8  UNL     1      21.668   1.846  50.989  1.00  0.00     0.143 C 
HETATM   11  C9  UNL     1      22.416   1.012  51.918  1.00  0.00     0.090 A 
HETATM   12  N2  UNL     1      21.967  -0.178  52.353  1.00  0.00    -0.240 NA
HETATM   13  C10 UNL     1      22.726  -0.899  53.235  1.00  0.00     0.236 A 
HETATM   14  N3  UNL     1      23.903  -0.453  53.675  1.00  0.00    -0.223 NA
HETATM   15  C11 UNL     1      24.377   0.720  53.265  1.00  0.00     0.143 A 
HETATM   16  C18 UNL     1      23.657   1.488  52.379  1.00  0.00     0.058 A 
HETATM   17  C19 UNL     1      24.011   2.796  51.783  1.00  0.00     0.138 C 
HETATM   18  N5  UNL     1      23.006   3.632  51.910  1.00  0.00    -0.226 NA
ENDROOT
BRANCH  15  19
HETATM   19  N4  UNL     1      25.612   1.308  53.652  1.00  0.00    -0.340 N 
HETATM   20  H15 UNL     1      25.649   2.317  53.991  1.00  0.00     0.167 HD
BRANCH  19  21
HETATM   21  C12 UNL     1      26.927   0.759  53.674  1.00  0.00     0.035 A 
HETATM   22  C13 UNL     1      28.070   1.454  53.992  1.00  0.00     0.032 A 
HETATM   23  C14 UNL     1      29.309   0.866  53.991  1.00  0.00     0.046 A 
HETATM   24  C15 UNL     1      29.506  -0.444  53.679  1.00  0.00     0.138 A 
HETATM   25  F1  UNL     1      30.751  -0.967  53.697  1.00  0.00    -0.204 F 
HETATM   26  C16 UNL     1      28.380  -1.162  53.358  1.00  0.00     0.074 A 
HETATM   27 CL1  UNL     1      28.645  -2.862  52.954  1.00  0.00    -0.081 Cl
HETATM   28  C17 UNL     1      27.130  -0.564  53.359  1.00  0.00     0.056 A 
ENDBRANCH  19  21
ENDBRANCH  15  19
TORSDOF 2
ENDMDL
MODEL 5
REMARK VINA RESULT:      -9.0      4.194      5.528
REMARK  2 active torsions:
REMARK  status: ('A' for Active; 'I' for Inactive)
REMARK    1  A    between atoms: C11_15  and  N4_16 
REMARK    2  A    between atoms: N4_16  and  C12_17 
ROOT
HETATM    1  O1  UNL     1      21.730   3.624  52.280  1.00  0.00    -0.271 OA
HETATM    2  C1  UNL     1      21.741   3.111  51.139  1.00  0.00     0.242 C 
HETATM    3  C2  UNL     1      21.470   2.592  49.812  1.00  0.00     0.105 C 
HETATM    4  C3  UNL     1      21.019   1.191  49.658  1.00  0.00     0.009 C 
HETATM    5  C4  UNL     1      19.870   0.714  50.436  1.00  0.00     0.001 C 
HETATM    6  C5  UNL     1      19.922   0.534  51.895  1.00  0.00     0.002 C 
HETATM    7  C6  UNL     1      20.831  -0.451  52.505  1.00  0.00     0.022 C 
HETATM    8  C7  UNL     1      22.298  -0.208  52.578  1.00  0.00     0.148 C 
HETATM    9  N1  UNL     1      22.723   0.863  53.415  1.00  0.00    -0.299 NA
HETATM   10  C8  UNL     1      23.791   1.533  53.439  1.00  0.00     0.143 C 
HETATM   11  C9  UNL     1      25.120   1.841  52.931  1.00  0.00     0.090 A 
HETATM   12  N2  UNL     1      26.231   1.719  53.677  1.00  0.00    -0.240 NA
HETATM   13  C10 UNL     1      27.444   2.039  53.128  1.00  0.00     0.236 A 
HETATM   14  N3  UNL     1      27.554   2.468  51.872  1.00  0.00    -0.223 NA
HETATM   15  C11 UNL     1      26.474   2.599  51.106  1.00  0.00     0.143 A 
HETATM   16  C18 UNL     1      25.229   2.293  51.604  1.00  0.00     0.058 A 
HETATM   17  C19 UNL     1      23.917   2.345  50.920  1.00  0.00     0.138 C 
HETATM   18  N5  UNL     1      23.050   2.992  51.665  1.00  0.00    -0.226 NA
ENDROOT
BRANCH  15  19
HETATM   19  N4  UNL     1      26.453   3.042  49.755  1.00  0.00    -0.340 N 
HETATM   20  H15 UNL     1      26.355   2.341  48.958  1.00  0.00     0.167 HD
BRANCH  19  21
HETATM   21  C12 UNL     1      26.547   4.356  49.214  1.00  0.00     0.035 A 
HETATM   22  C13 UNL     1      25.505   5.249  49.117  1.00  0.00     0.032 A 
HETATM   23  C14 UNL     1      25.662   6.502  48.582  1.00  0.00     0.046 A 
HETATM   24  C15 UNL     1      26.853   6.959  48.106  1.00  0.00     0.138 A 
HETATM   25  F1  UNL     1      26.946   8.204  47.592  1.00  0.00    -0.204 F 
HETATM   26  C16 UNL     1      27.910   6.087  48.192  1.00  0.00     0.074 A 
HETATM   27 CL1  UNL     1      29.452   6.690  47.572  1.00  0.00    -0.081 Cl
HETATM   28  C17 UNL     1      27.748   4.822  48.733  1.00  0.00     0.056 A 
ENDBRANCH  19  21
ENDBRANCH  15  19
TORSDOF 2
ENDMDL
MODEL 6
REMARK VINA RESULT:      -8.9      3.364      4.557
REMARK  2 active torsions:
REMARK  status: ('A' for Active; 'I' for Inactive)
REMARK    1  A    between atoms: C11_15  and  N4_16 
REMARK    2  A    between atoms: N4_16  and  C12_17 
ROOT
HETATM    1  O1  UNL     1      23.774   7.281  51.175  1.00  0.00    -0.271 OA
HETATM    2  C1  UNL     1      24.783   6.924  50.529  1.00  0.00     0.242 C 
HETATM    3  C2  UNL     1      25.972   6.796  49.708  1.00  0.00     0.105 C 
HETATM    4  C3  UNL     1      25.829   6.519  48.261  1.00  0.00     0.009 C 
HETATM    5  C4  UNL     1      24.960   7.376  47.446  1.00  0.00     0.001 C 
HETATM    6  C5  UNL     1      23.497   7.381  47.587  1.00  0.00     0.002 C 
HETATM    7  C6  UNL     1      22.702   6.177  47.290  1.00  0.00     0.022 C 
HETATM    8  C7  UNL     1      22.692   5.011  48.214  1.00  0.00     0.148 C 
HETATM    9  N1  UNL     1      22.098   5.218  49.491  1.00  0.00    -0.299 NA
HETATM   10  C8  UNL     1      22.221   4.597  50.582  1.00  0.00     0.143 C 
HETATM   11  C9  UNL     1      22.791   3.528  51.389  1.00  0.00     0.090 A 
HETATM   12  N2  UNL     1      22.045   2.565  51.955  1.00  0.00    -0.240 NA
HETATM   13  C10 UNL     1      22.657   1.599  52.708  1.00  0.00     0.236 A 
HETATM   14  N3  UNL     1      23.976   1.587  52.895  1.00  0.00    -0.223 NA
HETATM   15  C11 UNL     1      24.744   2.526  52.350  1.00  0.00     0.143 A 
HETATM   16  C18 UNL     1      24.185   3.521  51.583  1.00  0.00     0.058 A 
HETATM   17  C19 UNL     1      24.855   4.634  50.873  1.00  0.00     0.138 C 
HETATM   18  N5  UNL     1      24.254   5.769  51.151  1.00  0.00    -0.226 NA
ENDROOT
BRANCH  15  19
HETATM   19  N4  UNL     1      26.158   2.627  52.468  1.00  0.00    -0.340 N 
HETATM   20  H15 UNL     1      26.658   3.534  52.220  1.00  0.00     0.167 HD
BRANCH  19  21
HETATM   21  C12 UNL     1      27.118   1.664  52.890  1.00  0.00     0.035 A 
HETATM   22  C13 UNL     1      28.290   1.950  53.551  1.00  0.00     0.032 A 
HETATM   23  C14 UNL     1      29.176   0.973  53.928  1.00  0.00     0.046 A 
HETATM   24  C15 UNL     1      28.968  -0.349  53.681  1.00  0.00     0.138 A 
HETATM   25  F1  UNL     1      29.877  -1.265  54.079  1.00  0.00    -0.204 F 
HETATM   26  C16 UNL     1      27.804  -0.663  53.023  1.00  0.00     0.074 A 
HETATM   27 CL1  UNL     1      27.543  -2.383  52.707  1.00  0.00    -0.081 Cl
HETATM   28  C17 UNL     1      26.912   0.326  52.644  1.00  0.00     0.056 A 
ENDBRANCH  19  21
ENDBRANCH  15  19
TORSDOF 2
ENDMDL
MODEL 7
REMARK VINA RESULT:      -8.6      3.484      5.586
REMARK  2 active torsions:
REMARK  status: ('A' for Active; 'I' for Inactive)
REMARK    1  A    between atoms: C11_15  and  N4_16 
REMARK    2  A    between atoms: N4_16  and  C12_17 
ROOT
HETATM    1  O1  UNL     1      23.647   4.890  52.484  1.00  0.00    -0.271 OA
HETATM    2  C1  UNL     1      24.125   4.012  51.732  1.00  0.00     0.242 C 
HETATM    3  C2  UNL     1      24.936   3.121  50.925  1.00  0.00     0.105 C 
HETATM    4  C3  UNL     1      25.205   3.465  49.512  1.00  0.00     0.009 C 
HETATM    5  C4  UNL     1      25.747   4.788  49.182  1.00  0.00     0.001 C 
HETATM    6  C5  UNL     1      24.963   6.023  49.331  1.00  0.00     0.002 C 
HETATM    7  C6  UNL     1      23.745   6.249  48.533  1.00  0.00     0.022 C 
HETATM    8  C7  UNL     1      22.481   5.522  48.833  1.00  0.00     0.148 C 
HETATM    9  N1  UNL     1      21.853   5.826  50.075  1.00  0.00    -0.299 NA
HETATM   10  C8  UNL     1      21.015   5.187  50.767  1.00  0.00     0.143 C 
HETATM   11  C9  UNL     1      20.162   4.029  50.997  1.00  0.00     0.090 A 
HETATM   12  N2  UNL     1      18.824   4.115  51.078  1.00  0.00    -0.240 NA
HETATM   13  C10 UNL     1      18.093   2.980  51.306  1.00  0.00     0.236 A 
HETATM   14  N3  UNL     1      18.673   1.789  51.450  1.00  0.00    -0.223 NA
HETATM   15  C11 UNL     1      19.996   1.669  51.376  1.00  0.00     0.143 A 
HETATM   16  C18 UNL     1      20.781   2.775  51.148  1.00  0.00     0.058 A 
HETATM   17  C19 UNL     1      22.253   2.856  51.006  1.00  0.00     0.138 C 
HETATM   18  N5  UNL     1      22.724   3.812  51.775  1.00  0.00    -0.226 NA
ENDROOT
BRANCH  15  19
HETATM   19  N4  UNL     1      20.737   0.463  51.508  1.00  0.00    -0.340 N 
HETATM   20  H15 UNL     1      20.891  -0.172  50.666  1.00  0.00     0.167 HD
BRANCH  19  21
HETATM   21  C12 UNL     1      21.368  -0.110  52.649  1.00  0.00     0.035 A 
HETATM   22  C13 UNL     1      20.714  -0.734  53.686  1.00  0.00     0.032 A 
HETATM   23  C14 UNL     1      21.383  -1.264  54.760  1.00  0.00     0.046 A 
HETATM   24  C15 UNL     1      22.737  -1.217  54.885  1.00  0.00     0.138 A 
HETATM   25  F1  UNL     1      23.339  -1.759  55.965  1.00  0.00    -0.204 F 
HETATM   26  C16 UNL     1      23.415  -0.601  53.862  1.00  0.00     0.074 A 
HETATM   27 CL1  UNL     1      25.174  -0.545  54.032  1.00  0.00    -0.081 Cl
HETATM   28  C17 UNL     1      22.737  -0.066  52.779  1.00  0.00     0.056 A 
ENDBRANCH  19  21
ENDBRANCH  15  19
TORSDOF 2
ENDMDL
MODEL 8
REMARK VINA RESULT:      -8.4      4.611      6.625
REMARK  2 active torsions:
REMARK  status: ('A' for Active; 'I' for Inactive)
REMARK    1  A    between atoms: C11_15  and  N4_16 
REMARK    2  A    between atoms: N4_16  and  C12_17 
ROOT
HETATM    1  O1  UNL     1      22.472   1.735  49.545  1.00  0.00    -0.271 OA
HETATM    2  C1  UNL     1      23.236   1.779  50.534  1.00  0.00     0.242 C 
HETATM    3  C2  UNL     1      24.149   1.539  51.635  1.00  0.00     0.105 C 
HETATM    4  C3  UNL     1      23.606   1.199  52.969  1.00  0.00     0.009 C 
HETATM    5  C4  UNL     1      22.645   0.097  53.097  1.00  0.00     0.001 C 
HETATM    6  C5  UNL     1      21.278   0.174  52.562  1.00  0.00     0.002 C 
HETATM    7  C6  UNL     1      20.315   1.162  53.079  1.00  0.00     0.022 C 
HETATM    8  C7  UNL     1      20.430   2.605  52.733  1.00  0.00     0.148 C 
HETATM    9  N1  UNL     1      20.214   2.950  51.369  1.00  0.00    -0.299 NA
HETATM   10  C8  UNL     1      20.555   3.962  50.698  1.00  0.00     0.143 C 
HETATM   11  C9  UNL     1      21.205   5.259  50.579  1.00  0.00     0.090 A 
HETATM   12  N2  UNL     1      20.539   6.382  50.260  1.00  0.00    -0.240 NA
HETATM   13  C10 UNL     1      21.226   7.562  50.159  1.00  0.00     0.236 A 
HETATM   14  N3  UNL     1      22.540   7.629  50.369  1.00  0.00    -0.223 NA
HETATM   15  C11 UNL     1      23.230   6.537  50.686  1.00  0.00     0.143 A 
HETATM   16  C18 UNL     1      22.593   5.323  50.802  1.00  0.00     0.058 A 
HETATM   17  C19 UNL     1      23.163   4.006  51.167  1.00  0.00     0.138 C 
HETATM   18  N5  UNL     1      22.773   3.096  50.303  1.00  0.00    -0.226 NA
ENDROOT
BRANCH  15  19
HETATM   19  N4  UNL     1      24.628   6.471  50.938  1.00  0.00    -0.340 N 
HETATM   20  H15 UNL     1      24.998   6.464  51.937  1.00  0.00     0.167 HD
BRANCH  19  21
HETATM   21  C12 UNL     1      25.725   6.408  50.032  1.00  0.00     0.035 A 
HETATM   22  C13 UNL     1      26.221   5.257  49.465  1.00  0.00     0.032 A 
HETATM   23  C14 UNL     1      27.285   5.265  48.600  1.00  0.00     0.046 A 
HETATM   24  C15 UNL     1      27.932   6.406  48.234  1.00  0.00     0.138 A 
HETATM   25  F1  UNL     1      28.973   6.351  47.376  1.00  0.00    -0.204 F 
HETATM   26  C16 UNL     1      27.456   7.571  48.785  1.00  0.00     0.074 A 
HETATM   27 CL1  UNL     1      28.302   9.047  48.304  1.00  0.00    -0.081 Cl
HETATM   28  C17 UNL     1      26.381   7.558  49.659  1.00  0.00     0.056 A 
ENDBRANCH  19  21
ENDBRANCH  15  19
TORSDOF 2
ENDMDL
MODEL 9
REMARK VINA RESULT:      -8.4      3.389      6.600
REMARK  2 active torsions:
REMARK  status: ('A' for Active; 'I' for Inactive)
REMARK    1  A    between atoms: C11_15  and  N4_16 
REMARK    2  A    between atoms: N4_16  and  C12_17 
ROOT
HETATM    1  O1  UNL     1      26.440  -1.567  52.131  1.00  0.00    -0.271 OA
HETATM    2  C1  UNL     1      26.572  -0.340  51.926  1.00  0.00     0.242 C 
HETATM    3  C2  UNL     1      26.993   1.006  51.589  1.00  0.00     0.105 C 
HETATM    4  C3  UNL     1      27.688   1.826  52.606  1.00  0.00     0.009 C 
HETATM    5  C4  UNL     1      28.864   1.279  53.292  1.00  0.00     0.001 C 
HETATM    6  C5  UNL     1      28.776   0.168  54.251  1.00  0.00     0.002 C 
HETATM    7  C6  UNL     1      28.025   0.312  55.511  1.00  0.00     0.022 C 
HETATM    8  C7  UNL     1      26.537   0.319  55.525  1.00  0.00     0.148 C 
HETATM    9  N1  UNL     1      25.892  -0.895  55.155  1.00  0.00    -0.299 NA
HETATM   10  C8  UNL     1      24.724  -1.130  54.744  1.00  0.00     0.143 C 
HETATM   11  C9  UNL     1      23.387  -0.693  54.369  1.00  0.00     0.090 A 
HETATM   12  N2  UNL     1      22.280  -1.099  55.014  1.00  0.00    -0.240 NA
HETATM   13  C10 UNL     1      21.057  -0.649  54.593  1.00  0.00     0.236 A 
HETATM   14  N3  UNL     1      20.934   0.182  53.559  1.00  0.00    -0.223 NA
HETATM   15  C11 UNL     1      22.008   0.602  52.898  1.00  0.00     0.143 A 
HETATM   16  C18 UNL     1      23.263   0.184  53.276  1.00  0.00     0.058 A 
HETATM   17  C19 UNL     1      24.577   0.548  52.699  1.00  0.00     0.138 C 
HETATM   18  N5  UNL     1      25.282  -0.538  52.471  1.00  0.00    -0.226 NA
ENDROOT
BRANCH  15  19
HETATM   19  N4  UNL     1      22.016   1.487  51.785  1.00  0.00    -0.340 N 
HETATM   20  H15 UNL     1      21.583   1.193  50.857  1.00  0.00     0.167 HD
BRANCH  19  21
HETATM   21  C12 UNL     1      22.540   2.806  51.660  1.00  0.00     0.035 A 
HETATM   22  C13 UNL     1      22.145   3.889  52.410  1.00  0.00     0.032 A 
HETATM   23  C14 UNL     1      22.688   5.137  52.237  1.00  0.00     0.046 A 
HETATM   24  C15 UNL     1      23.655   5.402  51.317  1.00  0.00     0.138 A 
HETATM   25  F1  UNL     1      24.153   6.651  51.195  1.00  0.00    -0.204 F 
HETATM   26  C16 UNL     1      24.069   4.336  50.556  1.00  0.00     0.074 A 
HETATM   27 CL1  UNL     1      25.326   4.689  49.364  1.00  0.00    -0.081 Cl
HETATM   28  C17 UNL     1      23.518   3.078  50.732  1.00  0.00     0.056 A 
ENDBRANCH  19  21
ENDBRANCH  15  19
TORSDOF 2
ENDMDL
