MODEL 1
REMARK VINA RESULT:      -7.8      0.000      0.000
REMARK  6 active torsions:
REMARK  status: ('A' for Active; 'I' for Inactive)
REMARK    1  A    between atoms: C2_2  and  S1_3 
REMARK    2  A    between atoms: S1_3  and  N1_6 
REMARK    3  A    between atoms: N1_6  and  C3_7 
REMARK    4  A    between atoms: C8_13  and  N3_14 
REMARK    5  A    between atoms: N3_14  and  C9_15 
REMARK    6  A    between atoms: C13_19  and  N4_20 
ROOT
HETATM    1  C3  UNL     1      25.781   2.921  51.572  1.00  0.00     0.100 C 
HETATM    2  C4  UNL     1      24.603   2.599  52.008  1.00  0.00     0.039 C 
HETATM    3  C5  UNL     1      23.346   2.934  51.312  1.00  0.00     0.092 A 
HETATM    4  C6  UNL     1      22.890   4.334  51.652  1.00  0.00     0.115 A 
HETATM    5  N2  UNL     1      21.719   4.320  52.198  1.00  0.00    -0.273 NA
HETATM    6  C7  UNL     1      21.242   2.976  52.295  1.00  0.00     0.142 A 
HETATM    7  C8  UNL     1      22.184   2.165  51.781  1.00  0.00     0.050 A 
HETATM    8  C15 UNL     1      23.403   2.835  49.842  1.00  0.00     0.124 C 
HETATM    9  N5  UNL     1      24.405   3.185  49.133  1.00  0.00    -0.224 NA
HETATM   10  S2  UNL     1      25.802   3.830  50.009  1.00  0.00     0.029 SA
ENDROOT
BRANCH   7  11
HETATM   11  N3  UNL     1      22.018   0.756  51.715  1.00  0.00    -0.357 N 
HETATM   12  H8  UNL     1      21.868   0.197  50.870  1.00  0.00     0.166 HD
BRANCH  11  13
HETATM   13  C9  UNL     1      22.047  -0.061  52.886  1.00  0.00     0.034 A 
HETATM   14  C10 UNL     1      21.052  -0.745  53.537  1.00  0.00     0.029 A 
HETATM   15  C11 UNL     1      21.336  -1.493  54.658  1.00  0.00     0.004 A 
HETATM   16  C12 UNL     1      22.621  -1.581  55.164  1.00  0.00     0.029 A 
HETATM   17  C13 UNL     1      23.653  -0.896  54.521  1.00  0.00     0.027 A 
HETATM   18  C14 UNL     1      23.352  -0.144  53.389  1.00  0.00     0.058 A 
BRANCH  17  19
HETATM   19  N4  UNL     1      24.979  -0.985  55.030  1.00  0.00    -0.399 N 
HETATM   20  H12 UNL     1      25.545  -1.833  54.835  1.00  0.00     0.156 HD
HETATM   21  H13 UNL     1      25.356  -0.192  55.593  1.00  0.00     0.156 HD
ENDBRANCH  17  19
ENDBRANCH  11  13
ENDBRANCH   7  11
BRANCH   1  22
HETATM   22  N1  UNL     1      27.047   2.655  52.149  1.00  0.00    -0.274 N 
HETATM   23  H4  UNL     1      27.711   3.088  51.459  1.00  0.00     0.179 HD
BRANCH  22  24
HETATM   24  S1  UNL     1      27.516   1.843  53.601  1.00  0.00     0.252 S 
HETATM   25  O1  UNL     1      26.454   1.791  54.630  1.00  0.00    -0.201 OA
HETATM   26  O2  UNL     1      28.741   2.581  54.124  1.00  0.00    -0.201 OA
BRANCH  24  27
HETATM   27  C2  UNL     1      28.046   0.210  53.159  1.00  0.00     0.121 C 
HETATM   28  C1  UNL     1      27.159  -0.439  52.439  1.00  0.00     0.025 C 
ENDBRANCH  24  27
ENDBRANCH  22  24
ENDBRANCH   1  22
TORSDOF 6
ENDMDL
MODEL 2
REMARK VINA RESULT:      -7.7      2.939      5.425
REMARK  6 active torsions:
REMARK  status: ('A' for Active; 'I' for Inactive)
REMARK    1  A    between atoms: C2_2  and  S1_3 
REMARK    2  A    between atoms: S1_3  and  N1_6 
REMARK    3  A    between atoms: N1_6  and  C3_7 
REMARK    4  A    between atoms: C8_13  and  N3_14 
REMARK    5  A    between atoms: N3_14  and  C9_15 
REMARK    6  A    between atoms: C13_19  and  N4_20 
ROOT
HETATM    1  C3  UNL     1      22.277   1.327  51.920  1.00  0.00     0.100 C 
HETATM    2  C4  UNL     1      23.566   1.429  51.818  1.00  0.00     0.039 C 
HETATM    3  C5  UNL     1      24.276   2.700  51.579  1.00  0.00     0.092 A 
HETATM    4  C6  UNL     1      24.315   3.034  50.107  1.00  0.00     0.115 A 
HETATM    5  N2  UNL     1      25.534   3.131  49.686  1.00  0.00    -0.273 NA
HETATM    6  C7  UNL     1      26.442   2.890  50.763  1.00  0.00     0.142 A 
HETATM    7  C8  UNL     1      25.716   2.639  51.868  1.00  0.00     0.050 A 
HETATM    8  C15 UNL     1      23.714   3.869  52.281  1.00  0.00     0.124 C 
HETATM    9  N5  UNL     1      22.465   4.086  52.437  1.00  0.00    -0.224 NA
HETATM   10  S2  UNL     1      21.365   2.880  51.751  1.00  0.00     0.029 SA
ENDROOT
BRANCH   7  11
HETATM   11  N3  UNL     1      26.319   2.368  53.125  1.00  0.00    -0.357 N 
HETATM   12  H8  UNL     1      26.074   2.794  54.024  1.00  0.00     0.166 HD
BRANCH  11  13
HETATM   13  C9  UNL     1      27.379   1.422  53.264  1.00  0.00     0.034 A 
HETATM   14  C10 UNL     1      28.701   1.586  53.591  1.00  0.00     0.029 A 
HETATM   15  C11 UNL     1      29.539   0.497  53.682  1.00  0.00     0.004 A 
HETATM   16  C12 UNL     1      29.084  -0.789  53.446  1.00  0.00     0.029 A 
HETATM   17  C13 UNL     1      27.744  -0.985  53.112  1.00  0.00     0.027 A 
HETATM   18  C14 UNL     1      26.907   0.124  53.024  1.00  0.00     0.058 A 
BRANCH  17  19
HETATM   19  N4  UNL     1      27.265  -2.304  52.875  1.00  0.00    -0.399 N 
HETATM   20  H12 UNL     1      26.299  -2.556  53.161  1.00  0.00     0.156 HD
HETATM   21  H13 UNL     1      27.899  -2.995  52.417  1.00  0.00     0.156 HD
ENDBRANCH  17  19
ENDBRANCH  11  13
ENDBRANCH   7  11
BRANCH   1  22
HETATM   22  N1  UNL     1      21.491   0.171  52.148  1.00  0.00    -0.274 N 
HETATM   23  H4  UNL     1      21.512  -0.310  51.214  1.00  0.00     0.179 HD
BRANCH  22  24
HETATM   24  S1  UNL     1      20.658  -0.413  53.546  1.00  0.00     0.252 S 
HETATM   25  O1  UNL     1      19.281  -0.878  53.275  1.00  0.00    -0.201 OA
HETATM   26  O2  UNL     1      20.656   0.733  54.548  1.00  0.00    -0.201 OA
BRANCH  24  27
HETATM   27  C2  UNL     1      21.635  -1.713  54.251  1.00  0.00     0.121 C 
HETATM   28  C1  UNL     1      22.609  -1.268  55.013  1.00  0.00     0.025 C 
ENDBRANCH  24  27
ENDBRANCH  22  24
ENDBRANCH   1  22
TORSDOF 6
ENDMDL
MODEL 3
REMARK VINA RESULT:      -7.7      1.236      1.904
REMARK  6 active torsions:
REMARK  status: ('A' for Active; 'I' for Inactive)
REMARK    1  A    between atoms: C2_2  and  S1_3 
REMARK    2  A    between atoms: S1_3  and  N1_6 
REMARK    3  A    between atoms: N1_6  and  C3_7 
REMARK    4  A    between atoms: C8_13  and  N3_14 
REMARK    5  A    between atoms: N3_14  and  C9_15 
REMARK    6  A    between atoms: C13_19  and  N4_20 
ROOT
HETATM    1  C3  UNL     1      26.091   2.467  51.586  1.00  0.00     0.100 C 
HETATM    2  C4  UNL     1      24.851   2.415  51.962  1.00  0.00     0.039 C 
HETATM    3  C5  UNL     1      23.756   3.145  51.296  1.00  0.00     0.092 A 
HETATM    4  C6  UNL     1      23.660   4.565  51.801  1.00  0.00     0.115 A 
HETATM    5  N2  UNL     1      22.500   4.793  52.324  1.00  0.00    -0.273 NA
HETATM    6  C7  UNL     1      21.690   3.618  52.246  1.00  0.00     0.142 A 
HETATM    7  C8  UNL     1      22.415   2.655  51.648  1.00  0.00     0.050 A 
HETATM    8  C15 UNL     1      23.853   3.207  49.826  1.00  0.00     0.124 C 
HETATM    9  N5  UNL     1      24.943   3.365  49.180  1.00  0.00    -0.224 NA
HETATM   10  S2  UNL     1      26.417   3.516  50.150  1.00  0.00     0.029 SA
ENDROOT
BRANCH   7  11
HETATM   11  N3  UNL     1      21.895   1.357  51.404  1.00  0.00    -0.357 N 
HETATM   12  H8  UNL     1      21.565   0.989  50.507  1.00  0.00     0.166 HD
BRANCH  11  13
HETATM   13  C9  UNL     1      21.781   0.384  52.444  1.00  0.00     0.034 A 
HETATM   14  C10 UNL     1      22.730  -0.207  53.238  1.00  0.00     0.029 A 
HETATM   15  C11 UNL     1      22.365  -1.122  54.201  1.00  0.00     0.004 A 
HETATM   16  C12 UNL     1      21.041  -1.475  54.400  1.00  0.00     0.029 A 
HETATM   17  C13 UNL     1      20.055  -0.888  53.607  1.00  0.00     0.027 A 
HETATM   18  C14 UNL     1      20.437   0.035  52.637  1.00  0.00     0.058 A 
BRANCH  17  19
HETATM   19  N4  UNL     1      18.690  -1.240  53.808  1.00  0.00    -0.399 N 
HETATM   20  H12 UNL     1      17.946  -0.687  53.340  1.00  0.00     0.156 HD
HETATM   21  H13 UNL     1      18.465  -2.049  54.426  1.00  0.00     0.156 HD
ENDBRANCH  17  19
ENDBRANCH  11  13
ENDBRANCH   7  11
BRANCH   1  22
HETATM   22  N1  UNL     1      27.218   1.815  52.144  1.00  0.00    -0.274 N 
HETATM   23  H4  UNL     1      27.758   1.518  51.292  1.00  0.00     0.179 HD
BRANCH  22  24
HETATM   24  S1  UNL     1      27.700   1.517  53.777  1.00  0.00     0.252 S 
HETATM   25  O1  UNL     1      26.581   1.533  54.745  1.00  0.00    -0.201 OA
HETATM   26  O2  UNL     1      28.727   2.587  54.119  1.00  0.00    -0.201 OA
BRANCH  24  27
HETATM   27  C2  UNL     1      28.544  -0.041  53.815  1.00  0.00     0.121 C 
HETATM   28  C1  UNL     1      29.818   0.059  53.511  1.00  0.00     0.025 C 
ENDBRANCH  24  27
ENDBRANCH  22  24
ENDBRANCH   1  22
TORSDOF 6
ENDMDL
MODEL 4
REMARK VINA RESULT:      -7.4      3.049      5.197
REMARK  6 active torsions:
REMARK  status: ('A' for Active; 'I' for Inactive)
REMARK    1  A    between atoms: C2_2  and  S1_3 
REMARK    2  A    between atoms: S1_3  and  N1_6 
REMARK    3  A    between atoms: N1_6  and  C3_7 
REMARK    4  A    between atoms: C8_13  and  N3_14 
REMARK    5  A    between atoms: N3_14  and  C9_15 
REMARK    6  A    between atoms: C13_19  and  N4_20 
ROOT
HETATM    1  C3  UNL     1      21.725   1.634  51.810  1.00  0.00     0.100 C 
HETATM    2  C4  UNL     1      23.002   1.707  51.591  1.00  0.00     0.039 C 
HETATM    3  C5  UNL     1      23.721   2.968  51.326  1.00  0.00     0.092 A 
HETATM    4  C6  UNL     1      23.633   3.350  49.867  1.00  0.00     0.115 A 
HETATM    5  N2  UNL     1      24.809   3.431  49.338  1.00  0.00    -0.273 NA
HETATM    6  C7  UNL     1      25.807   3.131  50.317  1.00  0.00     0.142 A 
HETATM    7  C8  UNL     1      25.180   2.861  51.476  1.00  0.00     0.050 A 
HETATM    8  C15 UNL     1      23.260   4.126  52.113  1.00  0.00     0.124 C 
HETATM    9  N5  UNL     1      22.038   4.368  52.393  1.00  0.00    -0.224 NA
HETATM   10  S2  UNL     1      20.846   3.213  51.775  1.00  0.00     0.029 SA
ENDROOT
BRANCH   7  11
HETATM   11  N3  UNL     1      25.889   2.534  52.662  1.00  0.00    -0.357 N 
HETATM   12  H8  UNL     1      26.004   3.127  53.489  1.00  0.00     0.166 HD
BRANCH  11  13
HETATM   13  C9  UNL     1      26.542   1.274  52.826  1.00  0.00     0.034 A 
HETATM   14  C10 UNL     1      26.067  -0.009  52.734  1.00  0.00     0.029 A 
HETATM   15  C11 UNL     1      26.911  -1.082  52.920  1.00  0.00     0.004 A 
HETATM   16  C12 UNL     1      28.254  -0.906  53.204  1.00  0.00     0.029 A 
HETATM   17  C13 UNL     1      28.764   0.389  53.302  1.00  0.00     0.027 A 
HETATM   18  C14 UNL     1      27.900   1.464  53.112  1.00  0.00     0.058 A 
BRANCH  17  19
HETATM   19  N4  UNL     1      30.146   0.580  53.587  1.00  0.00    -0.399 N 
HETATM   20  H12 UNL     1      30.858   0.070  53.030  1.00  0.00     0.156 HD
HETATM   21  H13 UNL     1      30.415   1.233  54.355  1.00  0.00     0.156 HD
ENDBRANCH  17  19
ENDBRANCH  11  13
ENDBRANCH   7  11
BRANCH   1  22
HETATM   22  N1  UNL     1      20.932   0.491  52.074  1.00  0.00    -0.274 N 
HETATM   23  H4  UNL     1      20.554   0.247  51.123  1.00  0.00     0.179 HD
BRANCH  22  24
HETATM   24  S1  UNL     1      20.590  -0.377  53.529  1.00  0.00     0.252 S 
HETATM   25  O1  UNL     1      19.312  -1.122  53.499  1.00  0.00    -0.201 OA
HETATM   26  O2  UNL     1      20.588   0.655  54.648  1.00  0.00    -0.201 OA
BRANCH  24  27
HETATM   27  C2  UNL     1      21.950  -1.471  53.837  1.00  0.00     0.121 C 
HETATM   28  C1  UNL     1      22.559  -1.225  54.975  1.00  0.00     0.025 C 
ENDBRANCH  24  27
ENDBRANCH  22  24
ENDBRANCH   1  22
TORSDOF 6
ENDMDL
MODEL 5
REMARK VINA RESULT:      -7.1      2.475      5.500
REMARK  6 active torsions:
REMARK  status: ('A' for Active; 'I' for Inactive)
REMARK    1  A    between atoms: C2_2  and  S1_3 
REMARK    2  A    between atoms: S1_3  and  N1_6 
REMARK    3  A    between atoms: N1_6  and  C3_7 
REMARK    4  A    between atoms: C8_13  and  N3_14 
REMARK    5  A    between atoms: N3_14  and  C9_15 
REMARK    6  A    between atoms: C13_19  and  N4_20 
ROOT
HETATM    1  C3  UNL     1      23.324   0.423  53.045  1.00  0.00     0.100 C 
HETATM    2  C4  UNL     1      23.397   1.064  51.920  1.00  0.00     0.039 C 
HETATM    3  C5  UNL     1      22.229   1.615  51.207  1.00  0.00     0.092 A 
HETATM    4  C6  UNL     1      21.562   0.560  50.355  1.00  0.00     0.115 A 
HETATM    5  N2  UNL     1      21.554   0.908  49.110  1.00  0.00    -0.273 NA
HETATM    6  C7  UNL     1      22.180   2.184  48.955  1.00  0.00     0.142 A 
HETATM    7  C8  UNL     1      22.575   2.600  50.172  1.00  0.00     0.050 A 
HETATM    8  C15 UNL     1      21.190   2.201  52.074  1.00  0.00     0.124 C 
HETATM    9  N5  UNL     1      20.831   1.716  53.199  1.00  0.00    -0.224 NA
HETATM   10  S2  UNL     1      21.657   0.238  53.719  1.00  0.00     0.029 SA
ENDROOT
BRANCH   7  11
HETATM   11  N3  UNL     1      23.226   3.846  50.372  1.00  0.00    -0.357 N 
HETATM   12  H8  UNL     1      22.839   4.670  50.842  1.00  0.00     0.166 HD
BRANCH  11  13
HETATM   13  C9  UNL     1      24.558   4.082  49.914  1.00  0.00     0.034 A 
HETATM   14  C10 UNL     1      25.668   3.277  49.907  1.00  0.00     0.029 A 
HETATM   15  C11 UNL     1      26.859   3.731  49.386  1.00  0.00     0.004 A 
HETATM   16  C12 UNL     1      26.978   5.004  48.855  1.00  0.00     0.029 A 
HETATM   17  C13 UNL     1      25.864   5.844  48.848  1.00  0.00     0.027 A 
HETATM   18  C14 UNL     1      24.667   5.372  49.378  1.00  0.00     0.058 A 
BRANCH  17  19
HETATM   19  N4  UNL     1      25.975   7.153  48.298  1.00  0.00    -0.399 N 
HETATM   20  H12 UNL     1      26.586   7.852  48.762  1.00  0.00     0.156 HD
HETATM   21  H13 UNL     1      25.433   7.384  47.437  1.00  0.00     0.156 HD
ENDBRANCH  17  19
ENDBRANCH  11  13
ENDBRANCH   7  11
BRANCH   1  22
HETATM   22  N1  UNL     1      24.368  -0.145  53.815  1.00  0.00    -0.274 N 
HETATM   23  H4  UNL     1      23.924  -1.018  54.198  1.00  0.00     0.179 HD
BRANCH  22  24
HETATM   24  S1  UNL     1      25.992   0.360  54.126  1.00  0.00     0.252 S 
HETATM   25  O1  UNL     1      26.590  -0.249  55.334  1.00  0.00    -0.201 OA
HETATM   26  O2  UNL     1      25.948   1.877  54.249  1.00  0.00    -0.201 OA
BRANCH  24  27
HETATM   27  C2  UNL     1      26.958  -0.014  52.688  1.00  0.00     0.121 C 
HETATM   28  C1  UNL     1      26.803  -1.251  52.274  1.00  0.00     0.025 C 
ENDBRANCH  24  27
ENDBRANCH  22  24
ENDBRANCH   1  22
TORSDOF 6
ENDMDL
MODEL 6
REMARK VINA RESULT:      -7.1      2.450      5.300
REMARK  6 active torsions:
REMARK  status: ('A' for Active; 'I' for Inactive)
REMARK    1  A    between atoms: C2_2  and  S1_3 
REMARK    2  A    between atoms: S1_3  and  N1_6 
REMARK    3  A    between atoms: N1_6  and  C3_7 
REMARK    4  A    between atoms: C8_13  and  N3_14 
REMARK    5  A    between atoms: N3_14  and  C9_15 
REMARK    6  A    between atoms: C13_19  and  N4_20 
ROOT
HETATM    1  C3  UNL     1      23.580  -0.370  53.256  1.00  0.00     0.100 C 
HETATM    2  C4  UNL     1      23.099   0.549  52.478  1.00  0.00     0.039 C 
HETATM    3  C5  UNL     1      21.681   0.957  52.461  1.00  0.00     0.092 A 
HETATM    4  C6  UNL     1      20.861   0.041  51.583  1.00  0.00     0.115 A 
HETATM    5  N2  UNL     1      20.295   0.701  50.627  1.00  0.00    -0.273 NA
HETATM    6  C7  UNL     1      20.635   2.086  50.721  1.00  0.00     0.142 A 
HETATM    7  C8  UNL     1      21.441   2.242  51.787  1.00  0.00     0.050 A 
HETATM    8  C15 UNL     1      21.030   1.000  53.783  1.00  0.00     0.124 C 
HETATM    9  N5  UNL     1      21.232   0.152  54.715  1.00  0.00    -0.224 NA
HETATM   10  S2  UNL     1      22.378  -1.150  54.359  1.00  0.00     0.029 SA
ENDROOT
BRANCH   7  11
HETATM   11  N3  UNL     1      21.954   3.509  52.170  1.00  0.00    -0.357 N 
HETATM   12  H8  UNL     1      21.627   4.091  52.947  1.00  0.00     0.166 HD
BRANCH  11  13
HETATM   13  C9  UNL     1      23.037   4.126  51.473  1.00  0.00     0.034 A 
HETATM   14  C10 UNL     1      23.938   3.620  50.571  1.00  0.00     0.029 A 
HETATM   15  C11 UNL     1      24.899   4.432  50.011  1.00  0.00     0.004 A 
HETATM   16  C12 UNL     1      24.990   5.774  50.335  1.00  0.00     0.029 A 
HETATM   17  C13 UNL     1      24.086   6.316  51.248  1.00  0.00     0.027 A 
HETATM   18  C14 UNL     1      23.119   5.484  51.807  1.00  0.00     0.058 A 
BRANCH  17  19
HETATM   19  N4  UNL     1      24.168   7.698  51.583  1.00  0.00    -0.399 N 
HETATM   20  H12 UNL     1      23.628   8.390  51.029  1.00  0.00     0.156 HD
HETATM   21  H13 UNL     1      24.773   7.987  52.381  1.00  0.00     0.156 HD
ENDBRANCH  17  19
ENDBRANCH  11  13
ENDBRANCH   7  11
BRANCH   1  22
HETATM   22  N1  UNL     1      24.911  -0.842  53.361  1.00  0.00    -0.274 N 
HETATM   23  H4  UNL     1      24.903  -1.694  52.746  1.00  0.00     0.179 HD
BRANCH  22  24
HETATM   24  S1  UNL     1      26.285  -0.261  54.234  1.00  0.00     0.252 S 
HETATM   25  O1  UNL     1      27.562  -0.893  53.835  1.00  0.00    -0.201 OA
HETATM   26  O2  UNL     1      25.991  -0.516  55.706  1.00  0.00    -0.201 OA
BRANCH  24  27
HETATM   27  C2  UNL     1      26.358   1.497  54.019  1.00  0.00     0.121 C 
HETATM   28  C1  UNL     1      26.556   1.853  52.770  1.00  0.00     0.025 C 
ENDBRANCH  24  27
ENDBRANCH  22  24
ENDBRANCH   1  22
TORSDOF 6
ENDMDL
MODEL 7
REMARK VINA RESULT:      -6.9      3.098      5.229
REMARK  6 active torsions:
REMARK  status: ('A' for Active; 'I' for Inactive)
REMARK    1  A    between atoms: C2_2  and  S1_3 
REMARK    2  A    between atoms: S1_3  and  N1_6 
REMARK    3  A    between atoms: N1_6  and  C3_7 
REMARK    4  A    between atoms: C8_13  and  N3_14 
REMARK    5  A    between atoms: N3_14  and  C9_15 
REMARK    6  A    between atoms: C13_19  and  N4_20 
ROOT
HETATM    1  C3  UNL     1      23.332   3.856  51.970  1.00  0.00     0.100 C 
HETATM    2  C4  UNL     1      23.989   2.845  52.449  1.00  0.00     0.039 C 
HETATM    3  C5  UNL     1      23.571   1.439  52.289  1.00  0.00     0.092 A 
HETATM    4  C6  UNL     1      22.560   1.048  53.341  1.00  0.00     0.115 A 
HETATM    5  N2  UNL     1      22.994   0.063  54.057  1.00  0.00    -0.273 NA
HETATM    6  C7  UNL     1      24.294  -0.330  53.609  1.00  0.00     0.142 A 
HETATM    7  C8  UNL     1      24.635   0.467  52.580  1.00  0.00     0.050 A 
HETATM    8  C15 UNL     1      22.990   1.109  50.975  1.00  0.00     0.124 C 
HETATM    9  N5  UNL     1      22.212   1.876  50.315  1.00  0.00    -0.224 NA
HETATM   10  S2  UNL     1      21.826   3.435  51.062  1.00  0.00     0.029 SA
ENDROOT
BRANCH   7  11
HETATM   11  N3  UNL     1      25.871   0.332  51.895  1.00  0.00    -0.357 N 
HETATM   12  H8  UNL     1      26.026   0.438  50.888  1.00  0.00     0.166 HD
BRANCH  11  13
HETATM   13  C9  UNL     1      27.084   0.021  52.583  1.00  0.00     0.034 A 
HETATM   14  C10 UNL     1      27.724  -1.173  52.793  1.00  0.00     0.029 A 
HETATM   15  C11 UNL     1      28.914  -1.216  53.485  1.00  0.00     0.004 A 
HETATM   16  C12 UNL     1      29.501  -0.068  53.989  1.00  0.00     0.029 A 
HETATM   17  C13 UNL     1      28.872   1.161  53.789  1.00  0.00     0.027 A 
HETATM   18  C14 UNL     1      27.669   1.190  53.087  1.00  0.00     0.058 A 
BRANCH  17  19
HETATM   19  N4  UNL     1      29.470   2.348  54.297  1.00  0.00    -0.399 N 
HETATM   20  H12 UNL     1      28.957   2.922  54.993  1.00  0.00     0.156 HD
HETATM   21  H13 UNL     1      30.418   2.619  53.956  1.00  0.00     0.156 HD
ENDBRANCH  17  19
ENDBRANCH  11  13
ENDBRANCH   7  11
BRANCH   1  22
HETATM   22  N1  UNL     1      23.634   5.237  52.059  1.00  0.00    -0.274 N 
HETATM   23  H4  UNL     1      23.531   5.430  53.088  1.00  0.00     0.179 HD
BRANCH  22  24
HETATM   24  S1  UNL     1      24.071   6.411  50.868  1.00  0.00     0.252 S 
HETATM   25  O1  UNL     1      24.276   7.771  51.412  1.00  0.00    -0.201 OA
HETATM   26  O2  UNL     1      22.954   6.403  49.834  1.00  0.00    -0.201 OA
BRANCH  24  27
HETATM   27  C2  UNL     1      25.535   5.833  50.052  1.00  0.00     0.121 C 
HETATM   28  C1  UNL     1      25.281   4.969  49.095  1.00  0.00     0.025 C 
ENDBRANCH  24  27
ENDBRANCH  22  24
ENDBRANCH   1  22
TORSDOF 6
ENDMDL
MODEL 8
REMARK VINA RESULT:      -6.7      1.935      2.794
REMARK  6 active torsions:
REMARK  status: ('A' for Active; 'I' for Inactive)
REMARK    1  A    between atoms: C2_2  and  S1_3 
REMARK    2  A    between atoms: S1_3  and  N1_6 
REMARK    3  A    between atoms: N1_6  and  C3_7 
REMARK    4  A    between atoms: C8_13  and  N3_14 
REMARK    5  A    between atoms: N3_14  and  C9_15 
REMARK    6  A    between atoms: C13_19  and  N4_20 
ROOT
HETATM    1  C3  UNL     1      25.676   2.827  51.686  1.00  0.00     0.100 C 
HETATM    2  C4  UNL     1      24.455   2.666  52.092  1.00  0.00     0.039 C 
HETATM    3  C5  UNL     1      23.271   3.143  51.353  1.00  0.00     0.092 A 
HETATM    4  C6  UNL     1      22.987   4.596  51.656  1.00  0.00     0.115 A 
HETATM    5  N2  UNL     1      21.808   4.740  52.167  1.00  0.00    -0.273 NA
HETATM    6  C7  UNL     1      21.162   3.470  52.272  1.00  0.00     0.142 A 
HETATM    7  C8  UNL     1      22.008   2.536  51.800  1.00  0.00     0.050 A 
HETATM    8  C15 UNL     1      23.355   3.008  49.887  1.00  0.00     0.124 C 
HETATM    9  N5  UNL     1      24.413   3.214  49.203  1.00  0.00    -0.224 NA
HETATM   10  S2  UNL     1      25.856   3.695  50.110  1.00  0.00     0.029 SA
ENDROOT
BRANCH   7  11
HETATM   11  N3  UNL     1      21.666   1.159  51.752  1.00  0.00    -0.357 N 
HETATM   12  H8  UNL     1      22.307   0.366  51.850  1.00  0.00     0.166 HD
BRANCH  11  13
HETATM   13  C9  UNL     1      20.320   0.723  51.556  1.00  0.00     0.034 A 
HETATM   14  C10 UNL     1      19.454   0.905  50.508  1.00  0.00     0.029 A 
HETATM   15  C11 UNL     1      18.189   0.363  50.544  1.00  0.00     0.004 A 
HETATM   16  C12 UNL     1      17.749  -0.377  51.628  1.00  0.00     0.029 A 
HETATM   17  C13 UNL     1      18.609  -0.579  52.707  1.00  0.00     0.027 A 
HETATM   18  C14 UNL     1      19.886  -0.025  52.658  1.00  0.00     0.058 A 
BRANCH  17  19
HETATM   19  N4  UNL     1      18.168  -1.344  53.824  1.00  0.00    -0.399 N 
HETATM   20  H12 UNL     1      18.803  -1.476  54.635  1.00  0.00     0.156 HD
HETATM   21  H13 UNL     1      17.212  -1.760  53.803  1.00  0.00     0.156 HD
ENDBRANCH  17  19
ENDBRANCH  11  13
ENDBRANCH   7  11
BRANCH   1  22
HETATM   22  N1  UNL     1      26.882   2.416  52.305  1.00  0.00    -0.274 N 
HETATM   23  H4  UNL     1      27.562   3.158  52.004  1.00  0.00     0.179 HD
BRANCH  22  24
HETATM   24  S1  UNL     1      27.269   1.067  53.315  1.00  0.00     0.252 S 
HETATM   25  O1  UNL     1      26.824   1.219  54.718  1.00  0.00    -0.201 OA
HETATM   26  O2  UNL     1      28.781   0.901  53.242  1.00  0.00    -0.201 OA
BRANCH  24  27
HETATM   27  C2  UNL     1      26.554  -0.379  52.581  1.00  0.00     0.121 C 
HETATM   28  C1  UNL     1      27.227  -1.476  52.847  1.00  0.00     0.025 C 
ENDBRANCH  24  27
ENDBRANCH  22  24
ENDBRANCH   1  22
TORSDOF 6
ENDMDL
MODEL 9
REMARK VINA RESULT:      -6.5      3.540      5.204
REMARK  6 active torsions:
REMARK  status: ('A' for Active; 'I' for Inactive)
REMARK    1  A    between atoms: C2_2  and  S1_3 
REMARK    2  A    between atoms: S1_3  and  N1_6 
REMARK    3  A    between atoms: N1_6  and  C3_7 
REMARK    4  A    between atoms: C8_13  and  N3_14 
REMARK    5  A    between atoms: N3_14  and  C9_15 
REMARK    6  A    between atoms: C13_19  and  N4_20 
ROOT
HETATM    1  C3  UNL     1      21.599   4.371  50.342  1.00  0.00     0.100 C 
HETATM    2  C4  UNL     1      22.689   3.736  50.646  1.00  0.00     0.039 C 
HETATM    3  C5  UNL     1      24.028   4.355  50.654  1.00  0.00     0.092 A 
HETATM    4  C6  UNL     1      24.634   4.362  49.270  1.00  0.00     0.115 A 
HETATM    5  N2  UNL     1      25.749   3.708  49.250  1.00  0.00    -0.273 NA
HETATM    6  C7  UNL     1      26.038   3.195  50.552  1.00  0.00     0.142 A 
HETATM    7  C8  UNL     1      25.041   3.568  51.374  1.00  0.00     0.050 A 
HETATM    8  C15 UNL     1      24.071   5.738  51.161  1.00  0.00     0.124 C 
HETATM    9  N5  UNL     1      23.181   6.622  50.926  1.00  0.00    -0.224 NA
HETATM   10  S2  UNL     1      21.816   6.115  49.918  1.00  0.00     0.029 SA
ENDROOT
BRANCH   7  11
HETATM   11  N3  UNL     1      25.028   3.228  52.752  1.00  0.00    -0.357 N 
HETATM   12  H8  UNL     1      25.089   3.876  53.543  1.00  0.00     0.166 HD
BRANCH  11  13
HETATM   13  C9  UNL     1      24.919   1.873  53.193  1.00  0.00     0.034 A 
HETATM   14  C10 UNL     1      23.907   0.958  53.060  1.00  0.00     0.029 A 
HETATM   15  C11 UNL     1      24.046  -0.317  53.563  1.00  0.00     0.004 A 
HETATM   16  C12 UNL     1      25.200  -0.715  54.217  1.00  0.00     0.029 A 
HETATM   17  C13 UNL     1      26.245   0.196  54.366  1.00  0.00     0.027 A 
HETATM   18  C14 UNL     1      26.092   1.481  53.852  1.00  0.00     0.058 A 
BRANCH  17  19
HETATM   19  N4  UNL     1      27.438  -0.206  55.030  1.00  0.00    -0.399 N 
HETATM   20  H12 UNL     1      27.899   0.448  55.692  1.00  0.00     0.156 HD
HETATM   21  H13 UNL     1      27.828  -1.154  54.836  1.00  0.00     0.156 HD
ENDBRANCH  17  19
ENDBRANCH  11  13
ENDBRANCH   7  11
BRANCH   1  22
HETATM   22  N1  UNL     1      20.269   3.886  50.300  1.00  0.00    -0.274 N 
HETATM   23  H4  UNL     1      19.898   4.303  49.410  1.00  0.00     0.179 HD
BRANCH  22  24
HETATM   24  S1  UNL     1      19.368   2.868  51.369  1.00  0.00     0.252 S 
HETATM   25  O1  UNL     1      17.912   3.130  51.364  1.00  0.00    -0.201 OA
HETATM   26  O2  UNL     1      19.954   3.085  52.757  1.00  0.00    -0.201 OA
BRANCH  24  27
HETATM   27  C2  UNL     1      19.706   1.185  50.923  1.00  0.00     0.121 C 
HETATM   28  C1  UNL     1      19.872   0.403  51.966  1.00  0.00     0.025 C 
ENDBRANCH  24  27
ENDBRANCH  22  24
ENDBRANCH   1  22
TORSDOF 6
ENDMDL
