MODEL 1
REMARK VINA RESULT:     -10.0      0.000      0.000
REMARK  3 active torsions:
REMARK  status: ('A' for Active; 'I' for Inactive)
REMARK    1  A    between atoms: C8_8  and  O1_9 
REMARK    2  A    between atoms: C14_18  and  C15_19 
REMARK    3  A    between atoms: C23_29  and  O2_30 
ROOT
HETATM    1  C1  UNL     1      22.626   4.639  48.246  1.00  0.00     0.041 C 
HETATM    2  C2  UNL     1      22.810   3.769  49.220  1.00  0.00    -0.046 C 
HETATM    3  C3  UNL     1      21.461   3.185  49.539  1.00  0.00     0.037 C 
HETATM    4  C4  UNL     1      20.974   3.510  50.906  1.00  0.00     0.005 C 
HETATM    5  C5  UNL     1      19.586   2.962  51.107  1.00  0.00     0.004 C 
HETATM    6  C6  UNL     1      19.607   1.473  50.851  1.00  0.00     0.030 C 
HETATM    7  C7  UNL     1      18.333   0.821  51.173  1.00  0.00     0.010 C 
HETATM    8  C8  UNL     1      17.494   0.018  51.760  1.00  0.00     0.065 C 
HETATM    9  C10 UNL     1      18.072  -0.873  52.811  1.00  0.00     0.055 C 
HETATM   10  C11 UNL     1      19.192  -1.247  53.484  1.00  0.00     0.112 C 
HETATM   11  N1  UNL     1      20.343  -1.686  54.230  1.00  0.00    -0.288 N 
HETATM   12  N2  UNL     1      21.663  -1.395  53.753  1.00  0.00    -0.171 NA
HETATM   13  C12 UNL     1      21.847  -0.083  53.627  1.00  0.00     0.225 C 
HETATM   14  N3  UNL     1      23.118   0.244  53.165  1.00  0.00    -0.372 N 
HETATM   15  C13 UNL     1      23.957   1.023  52.428  1.00  0.00     0.145 C 
HETATM   16  C14 UNL     1      24.587   1.822  51.658  1.00  0.00     0.005 C 
HETATM   17  C22 UNL     1      24.575   2.784  50.613  1.00  0.00     0.049 C 
HETATM   18  C23 UNL     1      24.176   3.565  49.694  1.00  0.00     0.071 C 
HETATM   19  H17 UNL     1      19.477  -1.968  54.701  1.00  0.00     0.188 HD
HETATM   20  H19 UNL     1      23.970  -0.251  53.415  1.00  0.00     0.161 HD
ENDROOT
BRANCH  16  21
HETATM   21  C15 UNL     1      25.898   1.353  52.224  1.00  0.00     0.107 A 
HETATM   22  N4  UNL     1      26.265   0.217  52.262  1.00  0.00    -0.240 NA
HETATM   23  C16 UNL     1      27.349  -0.311  52.719  1.00  0.00     0.075 A 
HETATM   24  C17 UNL     1      27.717  -1.666  52.728  1.00  0.00     0.033 A 
HETATM   25  C21 UNL     1      28.260   0.547  53.265  1.00  0.00     0.035 A 
HETATM   26  C18 UNL     1      28.910  -1.996  53.260  1.00  0.00     0.002 A 
HETATM   27  C19 UNL     1      29.842  -1.154  53.814  1.00  0.00     0.002 A 
HETATM   28  C20 UNL     1      29.488   0.172  53.811  1.00  0.00     0.021 A 
HETATM   29  S1  UNL     1      27.359   2.054  53.016  1.00  0.00    -0.068 SA
ENDBRANCH  16  21
BRANCH  18  30
HETATM   30  O2  UNL     1      25.029   4.402  48.949  1.00  0.00    -0.356 OA
HETATM   31  C24 UNL     1      26.404   4.531  49.294  1.00  0.00     0.210 C 
ENDBRANCH  18  30
BRANCH   8  32
HETATM   32  O1  UNL     1      16.166  -0.382  51.813  1.00  0.00    -0.356 OA
HETATM   33  C9  UNL     1      15.359   0.353  52.750  1.00  0.00     0.210 C 
ENDBRANCH   8  32
TORSDOF 3
ENDMDL
MODEL 2
REMARK VINA RESULT:      -9.5      2.772      5.470
REMARK  3 active torsions:
REMARK  status: ('A' for Active; 'I' for Inactive)
REMARK    1  A    between atoms: C8_8  and  O1_9 
REMARK    2  A    between atoms: C14_18  and  C15_19 
REMARK    3  A    between atoms: C23_29  and  O2_30 
ROOT
HETATM    1  C1  UNL     1      19.652  -0.543  53.448  1.00  0.00     0.041 C 
HETATM    2  C2  UNL     1      20.673   0.092  52.904  1.00  0.00    -0.046 C 
HETATM    3  C3  UNL     1      20.095   1.115  51.965  1.00  0.00     0.037 C 
HETATM    4  C4  UNL     1      20.426   0.872  50.536  1.00  0.00     0.005 C 
HETATM    5  C5  UNL     1      19.739   1.888  49.663  1.00  0.00     0.004 C 
HETATM    6  C6  UNL     1      20.146   3.272  50.112  1.00  0.00     0.030 C 
HETATM    7  C7  UNL     1      19.650   4.329  49.224  1.00  0.00     0.010 C 
HETATM    8  C8  UNL     1      19.679   5.332  48.395  1.00  0.00     0.065 C 
HETATM    9  C10 UNL     1      21.037   5.826  48.019  1.00  0.00     0.055 C 
HETATM   10  C11 UNL     1      22.378   5.675  48.177  1.00  0.00     0.112 C 
HETATM   11  N1  UNL     1      23.809   5.565  48.305  1.00  0.00    -0.288 N 
HETATM   12  N2  UNL     1      24.379   4.836  49.400  1.00  0.00    -0.171 NA
HETATM   13  C12 UNL     1      23.961   3.573  49.403  1.00  0.00     0.225 C 
HETATM   14  N3  UNL     1      24.490   2.829  50.453  1.00  0.00    -0.372 N 
HETATM   15  C13 UNL     1      24.383   1.862  51.406  1.00  0.00     0.145 C 
HETATM   16  C14 UNL     1      24.097   0.962  52.262  1.00  0.00     0.005 C 
HETATM   17  C22 UNL     1      23.126   0.183  52.948  1.00  0.00     0.049 C 
HETATM   18  C23 UNL     1      22.014  -0.292  53.337  1.00  0.00     0.071 C 
HETATM   19  H17 UNL     1      23.561   6.110  47.473  1.00  0.00     0.188 HD
HETATM   20  H19 UNL     1      25.434   2.932  50.817  1.00  0.00     0.161 HD
ENDROOT
BRANCH  16  21
HETATM   21  C15 UNL     1      25.548   0.834  52.631  1.00  0.00     0.107 A 
HETATM   22  N4  UNL     1      26.163  -0.189  52.666  1.00  0.00    -0.240 NA
HETATM   23  C16 UNL     1      27.393  -0.433  52.967  1.00  0.00     0.075 A 
HETATM   24  C17 UNL     1      28.052  -1.673  52.985  1.00  0.00     0.033 A 
HETATM   25  C21 UNL     1      28.157   0.643  53.314  1.00  0.00     0.035 A 
HETATM   26  C18 UNL     1      29.354  -1.693  53.332  1.00  0.00     0.002 A 
HETATM   27  C19 UNL     1      30.145  -0.627  53.684  1.00  0.00     0.002 A 
HETATM   28  C20 UNL     1      29.505   0.587  53.671  1.00  0.00     0.021 A 
HETATM   29  S1  UNL     1      26.915   1.896  53.139  1.00  0.00    -0.068 SA
ENDBRANCH  16  21
BRANCH  18  30
HETATM   30  O2  UNL     1      21.890  -1.316  54.296  1.00  0.00    -0.356 OA
HETATM   31  C24 UNL     1      22.867  -1.475  55.318  1.00  0.00     0.210 C 
ENDBRANCH  18  30
BRANCH   8  32
HETATM   32  O1  UNL     1      18.894   6.204  47.654  1.00  0.00    -0.356 OA
HETATM   33  C9  UNL     1      19.015   7.586  48.036  1.00  0.00     0.210 C 
ENDBRANCH   8  32
TORSDOF 3
ENDMDL
MODEL 3
REMARK VINA RESULT:      -8.8      3.519      8.821
REMARK  3 active torsions:
REMARK  status: ('A' for Active; 'I' for Inactive)
REMARK    1  A    between atoms: C8_8  and  O1_9 
REMARK    2  A    between atoms: C14_18  and  C15_19 
REMARK    3  A    between atoms: C23_29  and  O2_30 
ROOT
HETATM    1  C1  UNL     1      18.643  -0.717  52.755  1.00  0.00     0.041 C 
HETATM    2  C2  UNL     1      19.487   0.238  52.413  1.00  0.00    -0.046 C 
HETATM    3  C3  UNL     1      20.868  -0.279  52.708  1.00  0.00     0.037 C 
HETATM    4  C4  UNL     1      21.578   0.480  53.772  1.00  0.00     0.005 C 
HETATM    5  C5  UNL     1      22.911  -0.156  54.062  1.00  0.00     0.004 C 
HETATM    6  C6  UNL     1      23.711  -0.221  52.782  1.00  0.00     0.030 C 
HETATM    7  C7  UNL     1      25.086  -0.685  52.991  1.00  0.00     0.010 C 
HETATM    8  C8  UNL     1      26.388  -0.661  52.999  1.00  0.00     0.065 C 
HETATM    9  C10 UNL     1      27.019   0.595  52.495  1.00  0.00     0.055 C 
HETATM   10  C11 UNL     1      26.813   1.837  51.985  1.00  0.00     0.112 C 
HETATM   11  N1  UNL     1      26.659   3.162  51.441  1.00  0.00    -0.288 N 
HETATM   12  N2  UNL     1      25.409   3.561  50.863  1.00  0.00    -0.171 NA
HETATM   13  C12 UNL     1      24.420   3.463  51.747  1.00  0.00     0.225 C 
HETATM   14  N3  UNL     1      23.187   3.840  51.226  1.00  0.00    -0.372 N 
HETATM   15  C13 UNL     1      21.835   3.701  51.134  1.00  0.00     0.145 C 
HETATM   16  C14 UNL     1      20.594   3.406  51.138  1.00  0.00     0.005 C 
HETATM   17  C22 UNL     1      19.550   2.492  51.444  1.00  0.00     0.049 C 
HETATM   18  C23 UNL     1      18.927   1.458  51.838  1.00  0.00     0.071 C 
HETATM   19  H17 UNL     1      27.603   3.034  51.818  1.00  0.00     0.188 HD
HETATM   20  H19 UNL     1      23.046   4.596  50.560  1.00  0.00     0.161 HD
ENDROOT
BRANCH  16  21
HETATM   21  C15 UNL     1      20.275   4.688  50.421  1.00  0.00     0.107 A 
HETATM   22  N4  UNL     1      20.944   5.677  50.449  1.00  0.00    -0.240 NA
HETATM   23  C16 UNL     1      20.781   6.829  49.891  1.00  0.00     0.075 A 
HETATM   24  C17 UNL     1      21.617   7.955  49.967  1.00  0.00     0.033 A 
HETATM   25  C21 UNL     1      19.660   6.982  49.129  1.00  0.00     0.035 A 
HETATM   26  C18 UNL     1      21.250   9.064  49.295  1.00  0.00     0.002 A 
HETATM   27  C19 UNL     1      20.129   9.243  48.522  1.00  0.00     0.002 A 
HETATM   28  C20 UNL     1      19.307   8.146  48.446  1.00  0.00     0.021 A 
HETATM   29  S1  UNL     1      18.987   5.357  49.350  1.00  0.00    -0.068 SA
ENDBRANCH  16  21
BRANCH  18  30
HETATM   30  O2  UNL     1      17.527   1.315  51.781  1.00  0.00    -0.356 OA
HETATM   31  C24 UNL     1      16.699   2.414  51.417  1.00  0.00     0.210 C 
ENDBRANCH  18  30
BRANCH   8  32
HETATM   32  O1  UNL     1      27.526  -1.391  53.313  1.00  0.00    -0.356 OA
HETATM   33  C9  UNL     1      28.608  -0.608  53.849  1.00  0.00     0.210 C 
ENDBRANCH   8  32
TORSDOF 3
ENDMDL
MODEL 4
REMARK VINA RESULT:      -8.8      3.299      5.679
REMARK  3 active torsions:
REMARK  status: ('A' for Active; 'I' for Inactive)
REMARK    1  A    between atoms: C8_8  and  O1_9 
REMARK    2  A    between atoms: C14_18  and  C15_19 
REMARK    3  A    between atoms: C23_29  and  O2_30 
ROOT
HETATM    1  C1  UNL     1      23.516  -0.562  53.427  1.00  0.00     0.041 C 
HETATM    2  C2  UNL     1      23.210   0.485  52.685  1.00  0.00    -0.046 C 
HETATM    3  C3  UNL     1      21.709   0.537  52.608  1.00  0.00     0.037 C 
HETATM    4  C4  UNL     1      21.171   0.325  51.238  1.00  0.00     0.005 C 
HETATM    5  C5  UNL     1      19.665   0.306  51.269  1.00  0.00     0.004 C 
HETATM    6  C6  UNL     1      19.173   1.598  51.878  1.00  0.00     0.030 C 
HETATM    7  C7  UNL     1      17.715   1.741  51.811  1.00  0.00     0.010 C 
HETATM    8  C8  UNL     1      16.558   2.247  51.494  1.00  0.00     0.065 C 
HETATM    9  C10 UNL     1      16.594   3.482  50.656  1.00  0.00     0.055 C 
HETATM   10  C11 UNL     1      17.375   4.395  50.022  1.00  0.00     0.112 C 
HETATM   11  N1  UNL     1      18.151   5.394  49.331  1.00  0.00    -0.288 N 
HETATM   12  N2  UNL     1      19.542   5.560  49.634  1.00  0.00    -0.171 NA
HETATM   13  C12 UNL     1      20.215   4.433  49.424  1.00  0.00     0.225 C 
HETATM   14  N3  UNL     1      21.572   4.550  49.707  1.00  0.00    -0.372 N 
HETATM   15  C13 UNL     1      22.744   4.038  50.174  1.00  0.00     0.145 C 
HETATM   16  C14 UNL     1      23.736   3.419  50.683  1.00  0.00     0.005 C 
HETATM   17  C22 UNL     1      24.245   2.344  51.460  1.00  0.00     0.049 C 
HETATM   18  C23 UNL     1      24.312   1.303  52.185  1.00  0.00     0.071 C 
HETATM   19  H17 UNL     1      17.180   5.397  49.002  1.00  0.00     0.188 HD
HETATM   20  H19 UNL     1      22.131   5.382  49.530  1.00  0.00     0.161 HD
ENDROOT
BRANCH  16  21
HETATM   21  C15 UNL     1      24.675   4.471  50.163  1.00  0.00     0.107 A 
HETATM   22  N4  UNL     1      25.733   4.258  49.652  1.00  0.00    -0.240 NA
HETATM   23  C16 UNL     1      26.624   5.060  49.175  1.00  0.00     0.075 A 
HETATM   24  C17 UNL     1      27.855   4.734  48.583  1.00  0.00     0.033 A 
HETATM   25  C21 UNL     1      26.345   6.393  49.253  1.00  0.00     0.035 A 
HETATM   26  C18 UNL     1      28.636   5.744  48.148  1.00  0.00     0.002 A 
HETATM   27  C19 UNL     1      28.378   7.091  48.214  1.00  0.00     0.002 A 
HETATM   28  C20 UNL     1      27.177   7.415  48.794  1.00  0.00     0.021 A 
HETATM   29  S1  UNL     1      24.761   6.269  50.039  1.00  0.00    -0.068 SA
ENDBRANCH  16  21
BRANCH  18  30
HETATM   30  O2  UNL     1      25.519   0.743  52.646  1.00  0.00    -0.356 OA
HETATM   31  C24 UNL     1      26.750   1.034  51.995  1.00  0.00     0.210 C 
ENDBRANCH  18  30
BRANCH   8  32
HETATM   32  O1  UNL     1      15.185   2.089  51.629  1.00  0.00    -0.356 OA
HETATM   33  C9  UNL     1      14.788   1.224  52.708  1.00  0.00     0.210 C 
ENDBRANCH   8  32
TORSDOF 3
ENDMDL
MODEL 5
REMARK VINA RESULT:      -8.8      3.461      8.570
REMARK  3 active torsions:
REMARK  status: ('A' for Active; 'I' for Inactive)
REMARK    1  A    between atoms: C8_8  and  O1_9 
REMARK    2  A    between atoms: C14_18  and  C15_19 
REMARK    3  A    between atoms: C23_29  and  O2_30 
ROOT
HETATM    1  C1  UNL     1      23.382   6.485  50.694  1.00  0.00     0.041 C 
HETATM    2  C2  UNL     1      22.765   5.388  51.090  1.00  0.00    -0.046 C 
HETATM    3  C3  UNL     1      23.802   4.525  51.756  1.00  0.00     0.037 C 
HETATM    4  C4  UNL     1      24.064   3.246  51.044  1.00  0.00     0.005 C 
HETATM    5  C5  UNL     1      25.172   2.489  51.728  1.00  0.00     0.004 C 
HETATM    6  C6  UNL     1      24.792   2.267  53.173  1.00  0.00     0.030 C 
HETATM    7  C7  UNL     1      25.739   1.402  53.886  1.00  0.00     0.010 C 
HETATM    8  C8  UNL     1      26.180   0.377  54.556  1.00  0.00     0.065 C 
HETATM    9  C10 UNL     1      25.172  -0.680  54.867  1.00  0.00     0.055 C 
HETATM   10  C11 UNL     1      23.878  -1.078  54.748  1.00  0.00     0.112 C 
HETATM   11  N1  UNL     1      22.521  -1.553  54.655  1.00  0.00    -0.288 N 
HETATM   12  N2  UNL     1      21.463  -0.646  54.319  1.00  0.00    -0.171 NA
HETATM   13  C12 UNL     1      21.682  -0.073  53.139  1.00  0.00     0.225 C 
HETATM   14  N3  UNL     1      20.677   0.818  52.774  1.00  0.00    -0.372 N 
HETATM   15  C13 UNL     1      20.259   1.971  52.181  1.00  0.00     0.145 C 
HETATM   16  C14 UNL     1      20.051   3.098  51.623  1.00  0.00     0.005 C 
HETATM   17  C22 UNL     1      20.546   4.338  51.137  1.00  0.00     0.049 C 
HETATM   18  C23 UNL     1      21.328   5.295  50.843  1.00  0.00     0.071 C 
HETATM   19  H17 UNL     1      23.157  -2.319  54.899  1.00  0.00     0.188 HD
HETATM   20  H19 UNL     1      19.688   0.688  52.972  1.00  0.00     0.161 HD
ENDROOT
BRANCH  16  21
HETATM   21  C15 UNL     1      18.574   2.824  51.594  1.00  0.00     0.107 A 
HETATM   22  N4  UNL     1      17.730   3.546  52.032  1.00  0.00    -0.240 NA
HETATM   23  C16 UNL     1      16.446   3.427  52.075  1.00  0.00     0.075 A 
HETATM   24  C17 UNL     1      15.509   4.326  52.610  1.00  0.00     0.033 A 
HETATM   25  C21 UNL     1      15.924   2.288  51.535  1.00  0.00     0.035 A 
HETATM   26  C18 UNL     1      14.204   3.996  52.544  1.00  0.00     0.002 A 
HETATM   27  C19 UNL     1      13.654   2.858  52.006  1.00  0.00     0.002 A 
HETATM   28  C20 UNL     1      14.565   1.975  51.483  1.00  0.00     0.021 A 
HETATM   29  S1  UNL     1      17.446   1.536  51.026  1.00  0.00    -0.068 SA
ENDBRANCH  16  21
BRANCH  18  30
HETATM   30  O2  UNL     1      20.916   6.477  50.199  1.00  0.00    -0.356 OA
HETATM   31  C24 UNL     1      19.682   6.526  49.492  1.00  0.00     0.210 C 
ENDBRANCH  18  30
BRANCH   8  32
HETATM   32  O1  UNL     1      27.304  -0.182  55.149  1.00  0.00    -0.356 OA
HETATM   33  C9  UNL     1      28.554   0.247  54.580  1.00  0.00     0.210 C 
ENDBRANCH   8  32
TORSDOF 3
ENDMDL
MODEL 6
REMARK VINA RESULT:      -8.5      4.089      9.933
REMARK  3 active torsions:
REMARK  status: ('A' for Active; 'I' for Inactive)
REMARK    1  A    between atoms: C8_8  and  O1_9 
REMARK    2  A    between atoms: C14_18  and  C15_19 
REMARK    3  A    between atoms: C23_29  and  O2_30 
ROOT
HETATM    1  C1  UNL     1      22.457  -0.786  53.389  1.00  0.00     0.041 C 
HETATM    2  C2  UNL     1      22.073   0.304  52.750  1.00  0.00    -0.046 C 
HETATM    3  C3  UNL     1      23.318   0.942  52.198  1.00  0.00     0.037 C 
HETATM    4  C4  UNL     1      23.621   2.274  52.786  1.00  0.00     0.005 C 
HETATM    5  C5  UNL     1      24.923   2.798  52.242  1.00  0.00     0.004 C 
HETATM    6  C6  UNL     1      24.838   2.849  50.735  1.00  0.00     0.030 C 
HETATM    7  C7  UNL     1      26.004   3.492  50.119  1.00  0.00     0.010 C 
HETATM    8  C8  UNL     1      26.690   4.355  49.427  1.00  0.00     0.065 C 
HETATM    9  C10 UNL     1      25.905   5.460  48.800  1.00  0.00     0.055 C 
HETATM   10  C11 UNL     1      24.677   6.010  48.618  1.00  0.00     0.112 C 
HETATM   11  N1  UNL     1      23.401   6.639  48.388  1.00  0.00    -0.288 N 
HETATM   12  N2  UNL     1      22.188   5.912  48.621  1.00  0.00    -0.171 NA
HETATM   13  C12 UNL     1      22.115   5.495  49.882  1.00  0.00     0.225 C 
HETATM   14  N3  UNL     1      20.951   4.782  50.151  1.00  0.00    -0.372 N 
HETATM   15  C13 UNL     1      20.284   3.780  50.788  1.00  0.00     0.145 C 
HETATM   16  C14 UNL     1      19.830   2.775  51.428  1.00  0.00     0.005 C 
HETATM   17  C22 UNL     1      20.060   1.572  52.147  1.00  0.00     0.049 C 
HETATM   18  C23 UNL     1      20.642   0.588  52.702  1.00  0.00     0.071 C 
HETATM   19  H17 UNL     1      24.167   7.288  48.181  1.00  0.00     0.188 HD
HETATM   20  H19 UNL     1      20.039   4.990  49.751  1.00  0.00     0.161 HD
ENDROOT
BRANCH  16  21
HETATM   21  C15 UNL     1      18.421   3.211  51.138  1.00  0.00     0.107 A 
HETATM   22  N4  UNL     1      17.534   3.250  51.936  1.00  0.00    -0.240 NA
HETATM   23  C16 UNL     1      16.297   3.594  51.816  1.00  0.00     0.075 A 
HETATM   24  C17 UNL     1      15.303   3.616  52.808  1.00  0.00     0.033 A 
HETATM   25  C21 UNL     1      15.893   3.987  50.573  1.00  0.00     0.035 A 
HETATM   26  C18 UNL     1      14.065   4.017  52.456  1.00  0.00     0.002 A 
HETATM   27  C19 UNL     1      13.635   4.417  51.215  1.00  0.00     0.002 A 
HETATM   28  C20 UNL     1      14.601   4.396  50.241  1.00  0.00     0.021 A 
HETATM   29  S1  UNL     1      17.443   3.789  49.736  1.00  0.00    -0.068 SA
ENDBRANCH  16  21
BRANCH  18  30
HETATM   30  O2  UNL     1      19.966  -0.436  53.393  1.00  0.00    -0.356 OA
HETATM   31  C24 UNL     1      18.635  -0.795  53.041  1.00  0.00     0.210 C 
ENDBRANCH  18  30
BRANCH   8  32
HETATM   32  O1  UNL     1      27.966   4.696  48.999  1.00  0.00    -0.356 OA
HETATM   33  C9  UNL     1      28.045   5.948  48.295  1.00  0.00     0.210 C 
ENDBRANCH   8  32
TORSDOF 3
ENDMDL
MODEL 7
REMARK VINA RESULT:      -8.4      2.840      8.029
REMARK  3 active torsions:
REMARK  status: ('A' for Active; 'I' for Inactive)
REMARK    1  A    between atoms: C8_8  and  O1_9 
REMARK    2  A    between atoms: C14_18  and  C15_19 
REMARK    3  A    between atoms: C23_29  and  O2_30 
ROOT
HETATM    1  C1  UNL     1      24.565   6.031  48.736  1.00  0.00     0.041 C 
HETATM    2  C2  UNL     1      24.055   5.042  49.446  1.00  0.00    -0.046 C 
HETATM    3  C3  UNL     1      25.206   4.384  50.158  1.00  0.00     0.037 C 
HETATM    4  C4  UNL     1      25.451   2.981  49.732  1.00  0.00     0.005 C 
HETATM    5  C5  UNL     1      26.668   2.431  50.428  1.00  0.00     0.004 C 
HETATM    6  C6  UNL     1      26.468   2.544  51.921  1.00  0.00     0.030 C 
HETATM    7  C7  UNL     1      27.534   1.893  52.690  1.00  0.00     0.010 C 
HETATM    8  C8  UNL     1      28.102   1.063  53.517  1.00  0.00     0.065 C 
HETATM    9  C10 UNL     1      27.193   0.085  54.185  1.00  0.00     0.055 C 
HETATM   10  C11 UNL     1      25.917  -0.361  54.321  1.00  0.00     0.112 C 
HETATM   11  N1  UNL     1      24.585  -0.877  54.508  1.00  0.00    -0.288 N 
HETATM   12  N2  UNL     1      23.449  -0.099  54.107  1.00  0.00    -0.171 NA
HETATM   13  C12 UNL     1      23.501   0.187  52.809  1.00  0.00     0.225 C 
HETATM   14  N3  UNL     1      22.416   0.944  52.377  1.00  0.00    -0.372 N 
HETATM   15  C13 UNL     1      21.873   1.915  51.592  1.00  0.00     0.145 C 
HETATM   16  C14 UNL     1      21.544   2.876  50.821  1.00  0.00     0.005 C 
HETATM   17  C22 UNL     1      21.915   3.980  50.007  1.00  0.00     0.049 C 
HETATM   18  C23 UNL     1      22.607   4.859  49.406  1.00  0.00     0.071 C 
HETATM   19  H17 UNL     1      25.284  -1.550  54.840  1.00  0.00     0.188 HD
HETATM   20  H19 UNL     1      21.464   0.840  52.720  1.00  0.00     0.161 HD
ENDROOT
BRANCH  16  21
HETATM   21  C15 UNL     1      20.089   2.567  51.038  1.00  0.00     0.107 A 
HETATM   22  N4  UNL     1      19.635   1.476  51.212  1.00  0.00    -0.240 NA
HETATM   23  C16 UNL     1      18.422   1.080  51.402  1.00  0.00     0.075 A 
HETATM   24  C17 UNL     1      17.960  -0.230  51.603  1.00  0.00     0.033 A 
HETATM   25  C21 UNL     1      17.461   2.049  51.410  1.00  0.00     0.035 A 
HETATM   26  C18 UNL     1      16.637  -0.415  51.785  1.00  0.00     0.002 A 
HETATM   27  C19 UNL     1      15.651   0.542  51.798  1.00  0.00     0.002 A 
HETATM   28  C20 UNL     1      16.098   1.825  51.600  1.00  0.00     0.021 A 
HETATM   29  S1  UNL     1      18.517   3.446  51.130  1.00  0.00    -0.068 SA
ENDBRANCH  16  21
BRANCH  18  30
HETATM   30  O2  UNL     1      22.062   5.848  48.565  1.00  0.00    -0.356 OA
HETATM   31  C24 UNL     1      20.759   6.367  48.803  1.00  0.00     0.210 C 
ENDBRANCH  18  30
BRANCH   8  32
HETATM   32  O1  UNL     1      29.314   0.686  54.079  1.00  0.00    -0.356 OA
HETATM   33  C9  UNL     1      29.701  -0.672  53.804  1.00  0.00     0.210 C 
ENDBRANCH   8  32
TORSDOF 3
ENDMDL
MODEL 8
REMARK VINA RESULT:      -8.4      4.453      9.465
REMARK  3 active torsions:
REMARK  status: ('A' for Active; 'I' for Inactive)
REMARK    1  A    between atoms: C8_8  and  O1_9 
REMARK    2  A    between atoms: C14_18  and  C15_19 
REMARK    3  A    between atoms: C23_29  and  O2_30 
ROOT
HETATM    1  C1  UNL     1      22.165   8.596  49.450  1.00  0.00     0.041 C 
HETATM    2  C2  UNL     1      23.198   7.775  49.435  1.00  0.00    -0.046 C 
HETATM    3  C3  UNL     1      24.299   8.481  48.692  1.00  0.00     0.037 C 
HETATM    4  C4  UNL     1      24.683   7.818  47.417  1.00  0.00     0.005 C 
HETATM    5  C5  UNL     1      25.725   8.634  46.699  1.00  0.00     0.004 C 
HETATM    6  C6  UNL     1      26.910   8.828  47.617  1.00  0.00     0.030 C 
HETATM    7  C7  UNL     1      28.044   9.480  46.954  1.00  0.00     0.010 C 
HETATM    8  C8  UNL     1      29.248   9.642  46.486  1.00  0.00     0.065 C 
HETATM    9  C10 UNL     1      30.183   8.495  46.684  1.00  0.00     0.055 C 
HETATM   10  C11 UNL     1      30.345   7.243  47.185  1.00  0.00     0.112 C 
HETATM   11  N1  UNL     1      30.578   5.916  47.696  1.00  0.00    -0.288 N 
HETATM   12  N2  UNL     1      29.682   5.350  48.662  1.00  0.00    -0.171 NA
HETATM   13  C12 UNL     1      28.441   5.295  48.188  1.00  0.00     0.225 C 
HETATM   14  N3  UNL     1      27.537   4.753  49.096  1.00  0.00    -0.372 N 
HETATM   15  C13 UNL     1      26.301   4.698  49.664  1.00  0.00     0.145 C 
HETATM   16  C14 UNL     1      25.111   4.813  50.110  1.00  0.00     0.005 C 
HETATM   17  C22 UNL     1      23.912   5.565  50.229  1.00  0.00     0.049 C 
HETATM   18  C23 UNL     1      23.053   6.495  50.122  1.00  0.00     0.071 C 
HETATM   19  H17 UNL     1      31.299   6.173  47.015  1.00  0.00     0.188 HD
HETATM   20  H19 UNL     1      27.747   3.992  49.738  1.00  0.00     0.161 HD
ENDROOT
BRANCH  16  21
HETATM   21  C15 UNL     1      25.247   3.507  50.842  1.00  0.00     0.107 A 
HETATM   22  N4  UNL     1      24.353   2.916  51.368  1.00  0.00    -0.240 NA
HETATM   23  C16 UNL     1      24.337   1.806  52.025  1.00  0.00     0.075 A 
HETATM   24  C17 UNL     1      23.238   1.166  52.619  1.00  0.00     0.033 A 
HETATM   25  C21 UNL     1      25.535   1.166  52.164  1.00  0.00     0.035 A 
HETATM   26  C18 UNL     1      23.454  -0.000  53.260  1.00  0.00     0.002 A 
HETATM   27  C19 UNL     1      24.646  -0.664  53.414  1.00  0.00     0.002 A 
HETATM   28  C20 UNL     1      25.725  -0.041  52.837  1.00  0.00     0.021 A 
HETATM   29  S1  UNL     1      26.540   2.328  51.280  1.00  0.00    -0.068 SA
ENDBRANCH  16  21
BRANCH  18  30
HETATM   30  O2  UNL     1      21.759   6.437  50.675  1.00  0.00    -0.356 OA
HETATM   31  C24 UNL     1      21.242   5.214  51.188  1.00  0.00     0.210 C 
ENDBRANCH  18  30
BRANCH   8  32
HETATM   32  O1  UNL     1      30.088  10.524  45.819  1.00  0.00    -0.356 OA
HETATM   33  C9  UNL     1      30.833  11.403  46.680  1.00  0.00     0.210 C 
ENDBRANCH   8  32
TORSDOF 3
ENDMDL
MODEL 9
REMARK VINA RESULT:      -8.1      4.061      7.613
REMARK  3 active torsions:
REMARK  status: ('A' for Active; 'I' for Inactive)
REMARK    1  A    between atoms: C8_8  and  O1_9 
REMARK    2  A    between atoms: C14_18  and  C15_19 
REMARK    3  A    between atoms: C23_29  and  O2_30 
ROOT
HETATM    1  C1  UNL     1      27.480   4.692  48.938  1.00  0.00     0.041 C 
HETATM    2  C2  UNL     1      26.213   4.701  49.307  1.00  0.00    -0.046 C 
HETATM    3  C3  UNL     1      25.570   5.873  48.618  1.00  0.00     0.037 C 
HETATM    4  C4  UNL     1      25.091   6.928  49.551  1.00  0.00     0.005 C 
HETATM    5  C5  UNL     1      24.542   8.097  48.775  1.00  0.00     0.004 C 
HETATM    6  C6  UNL     1      23.443   7.605  47.863  1.00  0.00     0.030 C 
HETATM    7  C7  UNL     1      22.740   8.695  47.178  1.00  0.00     0.010 C 
HETATM    8  C8  UNL     1      21.758   9.468  46.817  1.00  0.00     0.065 C 
HETATM    9  C10 UNL     1      20.427   9.154  47.417  1.00  0.00     0.055 C 
HETATM   10  C11 UNL     1      19.728   8.341  48.251  1.00  0.00     0.112 C 
HETATM   11  N1  UNL     1      18.932   7.512  49.121  1.00  0.00    -0.288 N 
HETATM   12  N2  UNL     1      19.421   6.230  49.536  1.00  0.00    -0.171 NA
HETATM   13  C12 UNL     1      20.580   6.344  50.178  1.00  0.00     0.225 C 
HETATM   14  N3  UNL     1      21.091   5.121  50.598  1.00  0.00    -0.372 N 
HETATM   15  C13 UNL     1      22.136   4.281  50.838  1.00  0.00     0.145 C 
HETATM   16  C14 UNL     1      23.218   3.618  50.964  1.00  0.00     0.005 C 
HETATM   17  C22 UNL     1      24.598   3.452  50.670  1.00  0.00     0.049 C 
HETATM   18  C23 UNL     1      25.762   3.633  50.196  1.00  0.00     0.071 C 
HETATM   19  H17 UNL     1      18.450   8.393  48.920  1.00  0.00     0.188 HD
HETATM   20  H19 UNL     1      20.529   4.344  50.937  1.00  0.00     0.161 HD
ENDROOT
BRANCH  16  21
HETATM   21  C15 UNL     1      22.496   2.569  51.763  1.00  0.00     0.107 A 
HETATM   22  N4  UNL     1      23.020   1.688  52.376  1.00  0.00    -0.240 NA
HETATM   23  C16 UNL     1      22.522   0.734  53.088  1.00  0.00     0.075 A 
HETATM   24  C17 UNL     1      23.206  -0.273  53.787  1.00  0.00     0.033 A 
HETATM   25  C21 UNL     1      21.161   0.690  53.177  1.00  0.00     0.035 A 
HETATM   26  C18 UNL     1      22.477  -1.175  54.474  1.00  0.00     0.002 A 
HETATM   27  C19 UNL     1      21.109  -1.241  54.580  1.00  0.00     0.002 A 
HETATM   28  C20 UNL     1      20.435  -0.260  53.896  1.00  0.00     0.021 A 
HETATM   29  S1  UNL     1      20.801   2.104  52.171  1.00  0.00    -0.068 SA
ENDBRANCH  16  21
BRANCH  18  30
HETATM   30  O2  UNL     1      26.859   2.792  50.464  1.00  0.00    -0.356 OA
HETATM   31  C24 UNL     1      26.845   1.915  51.584  1.00  0.00     0.210 C 
ENDBRANCH  18  30
BRANCH   8  32
HETATM   32  O1  UNL     1      21.414  10.562  46.033  1.00  0.00    -0.356 OA
HETATM   33  C9  UNL     1      22.524  11.185  45.361  1.00  0.00     0.210 C 
ENDBRANCH   8  32
TORSDOF 3
ENDMDL
