MODEL 1
REMARK VINA RESULT:      -7.9      0.000      0.000
REMARK  7 active torsions:
REMARK  status: ('A' for Active; 'I' for Inactive)
REMARK    1  A    between atoms: C2_2  and  N1_3 
REMARK    2  A    between atoms: C5_7  and  C6_8 
REMARK    3  A    between atoms: C5_7  and  C20_26 
REMARK    4  A    between atoms: C6_8  and  C7_9 
REMARK    5  A    between atoms: C10_14  and  N5_15 
REMARK    6  A    between atoms: N5_15  and  C11_16 
REMARK    7  A    between atoms: C20_26  and  N7_27 
ROOT
HETATM    1  C7  UNL     1      25.335   2.063  52.554  1.00  0.00     0.006 A 
HETATM    2  C8  UNL     1      25.764   1.822  53.986  1.00  0.00     0.192 A 
HETATM    3  N3  UNL     1      27.142   1.984  54.090  1.00  0.00    -0.278 NA
HETATM    4  C9  UNL     1      28.057   2.277  53.288  1.00  0.00     0.229 A 
HETATM    5  N4  UNL     1      27.674   2.511  51.951  1.00  0.00    -0.224 NA
HETATM    6  C10 UNL     1      26.436   2.414  51.619  1.00  0.00     0.137 A 
ENDROOT
BRANCH   1   7
HETATM    7  C6  UNL     1      24.107   2.028  52.027  1.00  0.00     0.021 C 
BRANCH   7   8
HETATM    8  C5  UNL     1      22.752   2.056  51.518  1.00  0.00     0.103 A 
HETATM    9  N1  UNL     1      22.003   0.844  51.832  1.00  0.00    -0.270 N 
HETATM   10  N2  UNL     1      21.370   0.313  50.690  1.00  0.00    -0.189 NA
HETATM   11  C3  UNL     1      21.668   1.066  49.665  1.00  0.00     0.114 A 
HETATM   12  C4  UNL     1      22.551   2.203  50.029  1.00  0.00     0.087 A 
BRANCH   9  13
HETATM   13  C2  UNL     1      21.789   0.108  53.029  1.00  0.00     0.087 C 
HETATM   14  C1  UNL     1      22.467  -0.780  53.764  1.00  0.00     0.051 C 
ENDBRANCH   9  13
BRANCH   8  15
HETATM   15  C20 UNL     1      21.973   3.203  52.183  1.00  0.00     0.304 C 
BRANCH  15  16
HETATM   16  N7  UNL     1      22.787   4.373  52.112  1.00  0.00     0.081 N 
HETATM   17  H20 UNL     1      23.807   4.178  52.111  1.00  0.00     0.312 HD
HETATM   18  H21 UNL     1      22.577   5.031  52.896  1.00  0.00     0.312 HD
ENDBRANCH  15  16
ENDBRANCH   8  15
ENDBRANCH   7   8
ENDBRANCH   1   7
BRANCH   6  19
HETATM   19  N5  UNL     1      26.235   2.700  50.234  1.00  0.00    -0.340 N 
HETATM   20  H11 UNL     1      26.079   1.869  49.635  1.00  0.00     0.167 HD
BRANCH  19  21
HETATM   21  C11 UNL     1      26.222   3.976  49.613  1.00  0.00     0.034 A 
HETATM   22  C12 UNL     1      25.137   4.809  49.468  1.00  0.00     0.032 A 
HETATM   23  C13 UNL     1      25.204   6.038  48.852  1.00  0.00     0.035 A 
HETATM   24  C14 UNL     1      26.389   6.512  48.336  1.00  0.00     0.066 A 
HETATM   25  N6  UNL     1      26.513   7.700  47.726  1.00  0.00    -0.260 NA
HETATM   26  C18 UNL     1      27.494   5.699  48.464  1.00  0.00    -0.005 A 
HETATM   27  C15 UNL     1      27.670   8.163  47.221  1.00  0.00     0.117 A 
HETATM   28  C16 UNL     1      28.788   7.357  47.344  1.00  0.00     0.020 A 
HETATM   29  C17 UNL     1      28.721   6.114  47.966  1.00  0.00     0.015 A 
HETATM   30  C19 UNL     1      27.391   4.478  49.086  1.00  0.00     0.043 A 
ENDBRANCH  19  21
ENDBRANCH   6  19
TORSDOF 7
ENDMDL
MODEL 2
REMARK VINA RESULT:      -7.7      1.782      5.989
REMARK  7 active torsions:
REMARK  status: ('A' for Active; 'I' for Inactive)
REMARK    1  A    between atoms: C2_2  and  N1_3 
REMARK    2  A    between atoms: C5_7  and  C6_8 
REMARK    3  A    between atoms: C5_7  and  C20_26 
REMARK    4  A    between atoms: C6_8  and  C7_9 
REMARK    5  A    between atoms: C10_14  and  N5_15 
REMARK    6  A    between atoms: N5_15  and  C11_16 
REMARK    7  A    between atoms: C20_26  and  N7_27 
ROOT
HETATM    1  C7  UNL     1      25.556   5.308  49.787  1.00  0.00     0.006 A 
HETATM    2  C8  UNL     1      26.063   6.621  49.228  1.00  0.00     0.192 A 
HETATM    3  N3  UNL     1      27.298   6.418  48.617  1.00  0.00    -0.278 NA
HETATM    4  C9  UNL     1      28.038   5.426  48.440  1.00  0.00     0.229 A 
HETATM    5  N4  UNL     1      27.579   4.194  48.950  1.00  0.00    -0.224 NA
HETATM    6  C10 UNL     1      26.449   4.143  49.562  1.00  0.00     0.137 A 
ENDROOT
BRANCH   1   7
HETATM    7  C6  UNL     1      24.411   5.055  50.430  1.00  0.00     0.021 C 
BRANCH   7   8
HETATM    8  C5  UNL     1      23.127   4.827  51.058  1.00  0.00     0.103 A 
HETATM    9  N1  UNL     1      22.329   3.820  50.368  1.00  0.00    -0.270 N 
HETATM   10  N2  UNL     1      21.017   4.275  50.121  1.00  0.00    -0.189 NA
HETATM   11  C3  UNL     1      20.913   5.496  50.570  1.00  0.00     0.114 A 
HETATM   12  C4  UNL     1      22.174   5.992  51.177  1.00  0.00     0.087 A 
BRANCH   9  13
HETATM   13  C2  UNL     1      22.600   2.503  49.907  1.00  0.00     0.087 C 
HETATM   14  C1  UNL     1      21.921   1.519  49.306  1.00  0.00     0.051 C 
ENDBRANCH   9  13
BRANCH   8  15
HETATM   15  C20 UNL     1      23.336   4.281  52.480  1.00  0.00     0.304 C 
BRANCH  15  16
HETATM   16  N7  UNL     1      23.896   5.333  53.266  1.00  0.00     0.081 N 
HETATM   17  H20 UNL     1      24.891   5.537  53.051  1.00  0.00     0.312 HD
HETATM   18  H21 UNL     1      23.814   5.131  54.288  1.00  0.00     0.312 HD
ENDBRANCH  15  16
ENDBRANCH   8  15
ENDBRANCH   7   8
ENDBRANCH   1   7
BRANCH   6  19
HETATM   19  N5  UNL     1      26.141   2.816  49.992  1.00  0.00    -0.340 N 
HETATM   20  H11 UNL     1      25.724   2.207  49.264  1.00  0.00     0.167 HD
BRANCH  19  21
HETATM   21  C11 UNL     1      26.348   2.260  51.282  1.00  0.00     0.034 A 
HETATM   22  C12 UNL     1      27.378   2.549  52.146  1.00  0.00     0.032 A 
HETATM   23  C13 UNL     1      27.510   1.967  53.386  1.00  0.00     0.035 A 
HETATM   24  C14 UNL     1      26.597   1.042  53.839  1.00  0.00     0.066 A 
HETATM   25  N6  UNL     1      26.675   0.444  55.037  1.00  0.00    -0.260 NA
HETATM   26  C18 UNL     1      25.554   0.730  52.995  1.00  0.00    -0.005 A 
HETATM   27  C15 UNL     1      25.784  -0.460  55.481  1.00  0.00     0.117 A 
HETATM   28  C16 UNL     1      24.731  -0.782  54.643  1.00  0.00     0.020 A 
HETATM   29  C17 UNL     1      24.597  -0.194  53.389  1.00  0.00     0.015 A 
HETATM   30  C19 UNL     1      25.452   1.331  51.764  1.00  0.00     0.043 A 
ENDBRANCH  19  21
ENDBRANCH   6  19
TORSDOF 7
ENDMDL
MODEL 3
REMARK VINA RESULT:      -7.7      3.436      6.066
REMARK  7 active torsions:
REMARK  status: ('A' for Active; 'I' for Inactive)
REMARK    1  A    between atoms: C2_2  and  N1_3 
REMARK    2  A    between atoms: C5_7  and  C6_8 
REMARK    3  A    between atoms: C5_7  and  C20_26 
REMARK    4  A    between atoms: C6_8  and  C7_9 
REMARK    5  A    between atoms: C10_14  and  N5_15 
REMARK    6  A    between atoms: N5_15  and  C11_16 
REMARK    7  A    between atoms: C20_26  and  N7_27 
ROOT
HETATM    1  C7  UNL     1      21.619   1.131  53.043  1.00  0.00     0.006 A 
HETATM    2  C8  UNL     1      20.552   0.569  53.958  1.00  0.00     0.192 A 
HETATM    3  N3  UNL     1      20.998  -0.631  54.507  1.00  0.00    -0.278 NA
HETATM    4  C9  UNL     1      22.046  -1.306  54.410  1.00  0.00     0.229 A 
HETATM    5  N4  UNL     1      23.053  -0.793  53.565  1.00  0.00    -0.224 NA
HETATM    6  C10 UNL     1      22.857   0.315  52.945  1.00  0.00     0.137 A 
ENDROOT
BRANCH   1   7
HETATM    7  C6  UNL     1      21.607   2.266  52.336  1.00  0.00     0.021 C 
BRANCH   7   8
HETATM    8  C5  UNL     1      21.688   3.494  51.573  1.00  0.00     0.103 A 
HETATM    9  N1  UNL     1      22.524   3.370  50.385  1.00  0.00    -0.270 N 
HETATM   10  N2  UNL     1      23.466   4.416  50.300  1.00  0.00    -0.189 NA
HETATM   11  C3  UNL     1      23.322   5.187  51.344  1.00  0.00     0.114 A 
HETATM   12  C4  UNL     1      22.244   4.722  52.254  1.00  0.00     0.087 A 
BRANCH   9  13
HETATM   13  C2  UNL     1      22.580   2.429  49.321  1.00  0.00     0.087 C 
HETATM   14  C1  UNL     1      21.860   1.382  48.904  1.00  0.00     0.051 C 
ENDBRANCH   9  13
BRANCH   8  15
HETATM   15  C20 UNL     1      20.291   3.873  51.054  1.00  0.00     0.304 C 
BRANCH  15  16
HETATM   16  N7  UNL     1      19.335   3.379  51.992  1.00  0.00     0.081 N 
HETATM   17  H20 UNL     1      18.715   4.112  52.387  1.00  0.00     0.312 HD
HETATM   18  H21 UNL     1      19.800   2.879  52.783  1.00  0.00     0.312 HD
ENDBRANCH  15  16
ENDBRANCH   8  15
ENDBRANCH   7   8
ENDBRANCH   1   7
BRANCH   6  19
HETATM   19  N5  UNL     1      23.987   0.685  52.153  1.00  0.00    -0.340 N 
HETATM   20  H11 UNL     1      23.775   0.892  51.160  1.00  0.00     0.167 HD
BRANCH  19  21
HETATM   21  C11 UNL     1      25.335   0.802  52.580  1.00  0.00     0.034 A 
HETATM   22  C12 UNL     1      25.970   1.950  52.993  1.00  0.00     0.032 A 
HETATM   23  C13 UNL     1      27.286   1.983  53.395  1.00  0.00     0.035 A 
HETATM   24  C14 UNL     1      28.056   0.842  53.407  1.00  0.00     0.066 A 
HETATM   25  N6  UNL     1      29.341   0.815  53.790  1.00  0.00    -0.260 NA
HETATM   26  C18 UNL     1      27.448  -0.325  52.998  1.00  0.00    -0.005 A 
HETATM   27  C15 UNL     1      30.094  -0.300  53.801  1.00  0.00     0.117 A 
HETATM   28  C16 UNL     1      29.494  -1.478  53.393  1.00  0.00     0.020 A 
HETATM   29  C17 UNL     1      28.165  -1.513  52.986  1.00  0.00     0.015 A 
HETATM   30  C19 UNL     1      26.131  -0.321  52.603  1.00  0.00     0.043 A 
ENDBRANCH  19  21
ENDBRANCH   6  19
TORSDOF 7
ENDMDL
MODEL 4
REMARK VINA RESULT:      -7.7      1.795      6.805
REMARK  7 active torsions:
REMARK  status: ('A' for Active; 'I' for Inactive)
REMARK    1  A    between atoms: C2_2  and  N1_3 
REMARK    2  A    between atoms: C5_7  and  C6_8 
REMARK    3  A    between atoms: C5_7  and  C20_26 
REMARK    4  A    between atoms: C6_8  and  C7_9 
REMARK    5  A    between atoms: C10_14  and  N5_15 
REMARK    6  A    between atoms: N5_15  and  C11_16 
REMARK    7  A    between atoms: C20_26  and  N7_27 
ROOT
HETATM    1  C7  UNL     1      23.131   2.866  49.320  1.00  0.00     0.006 A 
HETATM    2  C8  UNL     1      22.472   2.392  48.041  1.00  0.00     0.192 A 
HETATM    3  N3  UNL     1      21.669   1.289  48.316  1.00  0.00    -0.278 NA
HETATM    4  C9  UNL     1      21.388   0.641  49.348  1.00  0.00     0.229 A 
HETATM    5  N4  UNL     1      21.989   1.073  50.549  1.00  0.00    -0.224 NA
HETATM    6  C10 UNL     1      22.781   2.085  50.534  1.00  0.00     0.137 A 
ENDROOT
BRANCH   1   7
HETATM    7  C6  UNL     1      23.959   3.900  49.505  1.00  0.00     0.021 C 
BRANCH   7   8
HETATM    8  C5  UNL     1      24.786   5.075  49.680  1.00  0.00     0.103 A 
HETATM    9  N1  UNL     1      24.637   6.040  48.596  1.00  0.00    -0.270 N 
HETATM   10  N2  UNL     1      25.887   6.449  48.088  1.00  0.00    -0.189 NA
HETATM   11  C3  UNL     1      26.824   5.811  48.735  1.00  0.00     0.114 A 
HETATM   12  C4  UNL     1      26.282   4.889  49.766  1.00  0.00     0.087 A 
BRANCH   9  13
HETATM   13  C2  UNL     1      23.513   6.637  47.964  1.00  0.00     0.087 C 
HETATM   14  C1  UNL     1      22.594   6.277  47.061  1.00  0.00     0.051 C 
ENDBRANCH   9  13
BRANCH   8  15
HETATM   15  C20 UNL     1      24.360   5.822  50.955  1.00  0.00     0.304 C 
BRANCH  15  16
HETATM   16  N7  UNL     1      25.198   6.971  51.080  1.00  0.00     0.081 N 
HETATM   17  H20 UNL     1      26.083   6.909  50.540  1.00  0.00     0.312 HD
HETATM   18  H21 UNL     1      25.434   7.163  52.080  1.00  0.00     0.312 HD
ENDBRANCH  15  16
ENDBRANCH   8  15
ENDBRANCH   7   8
ENDBRANCH   1   7
BRANCH   6  19
HETATM   19  N5  UNL     1      23.280   2.387  51.838  1.00  0.00    -0.340 N 
HETATM   20  H11 UNL     1      22.854   3.218  52.287  1.00  0.00     0.167 HD
BRANCH  19  21
HETATM   21  C11 UNL     1      24.271   1.676  52.565  1.00  0.00     0.034 A 
HETATM   22  C12 UNL     1      24.105   0.485  53.232  1.00  0.00     0.032 A 
HETATM   23  C13 UNL     1      25.119  -0.146  53.916  1.00  0.00     0.035 A 
HETATM   24  C14 UNL     1      26.384   0.395  53.972  1.00  0.00     0.066 A 
HETATM   25  N6  UNL     1      27.409  -0.176  54.622  1.00  0.00    -0.260 NA
HETATM   26  C18 UNL     1      26.582   1.589  53.314  1.00  0.00    -0.005 A 
HETATM   27  C15 UNL     1      28.645   0.352  54.677  1.00  0.00     0.117 A 
HETATM   28  C16 UNL     1      28.856   1.551  54.020  1.00  0.00     0.020 A 
HETATM   29  C17 UNL     1      27.832   2.190  53.329  1.00  0.00     0.015 A 
HETATM   30  C19 UNL     1      25.546   2.191  52.640  1.00  0.00     0.043 A 
ENDBRANCH  19  21
ENDBRANCH   6  19
TORSDOF 7
ENDMDL
MODEL 5
REMARK VINA RESULT:      -7.7      2.648      5.395
REMARK  7 active torsions:
REMARK  status: ('A' for Active; 'I' for Inactive)
REMARK    1  A    between atoms: C2_2  and  N1_3 
REMARK    2  A    between atoms: C5_7  and  C6_8 
REMARK    3  A    between atoms: C5_7  and  C20_26 
REMARK    4  A    between atoms: C6_8  and  C7_9 
REMARK    5  A    between atoms: C10_14  and  N5_15 
REMARK    6  A    between atoms: N5_15  and  C11_16 
REMARK    7  A    between atoms: C20_26  and  N7_27 
ROOT
HETATM    1  C7  UNL     1      24.269  -0.372  54.022  1.00  0.00     0.006 A 
HETATM    2  C8  UNL     1      24.031  -1.179  55.280  1.00  0.00     0.192 A 
HETATM    3  N3  UNL     1      22.678  -1.493  55.381  1.00  0.00    -0.278 NA
HETATM    4  C9  UNL     1      21.668  -1.260  54.682  1.00  0.00     0.229 A 
HETATM    5  N4  UNL     1      21.872  -0.513  53.503  1.00  0.00    -0.224 NA
HETATM    6  C10 UNL     1      23.056  -0.111  53.205  1.00  0.00     0.137 A 
ENDROOT
BRANCH   1   7
HETATM    7  C6  UNL     1      25.417   0.113  53.539  1.00  0.00     0.021 C 
BRANCH   7   8
HETATM    8  C5  UNL     1      26.705   0.570  53.061  1.00  0.00     0.103 A 
HETATM    9  N1  UNL     1      27.763  -0.416  53.252  1.00  0.00    -0.270 N 
HETATM   10  N2  UNL     1      28.897   0.151  53.869  1.00  0.00    -0.189 NA
HETATM   11  C3  UNL     1      28.649   1.410  54.113  1.00  0.00     0.114 A 
HETATM   12  C4  UNL     1      27.291   1.820  53.673  1.00  0.00     0.087 A 
BRANCH   9  13
HETATM   13  C2  UNL     1      27.879  -1.799  52.949  1.00  0.00     0.087 C 
HETATM   14  C1  UNL     1      28.798  -2.759  53.100  1.00  0.00     0.051 C 
ENDBRANCH   9  13
BRANCH   8  15
HETATM   15  C20 UNL     1      26.639   0.811  51.544  1.00  0.00     0.304 C 
BRANCH  15  16
HETATM   16  N7  UNL     1      26.788   2.214  51.325  1.00  0.00     0.081 N 
HETATM   17  H20 UNL     1      26.205   2.803  51.950  1.00  0.00     0.312 HD
HETATM   18  H21 UNL     1      26.573   2.470  50.335  1.00  0.00     0.312 HD
ENDBRANCH  15  16
ENDBRANCH   8  15
ENDBRANCH   7   8
ENDBRANCH   1   7
BRANCH   6  19
HETATM   19  N5  UNL     1      23.073   0.613  51.973  1.00  0.00    -0.340 N 
HETATM   20  H11 UNL     1      22.924   0.035  51.125  1.00  0.00     0.167 HD
BRANCH  19  21
HETATM   21  C11 UNL     1      23.263   2.008  51.797  1.00  0.00     0.034 A 
HETATM   22  C12 UNL     1      23.373   2.954  52.790  1.00  0.00     0.032 A 
HETATM   23  C13 UNL     1      23.558   4.294  52.540  1.00  0.00     0.035 A 
HETATM   24  C14 UNL     1      23.647   4.772  51.251  1.00  0.00     0.066 A 
HETATM   25  N6  UNL     1      23.827   6.067  50.949  1.00  0.00    -0.260 NA
HETATM   26  C18 UNL     1      23.539   3.849  50.235  1.00  0.00    -0.005 A 
HETATM   27  C15 UNL     1      23.913   6.535  49.691  1.00  0.00     0.117 A 
HETATM   28  C16 UNL     1      23.808   5.617  48.660  1.00  0.00     0.020 A 
HETATM   29  C17 UNL     1      23.619   4.262  48.913  1.00  0.00     0.015 A 
HETATM   30  C19 UNL     1      23.355   2.518  50.521  1.00  0.00     0.043 A 
ENDBRANCH  19  21
ENDBRANCH   6  19
TORSDOF 7
ENDMDL
MODEL 6
REMARK VINA RESULT:      -7.5      3.989      6.131
REMARK  7 active torsions:
REMARK  status: ('A' for Active; 'I' for Inactive)
REMARK    1  A    between atoms: C2_2  and  N1_3 
REMARK    2  A    between atoms: C5_7  and  C6_8 
REMARK    3  A    between atoms: C5_7  and  C20_26 
REMARK    4  A    between atoms: C6_8  and  C7_9 
REMARK    5  A    between atoms: C10_14  and  N5_15 
REMARK    6  A    between atoms: N5_15  and  C11_16 
REMARK    7  A    between atoms: C20_26  and  N7_27 
ROOT
HETATM    1  C7  UNL     1      21.187  -0.133  52.864  1.00  0.00     0.006 A 
HETATM    2  C8  UNL     1      20.301  -0.915  53.810  1.00  0.00     0.192 A 
HETATM    3  N3  UNL     1      21.082  -1.486  54.811  1.00  0.00    -0.278 NA
HETATM    4  C9  UNL     1      22.303  -1.485  55.081  1.00  0.00     0.229 A 
HETATM    5  N4  UNL     1      23.143  -0.756  54.213  1.00  0.00    -0.224 NA
HETATM    6  C10 UNL     1      22.633  -0.142  53.206  1.00  0.00     0.137 A 
ENDROOT
BRANCH   1   7
HETATM    7  C6  UNL     1      20.844   0.579  51.785  1.00  0.00     0.021 C 
BRANCH   7   8
HETATM    8  C5  UNL     1      20.549   1.401  50.631  1.00  0.00     0.103 A 
HETATM    9  N1  UNL     1      20.746   2.824  50.882  1.00  0.00    -0.270 N 
HETATM   10  N2  UNL     1      19.631   3.584  50.474  1.00  0.00    -0.189 NA
HETATM   11  C3  UNL     1      18.724   2.769  50.006  1.00  0.00     0.114 A 
HETATM   12  C4  UNL     1      19.154   1.348  50.055  1.00  0.00     0.087 A 
BRANCH   9  13
HETATM   13  C2  UNL     1      21.811   3.581  51.442  1.00  0.00     0.087 C 
HETATM   14  C1  UNL     1      22.402   4.757  51.206  1.00  0.00     0.051 C 
ENDBRANCH   9  13
BRANCH   8  15
HETATM   15  C20 UNL     1      21.512   1.049  49.485  1.00  0.00     0.304 C 
BRANCH  15  16
HETATM   16  N7  UNL     1      20.962   1.584  48.282  1.00  0.00     0.081 N 
HETATM   17  H20 UNL     1      20.172   2.241  48.434  1.00  0.00     0.312 HD
HETATM   18  H21 UNL     1      20.641   0.825  47.639  1.00  0.00     0.312 HD
ENDBRANCH  15  16
ENDBRANCH   8  15
ENDBRANCH   7   8
ENDBRANCH   1   7
BRANCH   6  19
HETATM   19  N5  UNL     1      23.628   0.553  52.451  1.00  0.00    -0.340 N 
HETATM   20  H11 UNL     1      23.301   0.935  51.545  1.00  0.00     0.167 HD
BRANCH  19  21
HETATM   21  C11 UNL     1      24.983   0.773  52.812  1.00  0.00     0.034 A 
HETATM   22  C12 UNL     1      25.538   1.957  53.238  1.00  0.00     0.032 A 
HETATM   23  C13 UNL     1      26.866   2.092  53.572  1.00  0.00     0.035 A 
HETATM   24  C14 UNL     1      27.731   1.023  53.497  1.00  0.00     0.066 A 
HETATM   25  N6  UNL     1      29.033   1.096  53.810  1.00  0.00    -0.260 NA
HETATM   26  C18 UNL     1      27.205  -0.177  53.072  1.00  0.00    -0.005 A 
HETATM   27  C15 UNL     1      29.879   0.054  53.737  1.00  0.00     0.117 A 
HETATM   28  C16 UNL     1      29.363  -1.158  53.312  1.00  0.00     0.020 A 
HETATM   29  C17 UNL     1      28.020  -1.295  52.973  1.00  0.00     0.015 A 
HETATM   30  C19 UNL     1      25.873  -0.275  52.747  1.00  0.00     0.043 A 
ENDBRANCH  19  21
ENDBRANCH   6  19
TORSDOF 7
ENDMDL
MODEL 7
REMARK VINA RESULT:      -7.5      1.990      4.890
REMARK  7 active torsions:
REMARK  status: ('A' for Active; 'I' for Inactive)
REMARK    1  A    between atoms: C2_2  and  N1_3 
REMARK    2  A    between atoms: C5_7  and  C6_8 
REMARK    3  A    between atoms: C5_7  and  C20_26 
REMARK    4  A    between atoms: C6_8  and  C7_9 
REMARK    5  A    between atoms: C10_14  and  N5_15 
REMARK    6  A    between atoms: N5_15  and  C11_16 
REMARK    7  A    between atoms: C20_26  and  N7_27 
ROOT
HETATM    1  C7  UNL     1      23.036  -0.102  53.035  1.00  0.00     0.006 A 
HETATM    2  C8  UNL     1      22.171  -0.847  54.030  1.00  0.00     0.192 A 
HETATM    3  N3  UNL     1      20.830  -0.658  53.710  1.00  0.00    -0.278 NA
HETATM    4  C9  UNL     1      20.219  -0.034  52.815  1.00  0.00     0.229 A 
HETATM    5  N4  UNL     1      21.010   0.661  51.875  1.00  0.00    -0.224 NA
HETATM    6  C10 UNL     1      22.291   0.628  51.978  1.00  0.00     0.137 A 
ENDROOT
BRANCH   1   7
HETATM    7  C6  UNL     1      24.370  -0.034  52.967  1.00  0.00     0.021 C 
BRANCH   7   8
HETATM    8  C5  UNL     1      25.815   0.051  52.985  1.00  0.00     0.103 A 
HETATM    9  N1  UNL     1      26.345   0.417  54.293  1.00  0.00    -0.270 N 
HETATM   10  N2  UNL     1      27.269   1.478  54.203  1.00  0.00    -0.189 NA
HETATM   11  C3  UNL     1      27.359   1.841  52.952  1.00  0.00     0.114 A 
HETATM   12  C4  UNL     1      26.483   1.040  52.059  1.00  0.00     0.087 A 
BRANCH   9  13
HETATM   13  C2  UNL     1      26.123  -0.069  55.610  1.00  0.00     0.087 C 
HETATM   14  C1  UNL     1      25.262  -0.896  56.214  1.00  0.00     0.051 C 
ENDBRANCH   9  13
BRANCH   8  15
HETATM   15  C20 UNL     1      26.419  -1.327  52.668  1.00  0.00     0.304 C 
BRANCH  15  16
HETATM   16  N7  UNL     1      27.747  -1.344  53.189  1.00  0.00     0.081 N 
HETATM   17  H20 UNL     1      28.397  -1.964  52.668  1.00  0.00     0.312 HD
HETATM   18  H21 UNL     1      27.758  -1.626  54.195  1.00  0.00     0.312 HD
ENDBRANCH  15  16
ENDBRANCH   8  15
ENDBRANCH   7   8
ENDBRANCH   1   7
BRANCH   6  19
HETATM   19  N5  UNL     1      22.924   1.371  50.935  1.00  0.00    -0.340 N 
HETATM   20  H11 UNL     1      23.087   0.842  50.059  1.00  0.00     0.167 HD
BRANCH  19  21
HETATM   21  C11 UNL     1      23.335   2.729  50.974  1.00  0.00     0.034 A 
HETATM   22  C12 UNL     1      22.847   3.712  51.803  1.00  0.00     0.032 A 
HETATM   23  C13 UNL     1      23.300   5.011  51.782  1.00  0.00     0.035 A 
HETATM   24  C14 UNL     1      24.290   5.407  50.911  1.00  0.00     0.066 A 
HETATM   25  N6  UNL     1      24.770   6.658  50.848  1.00  0.00    -0.260 NA
HETATM   26  C18 UNL     1      24.799   4.444  50.067  1.00  0.00    -0.005 A 
HETATM   27  C15 UNL     1      25.736   7.045  49.997  1.00  0.00     0.117 A 
HETATM   28  C16 UNL     1      26.256   6.087  49.144  1.00  0.00     0.020 A 
HETATM   29  C17 UNL     1      25.798   4.774  49.163  1.00  0.00     0.015 A 
HETATM   30  C19 UNL     1      24.323   3.156  50.115  1.00  0.00     0.043 A 
ENDBRANCH  19  21
ENDBRANCH   6  19
TORSDOF 7
ENDMDL
MODEL 8
REMARK VINA RESULT:      -7.4      1.675      5.834
REMARK  7 active torsions:
REMARK  status: ('A' for Active; 'I' for Inactive)
REMARK    1  A    between atoms: C2_2  and  N1_3 
REMARK    2  A    between atoms: C5_7  and  C6_8 
REMARK    3  A    between atoms: C5_7  and  C20_26 
REMARK    4  A    between atoms: C6_8  and  C7_9 
REMARK    5  A    between atoms: C10_14  and  N5_15 
REMARK    6  A    between atoms: N5_15  and  C11_16 
REMARK    7  A    between atoms: C20_26  and  N7_27 
ROOT
HETATM    1  C7  UNL     1      25.142   4.695  49.186  1.00  0.00     0.006 A 
HETATM    2  C8  UNL     1      25.336   6.101  48.659  1.00  0.00     0.192 A 
HETATM    3  N3  UNL     1      26.693   6.336  48.455  1.00  0.00    -0.278 NA
HETATM    4  C9  UNL     1      27.735   5.660  48.606  1.00  0.00     0.229 A 
HETATM    5  N4  UNL     1      27.571   4.345  49.091  1.00  0.00    -0.224 NA
HETATM    6  C10 UNL     1      26.391   3.909  49.353  1.00  0.00     0.137 A 
ENDROOT
BRANCH   1   7
HETATM    7  C6  UNL     1      24.004   4.063  49.494  1.00  0.00     0.021 C 
BRANCH   7   8
HETATM    8  C5  UNL     1      22.729   3.435  49.768  1.00  0.00     0.103 A 
HETATM    9  N1  UNL     1      22.621   2.943  51.137  1.00  0.00    -0.270 N 
HETATM   10  N2  UNL     1      22.170   1.608  51.176  1.00  0.00    -0.189 NA
HETATM   11  C3  UNL     1      22.003   1.193  49.950  1.00  0.00     0.114 A 
HETATM   12  C4  UNL     1      22.333   2.234  48.943  1.00  0.00     0.087 A 
BRANCH   9  13
HETATM   13  C2  UNL     1      22.873   3.525  52.409  1.00  0.00     0.087 C 
HETATM   14  C1  UNL     1      23.927   4.026  53.063  1.00  0.00     0.051 C 
ENDBRANCH   9  13
BRANCH   8  15
HETATM   15  C20 UNL     1      21.600   4.467  49.613  1.00  0.00     0.304 C 
BRANCH  15  16
HETATM   16  N7  UNL     1      21.689   5.007  48.294  1.00  0.00     0.081 N 
HETATM   17  H20 UNL     1      21.468   6.020  48.237  1.00  0.00     0.312 HD
HETATM   18  H21 UNL     1      21.065   4.495  47.630  1.00  0.00     0.312 HD
ENDBRANCH  15  16
ENDBRANCH   8  15
ENDBRANCH   7   8
ENDBRANCH   1   7
BRANCH   6  19
HETATM   19  N5  UNL     1      26.418   2.557  49.816  1.00  0.00    -0.340 N 
HETATM   20  H11 UNL     1      26.342   1.840  49.072  1.00  0.00     0.167 HD
BRANCH  19  21
HETATM   21  C11 UNL     1      26.540   2.110  51.157  1.00  0.00     0.034 A 
HETATM   22  C12 UNL     1      27.458   2.540  52.087  1.00  0.00     0.032 A 
HETATM   23  C13 UNL     1      27.514   2.057  53.374  1.00  0.00     0.035 A 
HETATM   24  C14 UNL     1      26.632   1.094  53.812  1.00  0.00     0.066 A 
HETATM   25  N6  UNL     1      26.640   0.588  55.054  1.00  0.00    -0.260 NA
HETATM   26  C18 UNL     1      25.701   0.642  52.903  1.00  0.00    -0.005 A 
HETATM   27  C15 UNL     1      25.780  -0.353  55.482  1.00  0.00     0.117 A 
HETATM   28  C16 UNL     1      24.839  -0.815  54.579  1.00  0.00     0.020 A 
HETATM   29  C17 UNL     1      24.782  -0.328  53.277  1.00  0.00     0.015 A 
HETATM   30  C19 UNL     1      25.674   1.147  51.625  1.00  0.00     0.043 A 
ENDBRANCH  19  21
ENDBRANCH   6  19
TORSDOF 7
ENDMDL
MODEL 9
REMARK VINA RESULT:      -7.4      2.402      7.604
REMARK  7 active torsions:
REMARK  status: ('A' for Active; 'I' for Inactive)
REMARK    1  A    between atoms: C2_2  and  N1_3 
REMARK    2  A    between atoms: C5_7  and  C6_8 
REMARK    3  A    between atoms: C5_7  and  C20_26 
REMARK    4  A    between atoms: C6_8  and  C7_9 
REMARK    5  A    between atoms: C10_14  and  N5_15 
REMARK    6  A    between atoms: N5_15  and  C11_16 
REMARK    7  A    between atoms: C20_26  and  N7_27 
ROOT
HETATM    1  C7  UNL     1      25.260   1.264  51.921  1.00  0.00     0.006 A 
HETATM    2  C8  UNL     1      26.568   0.670  51.443  1.00  0.00     0.192 A 
HETATM    3  N3  UNL     1      26.922  -0.394  52.268  1.00  0.00    -0.278 NA
HETATM    4  C9  UNL     1      26.409  -0.937  53.272  1.00  0.00     0.229 A 
HETATM    5  N4  UNL     1      25.187  -0.399  53.727  1.00  0.00    -0.224 NA
HETATM    6  C10 UNL     1      24.666   0.601  53.110  1.00  0.00     0.137 A 
ENDROOT
BRANCH   1   7
HETATM    7  C6  UNL     1      24.560   2.281  51.405  1.00  0.00     0.021 C 
BRANCH   7   8
HETATM    8  C5  UNL     1      23.815   3.343  50.763  1.00  0.00     0.103 A 
HETATM    9  N1  UNL     1      24.636   4.509  50.461  1.00  0.00    -0.270 N 
HETATM   10  N2  UNL     1      24.034   5.701  50.912  1.00  0.00    -0.189 NA
HETATM   11  C3  UNL     1      22.908   5.397  51.501  1.00  0.00     0.114 A 
HETATM   12  C4  UNL     1      22.639   3.937  51.501  1.00  0.00     0.087 A 
BRANCH   9  13
HETATM   13  C2  UNL     1      25.892   4.683  49.818  1.00  0.00     0.087 C 
HETATM   14  C1  UNL     1      26.862   3.895  49.340  1.00  0.00     0.051 C 
ENDBRANCH   9  13
BRANCH   8  15
HETATM   15  C20 UNL     1      23.282   2.853  49.406  1.00  0.00     0.304 C 
BRANCH  15  16
HETATM   16  N7  UNL     1      22.333   1.819  49.665  1.00  0.00     0.081 N 
HETATM   17  H20 UNL     1      22.620   1.161  50.415  1.00  0.00     0.312 HD
HETATM   18  H21 UNL     1      22.128   1.266  48.803  1.00  0.00     0.312 HD
ENDBRANCH  15  16
ENDBRANCH   8  15
ENDBRANCH   7   8
ENDBRANCH   1   7
BRANCH   6  19
HETATM   19  N5  UNL     1      23.426   0.998  53.700  1.00  0.00    -0.340 N 
HETATM   20  H11 UNL     1      23.448   1.912  54.188  1.00  0.00     0.167 HD
BRANCH  19  21
HETATM   21  C11 UNL     1      22.198   0.288  53.679  1.00  0.00     0.034 A 
HETATM   22  C12 UNL     1      21.873  -0.816  54.433  1.00  0.00     0.032 A 
HETATM   23  C13 UNL     1      20.655  -1.451  54.357  1.00  0.00     0.035 A 
HETATM   24  C14 UNL     1      19.672  -1.006  53.502  1.00  0.00     0.066 A 
HETATM   25  N6  UNL     1      18.467  -1.585  53.388  1.00  0.00    -0.260 NA
HETATM   26  C18 UNL     1      19.967   0.098  52.733  1.00  0.00    -0.005 A 
HETATM   27  C15 UNL     1      17.506  -1.151  52.553  1.00  0.00     0.117 A 
HETATM   28  C16 UNL     1      17.790  -0.043  51.775  1.00  0.00     0.020 A 
HETATM   29  C17 UNL     1      19.022   0.600  51.850  1.00  0.00     0.015 A 
HETATM   30  C19 UNL     1      21.194   0.708  52.834  1.00  0.00     0.043 A 
ENDBRANCH  19  21
ENDBRANCH   6  19
TORSDOF 7
ENDMDL
