MODEL 1
REMARK VINA RESULT:      -6.6      0.000      0.000
REMARK  9 active torsions:
REMARK  status: ('A' for Active; 'I' for Inactive)
REMARK    1  A    between atoms: C3_3  and  C4_4 
REMARK    2  A    between atoms: C4_4  and  N1_5 
REMARK    3  A    between atoms: N2_8  and  N3_9 
REMARK    4  A    between atoms: N3_9  and  C7_10 
REMARK    5  A    between atoms: C7_10  and  C8_11 
REMARK    6  A    between atoms: C8_11  and  C9_12 
REMARK    7  A    between atoms: C9_12  and  C10_13 
REMARK    8  A    between atoms: C10_13  and  N4_14 
REMARK    9  A    between atoms: C13_17  and  C14_18 
ROOT
HETATM    1  N3  UNL     1      20.054   0.222  52.439  1.00  0.00    -0.243 NA
HETATM    2  H12 UNL     1      20.227  -0.648  51.889  1.00  0.00     0.146 HD
ENDROOT
BRANCH   1   3
HETATM    3  N2  UNL     1      20.396   1.294  51.586  1.00  0.00    -0.345 N 
HETATM    4  C6  UNL     1      20.788   2.426  52.330  1.00  0.00     0.167 C 
HETATM    5  C5  UNL     1      21.634   3.374  51.549  1.00  0.00     0.293 C 
HETATM    6  N1  UNL     1      22.782   2.611  51.103  1.00  0.00     0.095 N 
HETATM    7  C17 UNL     1      22.316   1.738  50.084  1.00  0.00     0.293 C 
HETATM    8  C16 UNL     1      21.139   0.903  50.460  1.00  0.00     0.167 C 
BRANCH   6   9
HETATM    9  C4  UNL     1      23.836   3.452  50.618  1.00  0.00     0.299 C 
BRANCH   9  10
HETATM   10  C3  UNL     1      25.167   2.833  50.792  1.00  0.00    -0.002 C 
HETATM   11  C2  UNL     1      26.389   3.007  50.319  1.00  0.00    -0.033 C 
HETATM   12  C1  UNL     1      26.854   4.004  49.342  1.00  0.00     0.036 C 
ENDBRANCH   9  10
ENDBRANCH   6   9
ENDBRANCH   1   3
BRANCH   1  13
HETATM   13  C7  UNL     1      20.981   0.225  53.549  1.00  0.00     0.110 C 
BRANCH  13  14
HETATM   14  C8  UNL     1      22.105  -0.769  53.348  1.00  0.00     0.018 C 
BRANCH  14  15
HETATM   15  C9  UNL     1      23.468  -0.167  53.368  1.00  0.00     0.023 C 
BRANCH  15  16
HETATM   16  C10 UNL     1      24.309  -0.800  54.456  1.00  0.00     0.145 C 
BRANCH  16  17
HETATM   17  N4  UNL     1      25.717  -0.620  54.230  1.00  0.00    -0.302 N 
HETATM   18  C11 UNL     1      26.089  -1.151  52.936  1.00  0.00     0.172 A 
HETATM   19  C12 UNL     1      27.543  -0.913  52.754  1.00  0.00     0.005 A 
HETATM   20  C13 UNL     1      28.399  -0.343  53.584  1.00  0.00    -0.013 A 
HETATM   21  C15 UNL     1      27.816   0.120  54.858  1.00  0.00     0.147 A 
HETATM   22  N5  UNL     1      26.552  -0.009  55.166  1.00  0.00    -0.189 NA
BRANCH  20  23
HETATM   23  C14 UNL     1      29.852  -0.074  53.475  1.00  0.00     0.262 C 
HETATM   24  F1  UNL     1      30.591  -1.165  53.924  1.00  0.00    -0.251 F 
ENDBRANCH  20  23
ENDBRANCH  16  17
ENDBRANCH  15  16
ENDBRANCH  14  15
ENDBRANCH  13  14
ENDBRANCH   1  13
TORSDOF 9
ENDMDL
MODEL 2
REMARK VINA RESULT:      -6.2      2.945      6.321
REMARK  9 active torsions:
REMARK  status: ('A' for Active; 'I' for Inactive)
REMARK    1  A    between atoms: C3_3  and  C4_4 
REMARK    2  A    between atoms: C4_4  and  N1_5 
REMARK    3  A    between atoms: N2_8  and  N3_9 
REMARK    4  A    between atoms: N3_9  and  C7_10 
REMARK    5  A    between atoms: C7_10  and  C8_11 
REMARK    6  A    between atoms: C8_11  and  C9_12 
REMARK    7  A    between atoms: C9_12  and  C10_13 
REMARK    8  A    between atoms: C10_13  and  N4_14 
REMARK    9  A    between atoms: C13_17  and  C14_18 
ROOT
HETATM    1  N3  UNL     1      22.358   1.100  51.594  1.00  0.00    -0.243 NA
HETATM    2  H12 UNL     1      21.477   1.083  52.154  1.00  0.00     0.146 HD
ENDROOT
BRANCH   1   3
HETATM    3  N2  UNL     1      23.413   1.049  52.531  1.00  0.00    -0.345 N 
HETATM    4  C6  UNL     1      23.399  -0.167  53.243  1.00  0.00     0.167 C 
HETATM    5  C5  UNL     1      24.722  -0.511  53.838  1.00  0.00     0.293 C 
HETATM    6  N1  UNL     1      25.658  -0.558  52.734  1.00  0.00     0.095 N 
HETATM    7  C17 UNL     1      25.869   0.788  52.326  1.00  0.00     0.293 C 
HETATM    8  C16 UNL     1      24.626   1.561  52.040  1.00  0.00     0.167 C 
BRANCH   6   9
HETATM    9  C4  UNL     1      26.894  -1.185  53.096  1.00  0.00     0.299 C 
BRANCH   9  10
HETATM   10  C3  UNL     1      27.715  -0.328  53.978  1.00  0.00    -0.002 C 
HETATM   11  C2  UNL     1      29.001  -0.099  54.188  1.00  0.00    -0.033 C 
HETATM   12  C1  UNL     1      30.156  -0.713  53.517  1.00  0.00     0.036 C 
ENDBRANCH   9  10
ENDBRANCH   6   9
ENDBRANCH   1   3
BRANCH   1  13
HETATM   13  C7  UNL     1      22.421   2.380  50.924  1.00  0.00     0.110 C 
BRANCH  13  14
HETATM   14  C8  UNL     1      22.256   2.240  49.425  1.00  0.00     0.018 C 
BRANCH  14  15
HETATM   15  C9  UNL     1      23.037   3.227  48.627  1.00  0.00     0.023 C 
BRANCH  15  16
HETATM   16  C10 UNL     1      23.504   4.366  49.508  1.00  0.00     0.145 C 
BRANCH  16  17
HETATM   17  N4  UNL     1      24.839   4.792  49.185  1.00  0.00    -0.302 N 
HETATM   18  C11 UNL     1      25.783   3.728  49.453  1.00  0.00     0.172 A 
HETATM   19  C12 UNL     1      27.133   4.220  49.078  1.00  0.00     0.005 A 
HETATM   20  C13 UNL     1      27.479   5.402  48.599  1.00  0.00    -0.013 A 
HETATM   21  C15 UNL     1      26.363   6.349  48.410  1.00  0.00     0.147 A 
HETATM   22  N5  UNL     1      25.117   6.065  48.687  1.00  0.00    -0.189 NA
BRANCH  20  23
HETATM   23  C14 UNL     1      28.793   5.962  48.205  1.00  0.00     0.262 C 
HETATM   24  F1  UNL     1      28.632   7.003  47.293  1.00  0.00    -0.251 F 
ENDBRANCH  20  23
ENDBRANCH  16  17
ENDBRANCH  15  16
ENDBRANCH  14  15
ENDBRANCH  13  14
ENDBRANCH   1  13
TORSDOF 9
ENDMDL
MODEL 3
REMARK VINA RESULT:      -6.2      3.145      5.053
REMARK  9 active torsions:
REMARK  status: ('A' for Active; 'I' for Inactive)
REMARK    1  A    between atoms: C3_3  and  C4_4 
REMARK    2  A    between atoms: C4_4  and  N1_5 
REMARK    3  A    between atoms: N2_8  and  N3_9 
REMARK    4  A    between atoms: N3_9  and  C7_10 
REMARK    5  A    between atoms: C7_10  and  C8_11 
REMARK    6  A    between atoms: C8_11  and  C9_12 
REMARK    7  A    between atoms: C9_12  and  C10_13 
REMARK    8  A    between atoms: C10_13  and  N4_14 
REMARK    9  A    between atoms: C13_17  and  C14_18 
ROOT
HETATM    1  N3  UNL     1      25.109   5.028  50.856  1.00  0.00    -0.243 NA
HETATM    2  H12 UNL     1      24.229   5.586  50.912  1.00  0.00     0.146 HD
ENDROOT
BRANCH   1   3
HETATM    3  N2  UNL     1      25.612   5.228  49.552  1.00  0.00    -0.345 N 
HETATM    4  C6  UNL     1      25.682   6.602  49.242  1.00  0.00     0.167 C 
HETATM    5  C5  UNL     1      26.652   6.907  48.152  1.00  0.00     0.293 C 
HETATM    6  N1  UNL     1      27.932   6.403  48.603  1.00  0.00     0.095 N 
HETATM    7  C17 UNL     1      27.857   4.985  48.529  1.00  0.00     0.293 C 
HETATM    8  C16 UNL     1      26.684   4.381  49.225  1.00  0.00     0.167 C 
BRANCH   6   9
HETATM    9  C4  UNL     1      29.020   6.901  47.814  1.00  0.00     0.299 C 
BRANCH   9  10
HETATM   10  C3  UNL     1      30.168   5.970  47.799  1.00  0.00    -0.002 C 
HETATM   11  C2  UNL     1      31.453   6.007  48.111  1.00  0.00    -0.033 C 
HETATM   12  C1  UNL     1      32.230   7.140  48.636  1.00  0.00     0.036 C 
ENDBRANCH   9  10
ENDBRANCH   6   9
ENDBRANCH   1   3
BRANCH   1  13
HETATM   13  C7  UNL     1      24.746   3.633  50.981  1.00  0.00     0.110 C 
BRANCH  13  14
HETATM   14  C8  UNL     1      24.091   3.339  52.314  1.00  0.00     0.018 C 
BRANCH  14  15
HETATM   15  C9  UNL     1      24.440   2.009  52.888  1.00  0.00     0.023 C 
BRANCH  15  16
HETATM   16  C10 UNL     1      25.532   2.152  53.926  1.00  0.00     0.145 C 
BRANCH  16  17
HETATM   17  N4  UNL     1      26.542   1.136  53.798  1.00  0.00    -0.302 N 
HETATM   18  C11 UNL     1      26.085   0.084  52.916  1.00  0.00     0.172 A 
HETATM   19  C12 UNL     1      27.176  -0.917  52.807  1.00  0.00     0.005 A 
HETATM   20  C13 UNL     1      28.361  -0.916  53.392  1.00  0.00    -0.013 A 
HETATM   21  C15 UNL     1      28.625   0.247  54.263  1.00  0.00     0.147 A 
HETATM   22  N5  UNL     1      27.769   1.215  54.458  1.00  0.00    -0.189 NA
BRANCH  20  23
HETATM   23  C14 UNL     1      29.493  -1.870  53.334  1.00  0.00     0.262 C 
HETATM   24  F1  UNL     1      30.554  -1.425  54.119  1.00  0.00    -0.251 F 
ENDBRANCH  20  23
ENDBRANCH  16  17
ENDBRANCH  15  16
ENDBRANCH  14  15
ENDBRANCH  13  14
ENDBRANCH   1  13
TORSDOF 9
ENDMDL
MODEL 4
REMARK VINA RESULT:      -6.1      2.671      3.918
REMARK  9 active torsions:
REMARK  status: ('A' for Active; 'I' for Inactive)
REMARK    1  A    between atoms: C3_3  and  C4_4 
REMARK    2  A    between atoms: C4_4  and  N1_5 
REMARK    3  A    between atoms: N2_8  and  N3_9 
REMARK    4  A    between atoms: N3_9  and  C7_10 
REMARK    5  A    between atoms: C7_10  and  C8_11 
REMARK    6  A    between atoms: C8_11  and  C9_12 
REMARK    7  A    between atoms: C9_12  and  C10_13 
REMARK    8  A    between atoms: C10_13  and  N4_14 
REMARK    9  A    between atoms: C13_17  and  C14_18 
ROOT
HETATM    1  N3  UNL     1      22.886   5.651  52.023  1.00  0.00    -0.243 NA
HETATM    2  H12 UNL     1      21.953   5.807  52.464  1.00  0.00     0.146 HD
ENDROOT
BRANCH   1   3
HETATM    3  N2  UNL     1      22.846   6.324  50.783  1.00  0.00    -0.345 N 
HETATM    4  C6  UNL     1      23.584   7.525  50.835  1.00  0.00     0.167 C 
HETATM    5  C5  UNL     1      24.019   8.003  49.492  1.00  0.00     0.293 C 
HETATM    6  N1  UNL     1      24.802   6.928  48.918  1.00  0.00     0.095 N 
HETATM    7  C17 UNL     1      23.883   5.900  48.572  1.00  0.00     0.293 C 
HETATM    8  C16 UNL     1      22.973   5.471  49.674  1.00  0.00     0.167 C 
BRANCH   6   9
HETATM    9  C4  UNL     1      25.552   7.353  47.774  1.00  0.00     0.299 C 
BRANCH   9  10
HETATM   10  C3  UNL     1      27.007   7.180  47.967  1.00  0.00    -0.002 C 
HETATM   11  C2  UNL     1      27.832   6.210  48.326  1.00  0.00    -0.033 C 
HETATM   12  C1  UNL     1      27.502   4.824  48.691  1.00  0.00     0.036 C 
ENDBRANCH   9  10
ENDBRANCH   6   9
ENDBRANCH   1   3
BRANCH   1  13
HETATM   13  C7  UNL     1      23.007   4.235  51.754  1.00  0.00     0.110 C 
BRANCH  13  14
HETATM   14  C8  UNL     1      23.967   3.559  52.710  1.00  0.00     0.018 C 
BRANCH  14  15
HETATM   15  C9  UNL     1      24.360   2.178  52.310  1.00  0.00     0.023 C 
BRANCH  15  16
HETATM   16  C10 UNL     1      24.548   1.308  53.534  1.00  0.00     0.145 C 
BRANCH  16  17
HETATM   17  N4  UNL     1      25.854   0.708  53.580  1.00  0.00    -0.302 N 
HETATM   18  C11 UNL     1      25.887  -0.484  52.760  1.00  0.00     0.172 A 
HETATM   19  C12 UNL     1      27.262  -1.040  52.830  1.00  0.00     0.005 A 
HETATM   20  C13 UNL     1      28.304  -0.589  53.508  1.00  0.00    -0.013 A 
HETATM   21  C15 UNL     1      28.053   0.637  54.291  1.00  0.00     0.147 A 
HETATM   22  N5  UNL     1      26.900   1.250  54.328  1.00  0.00    -0.189 NA
BRANCH  20  23
HETATM   23  C14 UNL     1      29.694  -1.084  53.627  1.00  0.00     0.262 C 
HETATM   24  F1  UNL     1      30.604  -0.036  53.501  1.00  0.00    -0.251 F 
ENDBRANCH  20  23
ENDBRANCH  16  17
ENDBRANCH  15  16
ENDBRANCH  14  15
ENDBRANCH  13  14
ENDBRANCH   1  13
TORSDOF 9
ENDMDL
MODEL 5
REMARK VINA RESULT:      -6.1      4.606      7.733
REMARK  9 active torsions:
REMARK  status: ('A' for Active; 'I' for Inactive)
REMARK    1  A    between atoms: C3_3  and  C4_4 
REMARK    2  A    between atoms: C4_4  and  N1_5 
REMARK    3  A    between atoms: N2_8  and  N3_9 
REMARK    4  A    between atoms: N3_9  and  C7_10 
REMARK    5  A    between atoms: C7_10  and  C8_11 
REMARK    6  A    between atoms: C8_11  and  C9_12 
REMARK    7  A    between atoms: C9_12  and  C10_13 
REMARK    8  A    between atoms: C10_13  and  N4_14 
REMARK    9  A    between atoms: C13_17  and  C14_18 
ROOT
HETATM    1  N3  UNL     1      25.301   4.710  50.729  1.00  0.00    -0.243 NA
HETATM    2  H12 UNL     1      26.166   5.109  51.155  1.00  0.00     0.146 HD
ENDROOT
BRANCH   1   3
HETATM    3  N2  UNL     1      25.267   3.353  51.118  1.00  0.00    -0.345 N 
HETATM    4  C6  UNL     1      26.504   2.724  50.870  1.00  0.00     0.167 C 
HETATM    5  C5  UNL     1      26.718   1.505  51.701  1.00  0.00     0.293 C 
HETATM    6  N1  UNL     1      26.612   1.936  53.080  1.00  0.00     0.095 N 
HETATM    7  C17 UNL     1      25.236   2.205  53.315  1.00  0.00     0.293 C 
HETATM    8  C16 UNL     1      24.600   3.133  52.335  1.00  0.00     0.167 C 
BRANCH   6   9
HETATM    9  C4  UNL     1      27.107   0.951  53.995  1.00  0.00     0.299 C 
BRANCH   9  10
HETATM   10  C3  UNL     1      27.440  -0.320  53.318  1.00  0.00    -0.002 C 
HETATM   11  C2  UNL     1      28.503  -1.093  53.170  1.00  0.00    -0.033 C 
HETATM   12  C1  UNL     1      29.857  -0.891  53.707  1.00  0.00     0.036 C 
ENDBRANCH   9  10
ENDBRANCH   6   9
ENDBRANCH   1   3
BRANCH   1  13
HETATM   13  C7  UNL     1      25.465   4.754  49.293  1.00  0.00     0.110 C 
BRANCH  13  14
HETATM   14  C8  UNL     1      26.395   5.870  48.865  1.00  0.00     0.018 C 
BRANCH  14  15
HETATM   15  C9  UNL     1      27.775   5.422  48.527  1.00  0.00     0.023 C 
BRANCH  15  16
HETATM   16  C10 UNL     1      28.599   6.587  48.021  1.00  0.00     0.145 C 
BRANCH  16  17
HETATM   17  N4  UNL     1      30.006   6.399  48.251  1.00  0.00    -0.302 N 
HETATM   18  C11 UNL     1      30.434   5.123  47.719  1.00  0.00     0.172 A 
HETATM   19  C12 UNL     1      31.894   5.001  47.965  1.00  0.00     0.005 A 
HETATM   20  C13 UNL     1      32.706   5.854  48.566  1.00  0.00    -0.013 A 
HETATM   21  C15 UNL     1      32.063   7.093  49.046  1.00  0.00     0.147 A 
HETATM   22  N5  UNL     1      30.791   7.353  48.900  1.00  0.00    -0.189 NA
BRANCH  20  23
HETATM   23  C14 UNL     1      34.159   5.803  48.847  1.00  0.00     0.262 C 
HETATM   24  F1  UNL     1      34.690   4.569  48.477  1.00  0.00    -0.251 F 
ENDBRANCH  20  23
ENDBRANCH  16  17
ENDBRANCH  15  16
ENDBRANCH  14  15
ENDBRANCH  13  14
ENDBRANCH   1  13
TORSDOF 9
ENDMDL
MODEL 6
REMARK VINA RESULT:      -6.0      2.813      5.247
REMARK  9 active torsions:
REMARK  status: ('A' for Active; 'I' for Inactive)
REMARK    1  A    between atoms: C3_3  and  C4_4 
REMARK    2  A    between atoms: C4_4  and  N1_5 
REMARK    3  A    between atoms: N2_8  and  N3_9 
REMARK    4  A    between atoms: N3_9  and  C7_10 
REMARK    5  A    between atoms: C7_10  and  C8_11 
REMARK    6  A    between atoms: C8_11  and  C9_12 
REMARK    7  A    between atoms: C9_12  and  C10_13 
REMARK    8  A    between atoms: C10_13  and  N4_14 
REMARK    9  A    between atoms: C13_17  and  C14_18 
ROOT
HETATM    1  N3  UNL     1      25.749   5.405  50.366  1.00  0.00    -0.243 NA
HETATM    2  H12 UNL     1      25.791   4.856  51.253  1.00  0.00     0.146 HD
ENDROOT
BRANCH   1   3
HETATM    3  N2  UNL     1      24.402   5.801  50.218  1.00  0.00    -0.345 N 
HETATM    4  C6  UNL     1      23.841   5.261  49.043  1.00  0.00     0.167 C 
HETATM    5  C5  UNL     1      22.353   5.189  49.084  1.00  0.00     0.293 C 
HETATM    6  N1  UNL     1      22.023   4.386  50.243  1.00  0.00     0.095 N 
HETATM    7  C17 UNL     1      22.302   5.188  51.383  1.00  0.00     0.293 C 
HETATM    8  C16 UNL     1      23.673   5.775  51.419  1.00  0.00     0.167 C 
BRANCH   6   9
HETATM    9  C4  UNL     1      20.655   3.961  50.237  1.00  0.00     0.299 C 
BRANCH   9  10
HETATM   10  C3  UNL     1      20.511   2.541  50.625  1.00  0.00    -0.002 C 
HETATM   11  C2  UNL     1      20.802   1.358  50.109  1.00  0.00    -0.033 C 
HETATM   12  C1  UNL     1      21.441   1.061  48.818  1.00  0.00     0.036 C 
ENDBRANCH   9  10
ENDBRANCH   6   9
ENDBRANCH   1   3
BRANCH   1  13
HETATM   13  C7  UNL     1      26.066   4.502  49.282  1.00  0.00     0.110 C 
BRANCH  13  14
HETATM   14  C8  UNL     1      26.500   3.143  49.789  1.00  0.00     0.018 C 
BRANCH  14  15
HETATM   15  C9  UNL     1      26.051   2.834  51.176  1.00  0.00     0.023 C 
BRANCH  15  16
HETATM   16  C10 UNL     1      26.428   1.416  51.549  1.00  0.00     0.145 C 
BRANCH  16  17
HETATM   17  N4  UNL     1      25.438   0.790  52.383  1.00  0.00    -0.302 N 
HETATM   18  C11 UNL     1      24.109   1.170  51.952  1.00  0.00     0.172 A 
HETATM   19  C12 UNL     1      23.136   0.475  52.833  1.00  0.00     0.005 A 
HETATM   20  C13 UNL     1      23.372  -0.338  53.849  1.00  0.00    -0.013 A 
HETATM   21  C15 UNL     1      24.800  -0.584  54.129  1.00  0.00     0.147 A 
HETATM   22  N5  UNL     1      25.776  -0.053  53.441  1.00  0.00    -0.189 NA
BRANCH  20  23
HETATM   23  C14 UNL     1      22.463  -1.061  54.767  1.00  0.00     0.262 C 
HETATM   24  F1  UNL     1      23.187  -1.864  55.646  1.00  0.00    -0.251 F 
ENDBRANCH  20  23
ENDBRANCH  16  17
ENDBRANCH  15  16
ENDBRANCH  14  15
ENDBRANCH  13  14
ENDBRANCH   1  13
TORSDOF 9
ENDMDL
MODEL 7
REMARK VINA RESULT:      -6.0      2.073      2.803
REMARK  9 active torsions:
REMARK  status: ('A' for Active; 'I' for Inactive)
REMARK    1  A    between atoms: C3_3  and  C4_4 
REMARK    2  A    between atoms: C4_4  and  N1_5 
REMARK    3  A    between atoms: N2_8  and  N3_9 
REMARK    4  A    between atoms: N3_9  and  C7_10 
REMARK    5  A    between atoms: C7_10  and  C8_11 
REMARK    6  A    between atoms: C8_11  and  C9_12 
REMARK    7  A    between atoms: C9_12  and  C10_13 
REMARK    8  A    between atoms: C10_13  and  N4_14 
REMARK    9  A    between atoms: C13_17  and  C14_18 
ROOT
HETATM    1  N3  UNL     1      23.263   2.484  52.413  1.00  0.00    -0.243 NA
HETATM    2  H12 UNL     1      22.892   2.837  53.322  1.00  0.00     0.146 HD
ENDROOT
BRANCH   1   3
HETATM    3  N2  UNL     1      23.079   3.532  51.486  1.00  0.00    -0.345 N 
HETATM    4  C6  UNL     1      23.120   4.787  52.127  1.00  0.00     0.167 C 
HETATM    5  C5  UNL     1      23.454   5.907  51.201  1.00  0.00     0.293 C 
HETATM    6  N1  UNL     1      24.737   5.572  50.616  1.00  0.00     0.095 N 
HETATM    7  C17 UNL     1      24.499   4.508  49.704  1.00  0.00     0.293 C 
HETATM    8  C16 UNL     1      23.766   3.341  50.275  1.00  0.00     0.167 C 
BRANCH   6   9
HETATM    9  C4  UNL     1      25.339   6.690  49.954  1.00  0.00     0.299 C 
BRANCH   9  10
HETATM   10  C3  UNL     1      24.723   6.956  48.637  1.00  0.00    -0.002 C 
HETATM   11  C2  UNL     1      25.093   7.472  47.476  1.00  0.00    -0.033 C 
HETATM   12  C1  UNL     1      26.408   8.012  47.098  1.00  0.00     0.036 C 
ENDBRANCH   9  10
ENDBRANCH   6   9
ENDBRANCH   1   3
BRANCH   1  13
HETATM   13  C7  UNL     1      22.427   1.378  52.003  1.00  0.00     0.110 C 
BRANCH  13  14
HETATM   14  C8  UNL     1      22.365   0.295  53.059  1.00  0.00     0.018 C 
BRANCH  14  15
HETATM   15  C9  UNL     1      23.545  -0.616  53.073  1.00  0.00     0.023 C 
BRANCH  15  16
HETATM   16  C10 UNL     1      24.302  -0.478  54.377  1.00  0.00     0.145 C 
BRANCH  16  17
HETATM   17  N4  UNL     1      25.726  -0.453  54.179  1.00  0.00    -0.302 N 
HETATM   18  C11 UNL     1      26.057  -0.935  52.854  1.00  0.00     0.172 A 
HETATM   19  C12 UNL     1      27.532  -0.861  52.705  1.00  0.00     0.005 A 
HETATM   20  C13 UNL     1      28.434  -0.457  53.582  1.00  0.00    -0.013 A 
HETATM   21  C15 UNL     1      27.886  -0.015  54.880  1.00  0.00     0.147 A 
HETATM   22  N5  UNL     1      26.610  -0.013  55.165  1.00  0.00    -0.189 NA
BRANCH  20  23
HETATM   23  C14 UNL     1      29.910  -0.357  53.507  1.00  0.00     0.262 C 
HETATM   24  F1  UNL     1      30.510  -1.480  54.072  1.00  0.00    -0.251 F 
ENDBRANCH  20  23
ENDBRANCH  16  17
ENDBRANCH  15  16
ENDBRANCH  14  15
ENDBRANCH  13  14
ENDBRANCH   1  13
TORSDOF 9
ENDMDL
MODEL 8
REMARK VINA RESULT:      -5.9      2.676      5.571
REMARK  9 active torsions:
REMARK  status: ('A' for Active; 'I' for Inactive)
REMARK    1  A    between atoms: C3_3  and  C4_4 
REMARK    2  A    between atoms: C4_4  and  N1_5 
REMARK    3  A    between atoms: N2_8  and  N3_9 
REMARK    4  A    between atoms: N3_9  and  C7_10 
REMARK    5  A    between atoms: C7_10  and  C8_11 
REMARK    6  A    between atoms: C8_11  and  C9_12 
REMARK    7  A    between atoms: C9_12  and  C10_13 
REMARK    8  A    between atoms: C10_13  and  N4_14 
REMARK    9  A    between atoms: C13_17  and  C14_18 
ROOT
HETATM    1  N3  UNL     1      22.283   5.948  51.543  1.00  0.00    -0.243 NA
HETATM    2  H12 UNL     1      22.579   6.881  51.180  1.00  0.00     0.146 HD
ENDROOT
BRANCH   1   3
HETATM    3  N2  UNL     1      23.467   5.302  51.961  1.00  0.00    -0.345 N 
HETATM    4  C6  UNL     1      23.181   4.265  52.872  1.00  0.00     0.167 C 
HETATM    5  C5  UNL     1      24.261   3.239  52.946  1.00  0.00     0.293 C 
HETATM    6  N1  UNL     1      24.422   2.729  51.600  1.00  0.00     0.095 N 
HETATM    7  C17 UNL     1      25.056   3.758  50.852  1.00  0.00     0.293 C 
HETATM    8  C16 UNL     1      24.390   5.091  50.924  1.00  0.00     0.167 C 
BRANCH   6   9
HETATM    9  C4  UNL     1      25.190   1.521  51.566  1.00  0.00     0.299 C 
BRANCH   9  10
HETATM   10  C3  UNL     1      25.171   0.812  52.863  1.00  0.00    -0.002 C 
HETATM   11  C2  UNL     1      25.669  -0.304  53.369  1.00  0.00    -0.033 C 
HETATM   12  C1  UNL     1      26.503  -1.313  52.699  1.00  0.00     0.036 C 
ENDBRANCH   9  10
ENDBRANCH   6   9
ENDBRANCH   1   3
BRANCH   1  13
HETATM   13  C7  UNL     1      21.742   5.202  50.428  1.00  0.00     0.110 C 
BRANCH  13  14
HETATM   14  C8  UNL     1      20.249   4.987  50.565  1.00  0.00     0.018 C 
BRANCH  14  15
HETATM   15  C9  UNL     1      19.873   3.773  51.343  1.00  0.00     0.023 C 
BRANCH  15  16
HETATM   16  C10 UNL     1      20.575   2.553  50.787  1.00  0.00     0.145 C 
BRANCH  16  17
HETATM   17  N4  UNL     1      20.859   1.577  51.805  1.00  0.00    -0.302 N 
HETATM   18  C11 UNL     1      21.615   0.476  51.247  1.00  0.00     0.172 A 
HETATM   19  C12 UNL     1      21.896  -0.480  52.348  1.00  0.00     0.005 A 
HETATM   20  C13 UNL     1      21.537  -0.408  53.619  1.00  0.00    -0.013 A 
HETATM   21  C15 UNL     1      20.759   0.794  53.979  1.00  0.00     0.147 A 
HETATM   22  N5  UNL     1      20.436   1.731  53.126  1.00  0.00    -0.189 NA
BRANCH  20  23
HETATM   23  C14 UNL     1      21.776  -1.314  54.765  1.00  0.00     0.262 C 
HETATM   24  F1  UNL     1      23.045  -1.107  55.301  1.00  0.00    -0.251 F 
ENDBRANCH  20  23
ENDBRANCH  16  17
ENDBRANCH  15  16
ENDBRANCH  14  15
ENDBRANCH  13  14
ENDBRANCH   1  13
TORSDOF 9
ENDMDL
MODEL 9
REMARK VINA RESULT:      -5.8      2.053      3.600
REMARK  9 active torsions:
REMARK  status: ('A' for Active; 'I' for Inactive)
REMARK    1  A    between atoms: C3_3  and  C4_4 
REMARK    2  A    between atoms: C4_4  and  N1_5 
REMARK    3  A    between atoms: N2_8  and  N3_9 
REMARK    4  A    between atoms: N3_9  and  C7_10 
REMARK    5  A    between atoms: C7_10  and  C8_11 
REMARK    6  A    between atoms: C8_11  and  C9_12 
REMARK    7  A    between atoms: C9_12  and  C10_13 
REMARK    8  A    between atoms: C10_13  and  N4_14 
REMARK    9  A    between atoms: C13_17  and  C14_18 
ROOT
HETATM    1  N3  UNL     1      21.480   3.571  49.919  1.00  0.00    -0.243 NA
HETATM    2  H12 UNL     1      21.558   2.908  49.116  1.00  0.00     0.146 HD
ENDROOT
BRANCH   1   3
HETATM    3  N2  UNL     1      22.803   3.814  50.349  1.00  0.00    -0.345 N 
HETATM    4  C6  UNL     1      23.737   3.261  49.451  1.00  0.00     0.167 C 
HETATM    5  C5  UNL     1      25.082   3.899  49.538  1.00  0.00     0.293 C 
HETATM    6  N1  UNL     1      24.872   5.309  49.279  1.00  0.00     0.095 N 
HETATM    7  C17 UNL     1      24.229   5.840  50.430  1.00  0.00     0.293 C 
HETATM    8  C16 UNL     1      23.000   5.109  50.857  1.00  0.00     0.167 C 
BRANCH   6   9
HETATM    9  C4  UNL     1      26.099   6.000  49.012  1.00  0.00     0.299 C 
BRANCH   9  10
HETATM   10  C3  UNL     1      27.222   5.068  48.777  1.00  0.00    -0.002 C 
HETATM   11  C2  UNL     1      28.474   5.140  48.356  1.00  0.00    -0.033 C 
HETATM   12  C1  UNL     1      29.225   6.333  47.936  1.00  0.00     0.036 C 
ENDBRANCH   9  10
ENDBRANCH   6   9
ENDBRANCH   1   3
BRANCH   1  13
HETATM   13  C7  UNL     1      20.788   2.880  50.985  1.00  0.00     0.110 C 
BRANCH  13  14
HETATM   14  C8  UNL     1      20.618   1.406  50.685  1.00  0.00     0.018 C 
BRANCH  14  15
HETATM   15  C9  UNL     1      21.660   0.532  51.294  1.00  0.00     0.023 C 
BRANCH  15  16
HETATM   16  C10 UNL     1      21.855   0.883  52.754  1.00  0.00     0.145 C 
BRANCH  16  17
HETATM   17  N4  UNL     1      23.239   0.841  53.143  1.00  0.00    -0.302 N 
HETATM   18  C11 UNL     1      23.560  -0.451  53.712  1.00  0.00     0.172 A 
HETATM   19  C12 UNL     1      25.001  -0.439  54.070  1.00  0.00     0.005 A 
HETATM   20  C13 UNL     1      25.879   0.540  53.936  1.00  0.00    -0.013 A 
HETATM   21  C15 UNL     1      25.342   1.780  53.343  1.00  0.00     0.147 A 
HETATM   22  N5  UNL     1      24.098   1.926  52.969  1.00  0.00    -0.189 NA
BRANCH  20  23
HETATM   23  C14 UNL     1      27.319   0.627  54.267  1.00  0.00     0.262 C 
HETATM   24  F1  UNL     1      27.954  -0.590  54.031  1.00  0.00    -0.251 F 
ENDBRANCH  20  23
ENDBRANCH  16  17
ENDBRANCH  15  16
ENDBRANCH  14  15
ENDBRANCH  13  14
ENDBRANCH   1  13
TORSDOF 9
ENDMDL
