MODEL 1
REMARK VINA RESULT:      -7.2      0.000      0.000
REMARK  7 active torsions:
REMARK  status: ('A' for Active; 'I' for Inactive)
REMARK    1  A    between atoms: N1_2  and  C3_4 
REMARK    2  A    between atoms: C3_4  and  C4_5 
REMARK    3  A    between atoms: C4_5  and  C5_6 
REMARK    4  A    between atoms: C5_6  and  C6_8 
REMARK    5  A    between atoms: C9_11  and  O2_12 
REMARK    6  A    between atoms: O2_12  and  C10_13 
REMARK    7  A    between atoms: C10_13  and  C11_14 
ROOT
HETATM    1  C6  UNL     1      24.694   0.278  53.209  1.00  0.00     0.010 A 
HETATM    2  C7  UNL     1      24.311   1.585  52.966  1.00  0.00     0.018 A 
HETATM    3  C8  UNL     1      25.092   2.440  52.201  1.00  0.00     0.037 A 
HETATM    4  C9  UNL     1      26.295   2.007  51.649  1.00  0.00     0.069 A 
HETATM    5  C17 UNL     1      26.674   0.702  51.896  1.00  0.00     0.037 A 
HETATM    6  C18 UNL     1      25.888  -0.138  52.657  1.00  0.00     0.018 A 
ENDROOT
BRANCH   4   7
HETATM    7  O2  UNL     1      27.003   2.942  50.900  1.00  0.00    -0.347 OA
BRANCH   7   8
HETATM    8  C10 UNL     1      26.582   3.117  49.549  1.00  0.00     0.214 C 
BRANCH   8   9
HETATM    9  C11 UNL     1      26.824   4.534  49.155  1.00  0.00    -0.034 A 
HETATM   10  C12 UNL     1      25.824   5.423  49.456  1.00  0.00     0.009 A 
HETATM   11  C13 UNL     1      25.905   6.763  49.154  1.00  0.00     0.001 A 
HETATM   12  C14 UNL     1      27.034   7.245  48.522  1.00  0.00     0.000 A 
HETATM   13  C15 UNL     1      28.072   6.362  48.203  1.00  0.00     0.001 A 
HETATM   14  C16 UNL     1      27.950   5.006  48.527  1.00  0.00     0.009 A 
ENDBRANCH   8   9
ENDBRANCH   7   8
ENDBRANCH   4   7
BRANCH   1  15
HETATM   15  C5  UNL     1      23.883  -0.606  54.007  1.00  0.00     0.161 C 
HETATM   16  O1  UNL     1      24.407  -1.114  55.038  1.00  0.00    -0.292 OA
BRANCH  15  17
HETATM   17  C4  UNL     1      22.493  -0.908  53.637  1.00  0.00     0.103 C 
BRANCH  17  18
HETATM   18  C3  UNL     1      21.504  -0.412  54.677  1.00  0.00     0.123 C 
BRANCH  18  19
HETATM   19  N1  UNL     1      20.395   0.167  53.998  1.00  0.00    -0.420 N 
HETATM   20  C1  UNL     1      20.688   1.278  53.162  1.00  0.00     0.142 C 
HETATM   21  C2  UNL     1      19.460  -0.790  53.457  1.00  0.00     0.142 C 
ENDBRANCH  18  19
ENDBRANCH  17  18
ENDBRANCH  15  17
ENDBRANCH   1  15
TORSDOF 7
ENDMDL
MODEL 2
REMARK VINA RESULT:      -7.0      2.854      4.224
REMARK  7 active torsions:
REMARK  status: ('A' for Active; 'I' for Inactive)
REMARK    1  A    between atoms: N1_2  and  C3_4 
REMARK    2  A    between atoms: C3_4  and  C4_5 
REMARK    3  A    between atoms: C4_5  and  C5_6 
REMARK    4  A    between atoms: C5_6  and  C6_8 
REMARK    5  A    between atoms: C9_11  and  O2_12 
REMARK    6  A    between atoms: O2_12  and  C10_13 
REMARK    7  A    between atoms: C10_13  and  C11_14 
ROOT
HETATM    1  C6  UNL     1      25.477   1.111  52.535  1.00  0.00     0.010 A 
HETATM    2  C7  UNL     1      26.407   1.524  51.597  1.00  0.00     0.018 A 
HETATM    3  C8  UNL     1      26.295   2.750  50.955  1.00  0.00     0.037 A 
HETATM    4  C9  UNL     1      25.236   3.609  51.236  1.00  0.00     0.069 A 
HETATM    5  C17 UNL     1      24.310   3.191  52.172  1.00  0.00     0.037 A 
HETATM    6  C18 UNL     1      24.434   1.971  52.803  1.00  0.00     0.018 A 
ENDROOT
BRANCH   4   7
HETATM    7  O2  UNL     1      25.215   4.813  50.538  1.00  0.00    -0.347 OA
BRANCH   7   8
HETATM    8  C10 UNL     1      25.326   4.721  49.119  1.00  0.00     0.214 C 
BRANCH   8   9
HETATM    9  C11 UNL     1      26.551   5.451  48.690  1.00  0.00    -0.034 A 
HETATM   10  C12 UNL     1      26.380   6.772  48.358  1.00  0.00     0.009 A 
HETATM   11  C13 UNL     1      27.419   7.574  47.944  1.00  0.00     0.001 A 
HETATM   12  C14 UNL     1      28.689   7.041  47.854  1.00  0.00     0.000 A 
HETATM   13  C15 UNL     1      28.894   5.696  48.185  1.00  0.00     0.001 A 
HETATM   14  C16 UNL     1      27.811   4.914  48.602  1.00  0.00     0.009 A 
ENDBRANCH   8   9
ENDBRANCH   7   8
ENDBRANCH   4   7
BRANCH   1  15
HETATM   15  C5  UNL     1      25.594  -0.163  53.197  1.00  0.00     0.161 C 
HETATM   16  O1  UNL     1      24.533  -0.815  53.409  1.00  0.00    -0.292 OA
BRANCH  15  17
HETATM   17  C4  UNL     1      26.902  -0.691  53.611  1.00  0.00     0.103 C 
BRANCH  17  18
HETATM   18  C3  UNL     1      27.476   0.069  54.794  1.00  0.00     0.123 C 
BRANCH  18  19
HETATM   19  N1  UNL     1      28.851   0.328  54.533  1.00  0.00    -0.420 N 
HETATM   20  C1  UNL     1      29.543  -0.667  53.791  1.00  0.00     0.142 C 
HETATM   21  C2  UNL     1      29.142   1.693  54.164  1.00  0.00     0.142 C 
ENDBRANCH  18  19
ENDBRANCH  17  18
ENDBRANCH  15  17
ENDBRANCH   1  15
TORSDOF 7
ENDMDL
MODEL 3
REMARK VINA RESULT:      -7.0      3.550      6.862
REMARK  7 active torsions:
REMARK  status: ('A' for Active; 'I' for Inactive)
REMARK    1  A    between atoms: N1_2  and  C3_4 
REMARK    2  A    between atoms: C3_4  and  C4_5 
REMARK    3  A    between atoms: C4_5  and  C5_6 
REMARK    4  A    between atoms: C5_6  and  C6_8 
REMARK    5  A    between atoms: C9_11  and  O2_12 
REMARK    6  A    between atoms: O2_12  and  C10_13 
REMARK    7  A    between atoms: C10_13  and  C11_14 
ROOT
HETATM    1  C6  UNL     1      27.156   2.050  52.923  1.00  0.00     0.010 A 
HETATM    2  C7  UNL     1      26.825   1.922  51.587  1.00  0.00     0.018 A 
HETATM    3  C8  UNL     1      25.514   2.051  51.147  1.00  0.00     0.037 A 
HETATM    4  C9  UNL     1      24.483   2.315  52.045  1.00  0.00     0.069 A 
HETATM    5  C17 UNL     1      24.818   2.441  53.379  1.00  0.00     0.037 A 
HETATM    6  C18 UNL     1      26.125   2.312  53.802  1.00  0.00     0.018 A 
ENDROOT
BRANCH   4   7
HETATM    7  O2  UNL     1      23.205   2.424  51.503  1.00  0.00    -0.347 OA
BRANCH   7   8
HETATM    8  C10 UNL     1      22.552   1.200  51.176  1.00  0.00     0.214 C 
BRANCH   8   9
HETATM    9  C11 UNL     1      22.060   0.573  52.434  1.00  0.00    -0.034 A 
HETATM   10  C12 UNL     1      22.680  -0.593  52.809  1.00  0.00     0.009 A 
HETATM   11  C13 UNL     1      22.333  -1.286  53.946  1.00  0.00     0.001 A 
HETATM   12  C14 UNL     1      21.323  -0.799  54.752  1.00  0.00     0.000 A 
HETATM   13  C15 UNL     1      20.672   0.388  54.395  1.00  0.00     0.001 A 
HETATM   14  C16 UNL     1      21.054   1.062  53.230  1.00  0.00     0.009 A 
ENDBRANCH   8   9
ENDBRANCH   7   8
ENDBRANCH   4   7
BRANCH   1  15
HETATM   15  C5  UNL     1      28.516   1.913  53.377  1.00  0.00     0.161 C 
HETATM   16  O1  UNL     1      29.161   2.970  53.629  1.00  0.00    -0.292 OA
BRANCH  15  17
HETATM   17  C4  UNL     1      29.136   0.591  53.543  1.00  0.00     0.103 C 
BRANCH  17  18
HETATM   18  C3  UNL     1      28.139  -0.451  54.019  1.00  0.00     0.123 C 
BRANCH  18  19
HETATM   19  N1  UNL     1      27.993  -1.429  52.996  1.00  0.00    -0.420 N 
HETATM   20  C1  UNL     1      28.817  -2.581  53.113  1.00  0.00     0.142 C 
HETATM   21  C2  UNL     1      26.628  -1.679  52.598  1.00  0.00     0.142 C 
ENDBRANCH  18  19
ENDBRANCH  17  18
ENDBRANCH  15  17
ENDBRANCH   1  15
TORSDOF 7
ENDMDL
MODEL 4
REMARK VINA RESULT:      -7.0      4.188      8.106
REMARK  7 active torsions:
REMARK  status: ('A' for Active; 'I' for Inactive)
REMARK    1  A    between atoms: N1_2  and  C3_4 
REMARK    2  A    between atoms: C3_4  and  C4_5 
REMARK    3  A    between atoms: C4_5  and  C5_6 
REMARK    4  A    between atoms: C5_6  and  C6_8 
REMARK    5  A    between atoms: C9_11  and  O2_12 
REMARK    6  A    between atoms: O2_12  and  C10_13 
REMARK    7  A    between atoms: C10_13  and  C11_14 
ROOT
HETATM    1  C6  UNL     1      24.752   0.463  52.645  1.00  0.00     0.010 A 
HETATM    2  C7  UNL     1      24.161  -0.541  53.391  1.00  0.00     0.018 A 
HETATM    3  C8  UNL     1      22.827  -0.473  53.770  1.00  0.00     0.037 A 
HETATM    4  C9  UNL     1      22.036   0.615  53.410  1.00  0.00     0.069 A 
HETATM    5  C17 UNL     1      22.632   1.615  52.667  1.00  0.00     0.037 A 
HETATM    6  C18 UNL     1      23.958   1.534  52.295  1.00  0.00     0.018 A 
ENDROOT
BRANCH   4   7
HETATM    7  O2  UNL     1      20.713   0.587  53.842  1.00  0.00    -0.347 OA
BRANCH   7   8
HETATM    8  C10 UNL     1      20.063  -0.681  53.800  1.00  0.00     0.214 C 
BRANCH   8   9
HETATM    9  C11 UNL     1      18.935  -0.606  52.830  1.00  0.00    -0.034 A 
HETATM   10  C12 UNL     1      17.787  -1.266  53.188  1.00  0.00     0.009 A 
HETATM   11  C13 UNL     1      16.663  -1.286  52.395  1.00  0.00     0.001 A 
HETATM   12  C14 UNL     1      16.678  -0.618  51.187  1.00  0.00     0.000 A 
HETATM   13  C15 UNL     1      17.835   0.065  50.794  1.00  0.00     0.001 A 
HETATM   14  C16 UNL     1      18.957   0.061  51.630  1.00  0.00     0.009 A 
ENDBRANCH   8   9
ENDBRANCH   7   8
ENDBRANCH   4   7
BRANCH   1  15
HETATM   15  C5  UNL     1      26.137   0.391  52.255  1.00  0.00     0.161 C 
HETATM   16  O1  UNL     1      26.586   1.307  51.510  1.00  0.00    -0.292 OA
BRANCH  15  17
HETATM   17  C4  UNL     1      27.002  -0.708  52.709  1.00  0.00     0.103 C 
BRANCH  17  18
HETATM   18  C3  UNL     1      27.739  -0.364  53.991  1.00  0.00     0.123 C 
BRANCH  18  19
HETATM   19  N1  UNL     1      28.969   0.261  53.644  1.00  0.00    -0.420 N 
HETATM   20  C1  UNL     1      29.228   1.513  54.265  1.00  0.00     0.142 C 
HETATM   21  C2  UNL     1      30.095  -0.638  53.565  1.00  0.00     0.142 C 
ENDBRANCH  18  19
ENDBRANCH  17  18
ENDBRANCH  15  17
ENDBRANCH   1  15
TORSDOF 7
ENDMDL
MODEL 5
REMARK VINA RESULT:      -7.0      4.623      8.220
REMARK  7 active torsions:
REMARK  status: ('A' for Active; 'I' for Inactive)
REMARK    1  A    between atoms: N1_2  and  C3_4 
REMARK    2  A    between atoms: C3_4  and  C4_5 
REMARK    3  A    between atoms: C4_5  and  C5_6 
REMARK    4  A    between atoms: C5_6  and  C6_8 
REMARK    5  A    between atoms: C9_11  and  O2_12 
REMARK    6  A    between atoms: O2_12  and  C10_13 
REMARK    7  A    between atoms: C10_13  and  C11_14 
ROOT
HETATM    1  C6  UNL     1      24.070  -0.520  54.086  1.00  0.00     0.010 A 
HETATM    2  C7  UNL     1      23.562   0.245  53.052  1.00  0.00     0.018 A 
HETATM    3  C8  UNL     1      22.195   0.375  52.847  1.00  0.00     0.037 A 
HETATM    4  C9  UNL     1      21.284  -0.265  53.684  1.00  0.00     0.069 A 
HETATM    5  C17 UNL     1      21.796  -1.029  54.715  1.00  0.00     0.037 A 
HETATM    6  C18 UNL     1      23.157  -1.149  54.907  1.00  0.00     0.018 A 
ENDROOT
BRANCH   4   7
HETATM    7  O2  UNL     1      19.937  -0.072  53.393  1.00  0.00    -0.347 OA
BRANCH   7   8
HETATM    8  C10 UNL     1      19.634   0.362  52.069  1.00  0.00     0.214 C 
BRANCH   8   9
HETATM    9  C11 UNL     1      18.293  -0.167  51.691  1.00  0.00    -0.034 A 
HETATM   10  C12 UNL     1      17.852   0.152  50.431  1.00  0.00     0.009 A 
HETATM   11  C13 UNL     1      16.635  -0.265  49.943  1.00  0.00     0.001 A 
HETATM   12  C14 UNL     1      15.815  -1.036  50.742  1.00  0.00     0.000 A 
HETATM   13  C15 UNL     1      16.238  -1.378  52.032  1.00  0.00     0.001 A 
HETATM   14  C16 UNL     1      17.482  -0.934  52.491  1.00  0.00     0.009 A 
ENDBRANCH   8   9
ENDBRANCH   7   8
ENDBRANCH   4   7
BRANCH   1  15
HETATM   15  C5  UNL     1      25.489  -0.655  54.294  1.00  0.00     0.161 C 
HETATM   16  O1  UNL     1      25.924  -0.542  55.475  1.00  0.00    -0.292 OA
BRANCH  15  17
HETATM   17  C4  UNL     1      26.402  -0.918  53.173  1.00  0.00     0.103 C 
BRANCH  17  18
HETATM   18  C3  UNL     1      27.265   0.288  52.843  1.00  0.00     0.123 C 
BRANCH  18  19
HETATM   19  N1  UNL     1      28.591   0.021  53.284  1.00  0.00    -0.420 N 
HETATM   20  C1  UNL     1      29.050   0.797  54.383  1.00  0.00     0.142 C 
HETATM   21  C2  UNL     1      28.938  -1.380  53.324  1.00  0.00     0.142 C 
ENDBRANCH  18  19
ENDBRANCH  17  18
ENDBRANCH  15  17
ENDBRANCH   1  15
TORSDOF 7
ENDMDL
MODEL 6
REMARK VINA RESULT:      -7.0      4.531      8.106
REMARK  7 active torsions:
REMARK  status: ('A' for Active; 'I' for Inactive)
REMARK    1  A    between atoms: N1_2  and  C3_4 
REMARK    2  A    between atoms: C3_4  and  C4_5 
REMARK    3  A    between atoms: C4_5  and  C5_6 
REMARK    4  A    between atoms: C5_6  and  C6_8 
REMARK    5  A    between atoms: C9_11  and  O2_12 
REMARK    6  A    between atoms: O2_12  and  C10_13 
REMARK    7  A    between atoms: C10_13  and  C11_14 
ROOT
HETATM    1  C6  UNL     1      24.240  -0.178  53.690  1.00  0.00     0.010 A 
HETATM    2  C7  UNL     1      23.098  -0.824  54.127  1.00  0.00     0.018 A 
HETATM    3  C8  UNL     1      21.832  -0.386  53.763  1.00  0.00     0.037 A 
HETATM    4  C9  UNL     1      21.670   0.726  52.939  1.00  0.00     0.069 A 
HETATM    5  C17 UNL     1      22.814   1.367  52.506  1.00  0.00     0.037 A 
HETATM    6  C18 UNL     1      24.066   0.921  52.875  1.00  0.00     0.018 A 
ENDROOT
BRANCH   4   7
HETATM    7  O2  UNL     1      20.360   1.083  52.634  1.00  0.00    -0.347 OA
BRANCH   7   8
HETATM    8  C10 UNL     1      19.843   0.591  51.400  1.00  0.00     0.214 C 
BRANCH   8   9
HETATM    9  C11 UNL     1      18.567  -0.127  51.672  1.00  0.00    -0.034 A 
HETATM   10  C12 UNL     1      17.599  -0.024  50.705  1.00  0.00     0.009 A 
HETATM   11  C13 UNL     1      16.370  -0.632  50.816  1.00  0.00     0.001 A 
HETATM   12  C14 UNL     1      16.086  -1.380  51.941  1.00  0.00     0.000 A 
HETATM   13  C15 UNL     1      17.053  -1.503  52.945  1.00  0.00     0.001 A 
HETATM   14  C16 UNL     1      18.291  -0.869  52.794  1.00  0.00     0.009 A 
ENDBRANCH   8   9
ENDBRANCH   7   8
ENDBRANCH   4   7
BRANCH   1  15
HETATM   15  C5  UNL     1      25.553  -0.633  54.072  1.00  0.00     0.161 C 
HETATM   16  O1  UNL     1      25.794  -0.761  55.306  1.00  0.00    -0.292 OA
BRANCH  15  17
HETATM   17  C4  UNL     1      26.578  -0.941  53.065  1.00  0.00     0.103 C 
BRANCH  17  18
HETATM   18  C3  UNL     1      27.507   0.234  52.817  1.00  0.00     0.123 C 
BRANCH  18  19
HETATM   19  N1  UNL     1      28.750  -0.038  53.454  1.00  0.00    -0.420 N 
HETATM   20  C1  UNL     1      28.979   0.635  54.685  1.00  0.00     0.142 C 
HETATM   21  C2  UNL     1      29.149  -1.425  53.419  1.00  0.00     0.142 C 
ENDBRANCH  18  19
ENDBRANCH  17  18
ENDBRANCH  15  17
ENDBRANCH   1  15
TORSDOF 7
ENDMDL
MODEL 7
REMARK VINA RESULT:      -6.9      4.542      6.091
REMARK  7 active torsions:
REMARK  status: ('A' for Active; 'I' for Inactive)
REMARK    1  A    between atoms: N1_2  and  C3_4 
REMARK    2  A    between atoms: C3_4  and  C4_5 
REMARK    3  A    between atoms: C4_5  and  C5_6 
REMARK    4  A    between atoms: C5_6  and  C6_8 
REMARK    5  A    between atoms: C9_11  and  O2_12 
REMARK    6  A    between atoms: O2_12  and  C10_13 
REMARK    7  A    between atoms: C10_13  and  C11_14 
ROOT
HETATM    1  C6  UNL     1      20.751  -0.511  53.320  1.00  0.00     0.010 A 
HETATM    2  C7  UNL     1      21.686   0.153  52.547  1.00  0.00     0.018 A 
HETATM    3  C8  UNL     1      23.043   0.090  52.834  1.00  0.00     0.037 A 
HETATM    4  C9  UNL     1      23.510  -0.649  53.919  1.00  0.00     0.069 A 
HETATM    5  C17 UNL     1      22.572  -1.309  54.689  1.00  0.00     0.037 A 
HETATM    6  C18 UNL     1      21.226  -1.238  54.391  1.00  0.00     0.018 A 
ENDROOT
BRANCH   4   7
HETATM    7  O2  UNL     1      24.886  -0.646  54.122  1.00  0.00    -0.347 OA
BRANCH   7   8
HETATM    8  C10 UNL     1      25.659   0.113  53.194  1.00  0.00     0.214 C 
BRANCH   8   9
HETATM    9  C11 UNL     1      27.095  -0.242  53.370  1.00  0.00    -0.034 A 
HETATM   10  C12 UNL     1      27.466  -1.488  52.931  1.00  0.00     0.009 A 
HETATM   11  C13 UNL     1      28.757  -1.955  53.027  1.00  0.00     0.001 A 
HETATM   12  C14 UNL     1      29.727  -1.147  53.585  1.00  0.00     0.000 A 
HETATM   13  C15 UNL     1      29.379   0.130  54.042  1.00  0.00     0.001 A 
HETATM   14  C16 UNL     1      28.055   0.567  53.926  1.00  0.00     0.009 A 
ENDBRANCH   8   9
ENDBRANCH   7   8
ENDBRANCH   4   7
BRANCH   1  15
HETATM   15  C5  UNL     1      19.344  -0.441  53.021  1.00  0.00     0.161 C 
HETATM   16  O1  UNL     1      18.941   0.522  52.308  1.00  0.00    -0.292 OA
BRANCH  15  17
HETATM   17  C4  UNL     1      18.405  -1.455  53.523  1.00  0.00     0.103 C 
BRANCH  17  18
HETATM   18  C3  UNL     1      17.020  -1.302  52.919  1.00  0.00     0.123 C 
BRANCH  18  19
HETATM   19  N1  UNL     1      16.495  -2.601  52.671  1.00  0.00    -0.420 N 
HETATM   20  C1  UNL     1      16.972  -3.637  53.519  1.00  0.00     0.142 C 
HETATM   21  C2  UNL     1      15.080  -2.629  52.389  1.00  0.00     0.142 C 
ENDBRANCH  18  19
ENDBRANCH  17  18
ENDBRANCH  15  17
ENDBRANCH   1  15
TORSDOF 7
ENDMDL
MODEL 8
REMARK VINA RESULT:      -6.7      3.727      8.542
REMARK  7 active torsions:
REMARK  status: ('A' for Active; 'I' for Inactive)
REMARK    1  A    between atoms: N1_2  and  C3_4 
REMARK    2  A    between atoms: C3_4  and  C4_5 
REMARK    3  A    between atoms: C4_5  and  C5_6 
REMARK    4  A    between atoms: C5_6  and  C6_8 
REMARK    5  A    between atoms: C9_11  and  O2_12 
REMARK    6  A    between atoms: O2_12  and  C10_13 
REMARK    7  A    between atoms: C10_13  and  C11_14 
ROOT
HETATM    1  C6  UNL     1      27.002   5.127  49.039  1.00  0.00     0.010 A 
HETATM    2  C7  UNL     1      25.957   5.931  49.456  1.00  0.00     0.018 A 
HETATM    3  C8  UNL     1      24.846   5.403  50.099  1.00  0.00     0.037 A 
HETATM    4  C9  UNL     1      24.748   4.036  50.348  1.00  0.00     0.069 A 
HETATM    5  C17 UNL     1      25.794   3.237  49.930  1.00  0.00     0.037 A 
HETATM    6  C18 UNL     1      26.892   3.776  49.292  1.00  0.00     0.018 A 
ENDROOT
BRANCH   4   7
HETATM    7  O2  UNL     1      23.594   3.608  50.998  1.00  0.00    -0.347 OA
BRANCH   7   8
HETATM    8  C10 UNL     1      23.616   3.659  52.423  1.00  0.00     0.214 C 
BRANCH   8   9
HETATM    9  C11 UNL     1      24.225   2.400  52.934  1.00  0.00    -0.034 A 
HETATM   10  C12 UNL     1      23.472   1.262  52.787  1.00  0.00     0.009 A 
HETATM   11  C13 UNL     1      23.903   0.026  53.211  1.00  0.00     0.001 A 
HETATM   12  C14 UNL     1      25.141  -0.088  53.810  1.00  0.00     0.000 A 
HETATM   13  C15 UNL     1      25.932   1.055  53.975  1.00  0.00     0.001 A 
HETATM   14  C16 UNL     1      25.458   2.293  53.530  1.00  0.00     0.009 A 
ENDBRANCH   8   9
ENDBRANCH   7   8
ENDBRANCH   4   7
BRANCH   1  15
HETATM   15  C5  UNL     1      28.152   5.678  48.369  1.00  0.00     0.161 C 
HETATM   16  O1  UNL     1      29.129   4.908  48.149  1.00  0.00    -0.292 OA
BRANCH  15  17
HETATM   17  C4  UNL     1      28.190   7.087  47.951  1.00  0.00     0.103 C 
BRANCH  17  18
HETATM   18  C3  UNL     1      29.450   7.789  48.423  1.00  0.00     0.123 C 
BRANCH  18  19
HETATM   19  N1  UNL     1      29.090   9.083  48.895  1.00  0.00    -0.420 N 
HETATM   20  C1  UNL     1      27.912   9.151  49.688  1.00  0.00     0.142 C 
HETATM   21  C2  UNL     1      30.200   9.880  49.360  1.00  0.00     0.142 C 
ENDBRANCH  18  19
ENDBRANCH  17  18
ENDBRANCH  15  17
ENDBRANCH   1  15
TORSDOF 7
ENDMDL
MODEL 9
REMARK VINA RESULT:      -6.7      4.592      5.990
REMARK  7 active torsions:
REMARK  status: ('A' for Active; 'I' for Inactive)
REMARK    1  A    between atoms: N1_2  and  C3_4 
REMARK    2  A    between atoms: C3_4  and  C4_5 
REMARK    3  A    between atoms: C4_5  and  C5_6 
REMARK    4  A    between atoms: C5_6  and  C6_8 
REMARK    5  A    between atoms: C9_11  and  O2_12 
REMARK    6  A    between atoms: O2_12  and  C10_13 
REMARK    7  A    between atoms: C10_13  and  C11_14 
ROOT
HETATM    1  C6  UNL     1      20.822  -0.484  53.302  1.00  0.00     0.010 A 
HETATM    2  C7  UNL     1      21.303  -1.143  54.418  1.00  0.00     0.018 A 
HETATM    3  C8  UNL     1      22.657  -1.161  54.724  1.00  0.00     0.037 A 
HETATM    4  C9  UNL     1      23.582  -0.511  53.911  1.00  0.00     0.069 A 
HETATM    5  C17 UNL     1      23.096   0.146  52.797  1.00  0.00     0.037 A 
HETATM    6  C18 UNL     1      21.748   0.156  52.505  1.00  0.00     0.018 A 
ENDROOT
BRANCH   4   7
HETATM    7  O2  UNL     1      24.914  -0.590  54.305  1.00  0.00    -0.347 OA
BRANCH   7   8
HETATM    8  C10 UNL     1      25.775   0.443  53.830  1.00  0.00     0.214 C 
BRANCH   8   9
HETATM    9  C11 UNL     1      27.144  -0.120  53.661  1.00  0.00    -0.034 A 
HETATM   10  C12 UNL     1      28.182   0.699  54.030  1.00  0.00     0.009 A 
HETATM   11  C13 UNL     1      29.500   0.317  53.931  1.00  0.00     0.001 A 
HETATM   12  C14 UNL     1      29.804  -0.938  53.442  1.00  0.00     0.000 A 
HETATM   13  C15 UNL     1      28.767  -1.795  53.057  1.00  0.00     0.001 A 
HETATM   14  C16 UNL     1      27.439  -1.369  53.174  1.00  0.00     0.009 A 
ENDBRANCH   8   9
ENDBRANCH   7   8
ENDBRANCH   4   7
BRANCH   1  15
HETATM   15  C5  UNL     1      19.417  -0.470  52.985  1.00  0.00     0.161 C 
HETATM   16  O1  UNL     1      18.661  -1.251  53.630  1.00  0.00    -0.292 OA
BRANCH  15  17
HETATM   17  C4  UNL     1      18.876   0.423  51.949  1.00  0.00     0.103 C 
BRANCH  17  18
HETATM   18  C3  UNL     1      17.709  -0.204  51.208  1.00  0.00     0.123 C 
BRANCH  18  19
HETATM   19  N1  UNL     1      16.566   0.623  51.394  1.00  0.00    -0.420 N 
HETATM   20  C1  UNL     1      15.965   1.131  50.211  1.00  0.00     0.142 C 
HETATM   21  C2  UNL     1      15.649   0.156  52.406  1.00  0.00     0.142 C 
ENDBRANCH  18  19
ENDBRANCH  17  18
ENDBRANCH  15  17
ENDBRANCH   1  15
TORSDOF 7
ENDMDL
