MODEL 1
REMARK VINA RESULT:     -10.0      0.000      0.000
REMARK  4 active torsions:
REMARK  status: ('A' for Active; 'I' for Inactive)
REMARK       I    between atoms: C2_2  and  N1_4 
REMARK    1  A    between atoms: N1_4  and  C3_5 
REMARK    2  A    between atoms: C3_5  and  C4_6 
REMARK    3  A    between atoms: C7_9  and  C8_10 
REMARK    4  A    between atoms: C21_26  and  N5_27 
ROOT
HETATM    1  C8  UNL     1      24.410   4.320  50.038  1.00  0.00     0.123 A 
HETATM    2  N2  UNL     1      24.693   3.092  50.405  1.00  0.00    -0.236 NA
HETATM    3  C9  UNL     1      23.778   2.352  51.153  1.00  0.00     0.066 A 
HETATM    4  C10 UNL     1      22.839   3.273  51.231  1.00  0.00     0.143 A 
HETATM    5  N3  UNL     1      22.201   4.519  51.023  1.00  0.00    -0.274 N 
HETATM    6  C11 UNL     1      20.906   4.790  51.515  1.00  0.00     0.135 C 
HETATM    7  C12 UNL     1      20.236   3.707  51.852  1.00  0.00     0.135 C 
HETATM    8  N4  UNL     1      19.610   2.514  52.177  1.00  0.00    -0.274 NA
HETATM    9  C13 UNL     1      20.093   1.453  52.747  1.00  0.00     0.108 C 
HETATM   10  C14 UNL     1      21.189   0.610  53.388  1.00  0.00     0.043 A 
HETATM   11  C15 UNL     1      20.651   0.232  54.867  1.00  0.00     0.048 A 
HETATM   12  C16 UNL     1      21.675  -0.023  54.314  1.00  0.00    -0.051 A 
HETATM   13  C17 UNL     1      22.473  -0.210  53.865  1.00  0.00    -0.052 A 
HETATM   14  C18 UNL     1      23.590  -0.455  53.205  1.00  0.00     0.036 A 
HETATM   15  C19 UNL     1      24.320   0.947  52.895  1.00  0.00     0.019 C 
HETATM   16  C20 UNL     1      23.396   1.105  51.881  1.00  0.00     0.051 A 
HETATM   17  C21 UNL     1      22.177   1.022  50.992  1.00  0.00     0.076 A 
HETATM   18  C22 UNL     1      22.403   0.468  52.078  1.00  0.00     0.032 A 
HETATM   19  N6  UNL     1      23.226   5.102  50.287  1.00  0.00    -0.281 N 
HETATM   20  H22 UNL     1      22.902   6.052  50.049  1.00  0.00     0.189 HD
ENDROOT
BRANCH   1  21
HETATM   21  C7  UNL     1      25.436   5.066  49.253  1.00  0.00     0.057 C 
HETATM   22  C6  UNL     1      26.649   4.174  49.064  1.00  0.00     0.013 C 
HETATM   23  C5  UNL     1      27.889   5.018  48.799  1.00  0.00     0.007 C 
HETATM   24  C4  UNL     1      27.503   6.306  48.087  1.00  0.00     0.003 C 
HETATM   25  C24 UNL     1      26.588   7.169  48.897  1.00  0.00     0.007 C 
HETATM   26  C23 UNL     1      25.875   6.316  49.926  1.00  0.00     0.013 C 
BRANCH  24  27
HETATM   27  C3  UNL     1      28.769   7.078  47.805  1.00  0.00     0.127 C 
BRANCH  27  28
HETATM   28  N1  UNL     1      29.751   6.965  48.862  1.00  0.00    -0.361 N 
HETATM   29  C2  UNL     1      31.029   6.405  48.658  1.00  0.00     0.213 C 
HETATM   30  C1  UNL     1      32.061   6.273  49.715  1.00  0.00     0.117 C 
HETATM   31  O1  UNL     1      31.265   6.002  47.475  1.00  0.00    -0.274 OA
HETATM   32  H4  UNL     1      29.573   7.293  49.855  1.00  0.00     0.162 HD
ENDBRANCH  27  28
ENDBRANCH  24  27
ENDBRANCH   1  21
BRANCH  17  33
HETATM   33  N5  UNL     1      21.003   0.300  50.868  1.00  0.00    -0.418 N 
HETATM   34  H20 UNL     1      20.399   1.176  50.774  1.00  0.00     0.150 HD
HETATM   35  H21 UNL     1      20.356  -0.492  50.809  1.00  0.00     0.150 HD
ENDBRANCH  17  33
TORSDOF 4
ENDMDL
MODEL 2
REMARK VINA RESULT:     -10.0      2.664      3.700
REMARK  4 active torsions:
REMARK  status: ('A' for Active; 'I' for Inactive)
REMARK       I    between atoms: C2_2  and  N1_4 
REMARK    1  A    between atoms: N1_4  and  C3_5 
REMARK    2  A    between atoms: C3_5  and  C4_6 
REMARK    3  A    between atoms: C7_9  and  C8_10 
REMARK    4  A    between atoms: C21_26  and  N5_27 
ROOT
HETATM    1  C8  UNL     1      26.034   4.027  50.006  1.00  0.00     0.123 A 
HETATM    2  N2  UNL     1      27.042   3.447  50.615  1.00  0.00    -0.236 NA
HETATM    3  C9  UNL     1      26.813   2.440  51.552  1.00  0.00     0.066 A 
HETATM    4  C10 UNL     1      25.497   2.436  51.478  1.00  0.00     0.143 A 
HETATM    5  N3  UNL     1      24.205   2.814  51.040  1.00  0.00    -0.274 N 
HETATM    6  C11 UNL     1      23.036   2.192  51.530  1.00  0.00     0.135 C 
HETATM    7  C12 UNL     1      23.266   1.041  52.128  1.00  0.00     0.135 C 
HETATM    8  N4  UNL     1      23.604  -0.157  52.736  1.00  0.00    -0.274 NA
HETATM    9  C13 UNL     1      24.616  -0.444  53.496  1.00  0.00     0.108 C 
HETATM   10  C14 UNL     1      25.907  -0.140  54.246  1.00  0.00     0.043 A 
HETATM   11  C15 UNL     1      25.614  -0.494  55.797  1.00  0.00     0.048 A 
HETATM   12  C16 UNL     1      26.586  -0.062  55.259  1.00  0.00    -0.051 A 
HETATM   13  C17 UNL     1      27.337   0.279  54.820  1.00  0.00    -0.052 A 
HETATM   14  C18 UNL     1      28.380   0.763  54.170  1.00  0.00     0.036 A 
HETATM   15  C19 UNL     1      27.970   2.181  53.526  1.00  0.00     0.019 C 
HETATM   16  C20 UNL     1      27.316   1.452  52.552  1.00  0.00     0.051 A 
HETATM   17  C21 UNL     1      26.604   0.374  51.768  1.00  0.00     0.076 A 
HETATM   18  C22 UNL     1      27.024   0.357  52.935  1.00  0.00     0.032 A 
HETATM   19  N6  UNL     1      24.620   3.790  50.142  1.00  0.00    -0.281 N 
HETATM   20  H22 UNL     1      23.761   4.175  49.722  1.00  0.00     0.189 HD
ENDROOT
BRANCH   1  21
HETATM   21  C7  UNL     1      26.344   5.108  49.025  1.00  0.00     0.057 C 
HETATM   22  C6  UNL     1      27.808   5.012  48.639  1.00  0.00     0.013 C 
HETATM   23  C5  UNL     1      28.308   6.356  48.126  1.00  0.00     0.007 C 
HETATM   24  C4  UNL     1      27.172   7.120  47.464  1.00  0.00     0.003 C 
HETATM   25  C24 UNL     1      26.052   7.433  48.406  1.00  0.00     0.007 C 
HETATM   26  C23 UNL     1      26.093   6.467  49.572  1.00  0.00     0.013 C 
BRANCH  24  27
HETATM   27  C3  UNL     1      27.731   8.417  46.932  1.00  0.00     0.127 C 
BRANCH  27  28
HETATM   28  N1  UNL     1      28.975   8.801  47.563  1.00  0.00    -0.361 N 
HETATM   29  C2  UNL     1      29.057   9.825  48.528  1.00  0.00     0.213 C 
HETATM   30  C1  UNL     1      30.313  10.244  49.197  1.00  0.00     0.117 C 
HETATM   31  O1  UNL     1      27.956  10.396  48.810  1.00  0.00    -0.274 OA
HETATM   32  H4  UNL     1      29.903   8.337  47.341  1.00  0.00     0.162 HD
ENDBRANCH  27  28
ENDBRANCH  24  27
ENDBRANCH   1  21
BRANCH  17  33
HETATM   33  N5  UNL     1      26.277  -0.966  51.865  1.00  0.00    -0.418 N 
HETATM   34  H20 UNL     1      27.172  -1.286  51.379  1.00  0.00     0.150 HD
HETATM   35  H21 UNL     1      25.760  -1.822  52.088  1.00  0.00     0.150 HD
ENDBRANCH  17  33
TORSDOF 4
ENDMDL
MODEL 3
REMARK VINA RESULT:      -9.6      3.539      7.929
REMARK  4 active torsions:
REMARK  status: ('A' for Active; 'I' for Inactive)
REMARK       I    between atoms: C2_2  and  N1_4 
REMARK    1  A    between atoms: N1_4  and  C3_5 
REMARK    2  A    between atoms: C3_5  and  C4_6 
REMARK    3  A    between atoms: C7_9  and  C8_10 
REMARK    4  A    between atoms: C21_26  and  N5_27 
ROOT
HETATM    1  C8  UNL     1      24.951   3.442  50.387  1.00  0.00     0.123 A 
HETATM    2  N2  UNL     1      25.922   4.323  50.321  1.00  0.00    -0.236 NA
HETATM    3  C9  UNL     1      25.841   5.395  49.432  1.00  0.00     0.066 A 
HETATM    4  C10 UNL     1      24.668   5.096  48.913  1.00  0.00     0.143 A 
HETATM    5  N3  UNL     1      23.466   4.376  48.710  1.00  0.00    -0.274 N 
HETATM    6  C11 UNL     1      22.488   4.796  47.783  1.00  0.00     0.135 C 
HETATM    7  C12 UNL     1      22.624   6.052  47.410  1.00  0.00     0.135 C 
HETATM    8  N4  UNL     1      22.847   7.378  47.077  1.00  0.00    -0.274 NA
HETATM    9  C13 UNL     1      23.963   8.003  46.864  1.00  0.00     0.108 C 
HETATM   10  C14 UNL     1      25.479   8.119  46.753  1.00  0.00     0.043 A 
HETATM   11  C15 UNL     1      25.776   8.651  45.254  1.00  0.00     0.048 A 
HETATM   12  C16 UNL     1      26.511   8.361  46.145  1.00  0.00    -0.051 A 
HETATM   13  C17 UNL     1      27.072   8.127  46.855  1.00  0.00    -0.052 A 
HETATM   14  C18 UNL     1      27.837   7.785  47.875  1.00  0.00     0.036 A 
HETATM   15  C19 UNL     1      27.598   6.225  48.196  1.00  0.00     0.019 C 
HETATM   16  C20 UNL     1      26.427   6.621  48.813  1.00  0.00     0.051 A 
HETATM   17  C21 UNL     1      25.190   7.370  49.252  1.00  0.00     0.076 A 
HETATM   18  C22 UNL     1      26.036   7.672  48.397  1.00  0.00     0.032 A 
HETATM   19  N6  UNL     1      23.717   3.380  49.647  1.00  0.00    -0.281 N 
HETATM   20  H22 UNL     1      22.900   2.751  49.621  1.00  0.00     0.189 HD
ENDROOT
BRANCH   1  21
HETATM   21  C7  UNL     1      25.103   2.310  51.347  1.00  0.00     0.057 C 
HETATM   22  C6  UNL     1      24.897   2.834  52.756  1.00  0.00     0.013 C 
HETATM   23  C5  UNL     1      25.575   1.916  53.765  1.00  0.00     0.007 C 
HETATM   24  C4  UNL     1      25.589   0.487  53.247  1.00  0.00     0.003 C 
HETATM   25  C24 UNL     1      26.360   0.334  51.973  1.00  0.00     0.007 C 
HETATM   26  C23 UNL     1      26.446   1.676  51.276  1.00  0.00     0.013 C 
BRANCH  24  27
HETATM   27  C3  UNL     1      26.225  -0.384  54.302  1.00  0.00     0.127 C 
BRANCH  27  28
HETATM   28  N1  UNL     1      27.508  -0.920  53.899  1.00  0.00    -0.361 N 
HETATM   29  C2  UNL     1      28.732  -0.331  54.276  1.00  0.00     0.213 C 
HETATM   30  C1  UNL     1      30.064  -0.851  53.883  1.00  0.00     0.117 C 
HETATM   31  O1  UNL     1      28.636   0.712  54.997  1.00  0.00    -0.274 OA
HETATM   32  H4  UNL     1      27.609  -1.787  53.297  1.00  0.00     0.162 HD
ENDBRANCH  27  28
ENDBRANCH  24  27
ENDBRANCH   1  21
BRANCH  17  33
HETATM   33  N5  UNL     1      24.583   8.603  49.087  1.00  0.00    -0.418 N 
HETATM   34  H20 UNL     1      23.627   8.246  49.401  1.00  0.00     0.150 HD
HETATM   35  H21 UNL     1      24.453   9.595  48.870  1.00  0.00     0.150 HD
ENDBRANCH  17  33
TORSDOF 4
ENDMDL
MODEL 4
REMARK VINA RESULT:      -9.4      4.277      5.940
REMARK  4 active torsions:
REMARK  status: ('A' for Active; 'I' for Inactive)
REMARK       I    between atoms: C2_2  and  N1_4 
REMARK    1  A    between atoms: N1_4  and  C3_5 
REMARK    2  A    between atoms: C3_5  and  C4_6 
REMARK    3  A    between atoms: C7_9  and  C8_10 
REMARK    4  A    between atoms: C21_26  and  N5_27 
ROOT
HETATM    1  C8  UNL     1      21.727   1.475  51.928  1.00  0.00     0.123 A 
HETATM    2  N2  UNL     1      21.085   0.335  52.036  1.00  0.00    -0.236 NA
HETATM    3  C9  UNL     1      19.695   0.297  51.938  1.00  0.00     0.066 A 
HETATM    4  C10 UNL     1      19.504   1.588  51.749  1.00  0.00     0.143 A 
HETATM    5  N3  UNL     1      19.835   2.954  51.584  1.00  0.00    -0.274 N 
HETATM    6  C11 UNL     1      18.851   3.941  51.357  1.00  0.00     0.135 C 
HETATM    7  C12 UNL     1      17.694   3.448  50.968  1.00  0.00     0.135 C 
HETATM    8  N4  UNL     1      16.516   2.839  50.565  1.00  0.00    -0.274 NA
HETATM    9  C13 UNL     1      15.963   1.744  50.986  1.00  0.00     0.108 C 
HETATM   10  C14 UNL     1      15.863   0.495  51.855  1.00  0.00     0.043 A 
HETATM   11  C15 UNL     1      14.454   0.613  52.642  1.00  0.00     0.048 A 
HETATM   12  C16 UNL     1      15.309  -0.216  52.679  1.00  0.00    -0.051 A 
HETATM   13  C17 UNL     1      15.991  -0.854  52.698  1.00  0.00    -0.052 A 
HETATM   14  C18 UNL     1      16.974  -1.736  52.703  1.00  0.00     0.036 A 
HETATM   15  C19 UNL     1      18.311  -1.010  53.233  1.00  0.00     0.019 C 
HETATM   16  C20 UNL     1      18.406  -0.456  51.971  1.00  0.00     0.051 A 
HETATM   17  C21 UNL     1      18.121   0.074  50.585  1.00  0.00     0.076 A 
HETATM   18  C22 UNL     1      17.345  -0.414  51.420  1.00  0.00     0.032 A 
HETATM   19  N6  UNL     1      21.211   2.801  51.707  1.00  0.00    -0.281 N 
HETATM   20  H22 UNL     1      21.613   3.745  51.604  1.00  0.00     0.189 HD
ENDROOT
BRANCH   1  21
HETATM   21  C7  UNL     1      23.213   1.451  52.057  1.00  0.00     0.057 C 
HETATM   22  C6  UNL     1      23.613   0.242  52.881  1.00  0.00     0.013 C 
HETATM   23  C5  UNL     1      24.982   0.461  53.512  1.00  0.00     0.007 C 
HETATM   24  C4  UNL     1      25.828   1.362  52.627  1.00  0.00     0.003 C 
HETATM   25  C24 UNL     1      25.238   2.725  52.447  1.00  0.00     0.007 C 
HETATM   26  C23 UNL     1      23.750   2.668  52.722  1.00  0.00     0.013 C 
BRANCH  24  27
HETATM   27  C3  UNL     1      27.185   1.506  53.272  1.00  0.00     0.127 C 
BRANCH  27  28
HETATM   28  N1  UNL     1      28.103   0.448  52.908  1.00  0.00    -0.361 N 
HETATM   29  C2  UNL     1      28.650  -0.445  53.852  1.00  0.00     0.213 C 
HETATM   30  C1  UNL     1      29.592  -1.540  53.517  1.00  0.00     0.117 C 
HETATM   31  O1  UNL     1      28.284  -0.257  55.055  1.00  0.00    -0.274 OA
HETATM   32  H4  UNL     1      28.421   0.277  51.911  1.00  0.00     0.162 HD
ENDBRANCH  27  28
ENDBRANCH  24  27
ENDBRANCH   1  21
BRANCH  17  33
HETATM   33  N5  UNL     1      17.095   0.118  49.658  1.00  0.00    -0.418 N 
HETATM   34  H20 UNL     1      17.638  -0.448  48.934  1.00  0.00     0.150 HD
HETATM   35  H21 UNL     1      16.191   0.330  49.225  1.00  0.00     0.150 HD
ENDBRANCH  17  33
TORSDOF 4
ENDMDL
MODEL 5
REMARK VINA RESULT:      -9.3      3.535     10.621
REMARK  4 active torsions:
REMARK  status: ('A' for Active; 'I' for Inactive)
REMARK       I    between atoms: C2_2  and  N1_4 
REMARK    1  A    between atoms: N1_4  and  C3_5 
REMARK    2  A    between atoms: C3_5  and  C4_6 
REMARK    3  A    between atoms: C7_9  and  C8_10 
REMARK    4  A    between atoms: C21_26  and  N5_27 
ROOT
HETATM    1  C8  UNL     1      28.863   6.413  47.901  1.00  0.00     0.123 A 
HETATM    2  N2  UNL     1      29.391   5.225  48.076  1.00  0.00    -0.236 NA
HETATM    3  C9  UNL     1      30.724   4.989  47.742  1.00  0.00     0.066 A 
HETATM    4  C10 UNL     1      31.007   6.203  47.314  1.00  0.00     0.143 A 
HETATM    5  N3  UNL     1      30.798   7.566  46.998  1.00  0.00    -0.274 N 
HETATM    6  C11 UNL     1      31.826   8.383  46.481  1.00  0.00     0.135 C 
HETATM    7  C12 UNL     1      33.032   7.881  46.655  1.00  0.00     0.135 C 
HETATM    8  N4  UNL     1      34.257   7.275  46.884  1.00  0.00    -0.274 NA
HETATM    9  C13 UNL     1      34.592   6.025  46.799  1.00  0.00     0.108 C 
HETATM   10  C14 UNL     1      34.340   4.545  46.536  1.00  0.00     0.043 A 
HETATM   11  C15 UNL     1      35.381   4.116  45.374  1.00  0.00     0.048 A 
HETATM   12  C16 UNL     1      34.545   3.493  45.949  1.00  0.00    -0.051 A 
HETATM   13  C17 UNL     1      33.881   3.021  46.408  1.00  0.00    -0.052 A 
HETATM   14  C18 UNL     1      32.934   2.384  47.071  1.00  0.00     0.036 A 
HETATM   15  C19 UNL     1      31.519   3.076  46.737  1.00  0.00     0.019 C 
HETATM   16  C20 UNL     1      31.894   4.069  47.620  1.00  0.00     0.051 A 
HETATM   17  C21 UNL     1      32.668   5.022  48.501  1.00  0.00     0.076 A 
HETATM   18  C22 UNL     1      33.082   4.133  47.744  1.00  0.00     0.032 A 
HETATM   19  N6  UNL     1      29.464   7.617  47.385  1.00  0.00    -0.281 N 
HETATM   20  H22 UNL     1      29.152   8.584  47.211  1.00  0.00     0.189 HD
ENDROOT
BRANCH   1  21
HETATM   21  C7  UNL     1      27.428   6.598  48.264  1.00  0.00     0.057 C 
HETATM   22  C6  UNL     1      27.308   7.796  49.188  1.00  0.00     0.013 C 
HETATM   23  C5  UNL     1      26.035   7.697  50.019  1.00  0.00     0.007 C 
HETATM   24  C4  UNL     1      24.961   6.950  49.244  1.00  0.00     0.003 C 
HETATM   25  C24 UNL     1      25.347   5.541  48.920  1.00  0.00     0.007 C 
HETATM   26  C23 UNL     1      26.856   5.414  48.958  1.00  0.00     0.013 C 
BRANCH  24  27
HETATM   27  C3  UNL     1      23.711   6.924  50.091  1.00  0.00     0.127 C 
BRANCH  27  28
HETATM   28  N1  UNL     1      23.608   5.739  50.915  1.00  0.00    -0.361 N 
HETATM   29  C2  UNL     1      22.382   5.280  51.440  1.00  0.00     0.213 C 
HETATM   30  C1  UNL     1      22.238   4.071  52.287  1.00  0.00     0.117 C 
HETATM   31  O1  UNL     1      21.365   5.981  51.140  1.00  0.00    -0.274 OA
HETATM   32  H4  UNL     1      24.445   5.143  51.177  1.00  0.00     0.162 HD
ENDBRANCH  27  28
ENDBRANCH  24  27
ENDBRANCH   1  21
BRANCH  17  33
HETATM   33  N5  UNL     1      33.957   5.234  48.957  1.00  0.00    -0.418 N 
HETATM   34  H20 UNL     1      33.779   4.736  49.885  1.00  0.00     0.150 HD
HETATM   35  H21 UNL     1      34.932   5.544  48.990  1.00  0.00     0.150 HD
ENDBRANCH  17  33
TORSDOF 4
ENDMDL
MODEL 6
REMARK VINA RESULT:      -9.0      5.232     10.162
REMARK  4 active torsions:
REMARK  status: ('A' for Active; 'I' for Inactive)
REMARK       I    between atoms: C2_2  and  N1_4 
REMARK    1  A    between atoms: N1_4  and  C3_5 
REMARK    2  A    between atoms: C3_5  and  C4_6 
REMARK    3  A    between atoms: C7_9  and  C8_10 
REMARK    4  A    between atoms: C21_26  and  N5_27 
ROOT
HETATM    1  C8  UNL     1      19.432   0.261  51.362  1.00  0.00     0.123 A 
HETATM    2  N2  UNL     1      20.223   0.052  52.388  1.00  0.00    -0.236 NA
HETATM    3  C9  UNL     1      21.556   0.458  52.344  1.00  0.00     0.066 A 
HETATM    4  C10 UNL     1      21.536   0.970  51.130  1.00  0.00     0.143 A 
HETATM    5  N3  UNL     1      21.006   1.356  49.876  1.00  0.00    -0.274 N 
HETATM    6  C11 UNL     1      21.786   2.020  48.904  1.00  0.00     0.135 C 
HETATM    7  C12 UNL     1      22.892   2.545  49.390  1.00  0.00     0.135 C 
HETATM    8  N4  UNL     1      24.029   3.063  49.990  1.00  0.00    -0.274 NA
HETATM    9  C13 UNL     1      24.794   2.546  50.902  1.00  0.00     0.108 C 
HETATM   10  C14 UNL     1      25.230   1.468  51.886  1.00  0.00     0.043 A 
HETATM   11  C15 UNL     1      26.745   1.075  51.472  1.00  0.00     0.048 A 
HETATM   12  C16 UNL     1      26.030   0.656  52.328  1.00  0.00    -0.051 A 
HETATM   13  C17 UNL     1      25.453   0.337  52.991  1.00  0.00    -0.052 A 
HETATM   14  C18 UNL     1      24.614  -0.093  53.915  1.00  0.00     0.036 A 
HETATM   15  C19 UNL     1      23.333  -0.741  53.183  1.00  0.00     0.019 C 
HETATM   16  C20 UNL     1      22.909   0.556  52.967  1.00  0.00     0.051 A 
HETATM   17  C21 UNL     1      22.832   2.053  52.776  1.00  0.00     0.076 A 
HETATM   18  C22 UNL     1      23.819   1.332  52.982  1.00  0.00     0.032 A 
HETATM   19  N6  UNL     1      19.717   0.887  50.096  1.00  0.00    -0.281 N 
HETATM   20  H22 UNL     1      19.184   1.102  49.240  1.00  0.00     0.189 HD
ENDROOT
BRANCH   1  21
HETATM   21  C7  UNL     1      18.020  -0.210  51.465  1.00  0.00     0.057 C 
HETATM   22  C6  UNL     1      17.098   0.994  51.406  1.00  0.00     0.013 C 
HETATM   23  C5  UNL     1      15.760   0.667  52.056  1.00  0.00     0.007 C 
HETATM   24  C4  UNL     1      15.446  -0.812  51.892  1.00  0.00     0.003 C 
HETATM   25  C24 UNL     1      16.450  -1.699  52.558  1.00  0.00     0.007 C 
HETATM   26  C23 UNL     1      17.751  -0.943  52.730  1.00  0.00     0.013 C 
BRANCH  24  27
HETATM   27  C3  UNL     1      14.092  -1.071  52.508  1.00  0.00     0.127 C 
BRANCH  27  28
HETATM   28  N1  UNL     1      13.798  -0.195  53.622  1.00  0.00    -0.361 N 
HETATM   29  C2  UNL     1      12.504   0.301  53.880  1.00  0.00     0.213 C 
HETATM   30  C1  UNL     1      12.164   1.199  55.011  1.00  0.00     0.117 C 
HETATM   31  O1  UNL     1      11.604  -0.074  53.063  1.00  0.00    -0.274 OA
HETATM   32  H4  UNL     1      14.534   0.130  54.313  1.00  0.00     0.162 HD
ENDBRANCH  27  28
ENDBRANCH  24  27
ENDBRANCH   1  21
BRANCH  17  33
HETATM   33  N5  UNL     1      23.630   3.178  52.885  1.00  0.00    -0.418 N 
HETATM   34  H20 UNL     1      24.109   3.007  51.946  1.00  0.00     0.150 HD
HETATM   35  H21 UNL     1      24.048   4.034  53.260  1.00  0.00     0.150 HD
ENDBRANCH  17  33
TORSDOF 4
ENDMDL
MODEL 7
REMARK VINA RESULT:      -9.0      4.265      8.327
REMARK  4 active torsions:
REMARK  status: ('A' for Active; 'I' for Inactive)
REMARK       I    between atoms: C2_2  and  N1_4 
REMARK    1  A    between atoms: N1_4  and  C3_5 
REMARK    2  A    between atoms: C3_5  and  C4_6 
REMARK    3  A    between atoms: C7_9  and  C8_10 
REMARK    4  A    between atoms: C21_26  and  N5_27 
ROOT
HETATM    1  C8  UNL     1      21.658   3.232  50.847  1.00  0.00     0.123 A 
HETATM    2  N2  UNL     1      21.782   2.453  51.896  1.00  0.00    -0.236 NA
HETATM    3  C9  UNL     1      23.028   1.934  52.244  1.00  0.00     0.066 A 
HETATM    4  C10 UNL     1      23.720   2.485  51.267  1.00  0.00     0.143 A 
HETATM    5  N3  UNL     1      23.970   3.265  50.112  1.00  0.00    -0.274 N 
HETATM    6  C11 UNL     1      25.264   3.402  49.566  1.00  0.00     0.135 C 
HETATM    7  C12 UNL     1      26.224   3.055  50.399  1.00  0.00     0.135 C 
HETATM    8  N4  UNL     1      27.163   2.669  51.342  1.00  0.00    -0.274 NA
HETATM    9  C13 UNL     1      27.134   1.682  52.185  1.00  0.00     0.108 C 
HETATM   10  C14 UNL     1      26.519   0.461  52.857  1.00  0.00     0.043 A 
HETATM   11  C15 UNL     1      27.582  -0.742  52.652  1.00  0.00     0.048 A 
HETATM   12  C16 UNL     1      26.514  -0.718  53.178  1.00  0.00    -0.051 A 
HETATM   13  C17 UNL     1      25.672  -0.681  53.583  1.00  0.00    -0.052 A 
HETATM   14  C18 UNL     1      24.480  -0.596  54.145  1.00  0.00     0.036 A 
HETATM   15  C19 UNL     1      23.406  -0.204  53.011  1.00  0.00     0.019 C 
HETATM   16  C20 UNL     1      23.888   1.085  53.123  1.00  0.00     0.051 A 
HETATM   17  C21 UNL     1      24.734   2.309  53.389  1.00  0.00     0.076 A 
HETATM   18  C22 UNL     1      25.002   1.110  53.556  1.00  0.00     0.032 A 
HETATM   19  N6  UNL     1      22.660   3.686  49.918  1.00  0.00    -0.281 N 
HETATM   20  H22 UNL     1      22.675   4.289  49.081  1.00  0.00     0.189 HD
ENDROOT
BRANCH   1  21
HETATM   21  C7  UNL     1      20.295   3.743  50.518  1.00  0.00     0.057 C 
HETATM   22  C6  UNL     1      19.312   3.210  51.544  1.00  0.00     0.013 C 
HETATM   23  C5  UNL     1      17.901   3.207  50.972  1.00  0.00     0.007 C 
HETATM   24  C4  UNL     1      17.743   4.333  49.962  1.00  0.00     0.003 C 
HETATM   25  C24 UNL     1      18.660   4.196  48.787  1.00  0.00     0.007 C 
HETATM   26  C23 UNL     1      19.836   3.322  49.168  1.00  0.00     0.013 C 
BRANCH  24  27
HETATM   27  C3  UNL     1      16.318   4.315  49.464  1.00  0.00     0.127 C 
BRANCH  27  28
HETATM   28  N1  UNL     1      15.352   4.626  50.496  1.00  0.00    -0.361 N 
HETATM   29  C2  UNL     1      14.315   3.743  50.862  1.00  0.00     0.213 C 
HETATM   30  C1  UNL     1      13.309   4.027  51.913  1.00  0.00     0.117 C 
HETATM   31  O1  UNL     1      14.282   2.647  50.219  1.00  0.00    -0.274 OA
HETATM   32  H4  UNL     1      15.362   5.536  51.042  1.00  0.00     0.162 HD
ENDBRANCH  27  28
ENDBRANCH  24  27
ENDBRANCH   1  21
BRANCH  17  33
HETATM   33  N5  UNL     1      25.927   2.661  53.993  1.00  0.00    -0.418 N 
HETATM   34  H20 UNL     1      26.193   3.344  53.217  1.00  0.00     0.150 HD
HETATM   35  H21 UNL     1      26.695   2.696  54.670  1.00  0.00     0.150 HD
ENDBRANCH  17  33
TORSDOF 4
ENDMDL
MODEL 8
REMARK VINA RESULT:      -8.9      3.282      9.212
REMARK  4 active torsions:
REMARK  status: ('A' for Active; 'I' for Inactive)
REMARK       I    between atoms: C2_2  and  N1_4 
REMARK    1  A    between atoms: N1_4  and  C3_5 
REMARK    2  A    between atoms: C3_5  and  C4_6 
REMARK    3  A    between atoms: C7_9  and  C8_10 
REMARK    4  A    between atoms: C21_26  and  N5_27 
ROOT
HETATM    1  C8  UNL     1      24.361   4.414  50.057  1.00  0.00     0.123 A 
HETATM    2  N2  UNL     1      25.638   4.708  50.138  1.00  0.00    -0.236 NA
HETATM    3  C9  UNL     1      26.196   5.663  49.288  1.00  0.00     0.066 A 
HETATM    4  C10 UNL     1      25.096   5.963  48.626  1.00  0.00     0.143 A 
HETATM    5  N3  UNL     1      23.731   5.916  48.259  1.00  0.00    -0.274 N 
HETATM    6  C11 UNL     1      23.199   6.740  47.244  1.00  0.00     0.135 C 
HETATM    7  C12 UNL     1      23.972   7.761  46.938  1.00  0.00     0.135 C 
HETATM    8  N4  UNL     1      24.850   8.803  46.685  1.00  0.00    -0.274 NA
HETATM    9  C13 UNL     1      26.146   8.799  46.626  1.00  0.00     0.108 C 
HETATM   10  C14 UNL     1      27.528   8.158  46.694  1.00  0.00     0.043 A 
HETATM   11  C15 UNL     1      28.222   8.444  45.260  1.00  0.00     0.048 A 
HETATM   12  C16 UNL     1      28.611   7.852  46.218  1.00  0.00    -0.051 A 
HETATM   13  C17 UNL     1      28.898   7.390  46.978  1.00  0.00    -0.052 A 
HETATM   14  C18 UNL     1      29.272   6.741  48.065  1.00  0.00     0.036 A 
HETATM   15  C19 UNL     1      28.267   5.503  48.295  1.00  0.00     0.019 C 
HETATM   16  C20 UNL     1      27.373   6.434  48.789  1.00  0.00     0.051 A 
HETATM   17  C21 UNL     1      26.615   7.700  49.112  1.00  0.00     0.076 A 
HETATM   18  C22 UNL     1      27.596   7.532  48.372  1.00  0.00     0.032 A 
HETATM   19  N6  UNL     1      23.351   4.946  49.179  1.00  0.00    -0.281 N 
HETATM   20  H22 UNL     1      22.341   4.795  49.035  1.00  0.00     0.189 HD
ENDROOT
BRANCH   1  21
HETATM   21  C7  UNL     1      23.828   3.373  50.983  1.00  0.00     0.057 C 
HETATM   22  C6  UNL     1      24.957   2.884  51.871  1.00  0.00     0.013 C 
HETATM   23  C5  UNL     1      24.644   1.492  52.405  1.00  0.00     0.007 C 
HETATM   24  C4  UNL     1      23.141   1.312  52.549  1.00  0.00     0.003 C 
HETATM   25  C24 UNL     1      22.412   1.423  51.247  1.00  0.00     0.007 C 
HETATM   26  C23 UNL     1      23.259   2.203  50.263  1.00  0.00     0.013 C 
BRANCH  24  27
HETATM   27  C3  UNL     1      22.890  -0.060  53.126  1.00  0.00     0.127 C 
BRANCH  27  28
HETATM   28  N1  UNL     1      21.519  -0.498  52.976  1.00  0.00    -0.361 N 
HETATM   29  C2  UNL     1      20.829  -1.204  53.982  1.00  0.00     0.213 C 
HETATM   30  C1  UNL     1      19.425  -1.667  53.864  1.00  0.00     0.117 C 
HETATM   31  O1  UNL     1      21.496  -1.435  55.039  1.00  0.00    -0.274 OA
HETATM   32  H4  UNL     1      20.946  -0.316  52.101  1.00  0.00     0.162 HD
ENDBRANCH  27  28
ENDBRANCH  24  27
ENDBRANCH   1  21
BRANCH  17  33
HETATM   33  N5  UNL     1      26.710   9.068  48.927  1.00  0.00    -0.418 N 
HETATM   34  H20 UNL     1      27.763   9.036  48.756  1.00  0.00     0.150 HD
HETATM   35  H21 UNL     1      26.445  10.054  48.851  1.00  0.00     0.150 HD
ENDBRANCH  17  33
TORSDOF 4
ENDMDL
MODEL 9
REMARK VINA RESULT:      -8.8      4.953      9.841
REMARK  4 active torsions:
REMARK  status: ('A' for Active; 'I' for Inactive)
REMARK       I    between atoms: C2_2  and  N1_4 
REMARK    1  A    between atoms: N1_4  and  C3_5 
REMARK    2  A    between atoms: C3_5  and  C4_6 
REMARK    3  A    between atoms: C7_9  and  C8_10 
REMARK    4  A    between atoms: C21_26  and  N5_27 
ROOT
HETATM    1  C8  UNL     1      21.671   0.030  53.338  1.00  0.00     0.123 A 
HETATM    2  N2  UNL     1      22.360   0.631  52.397  1.00  0.00    -0.236 NA
HETATM    3  C9  UNL     1      23.741   0.779  52.520  1.00  0.00     0.066 A 
HETATM    4  C10 UNL     1      23.871   0.185  53.689  1.00  0.00     0.143 A 
HETATM    5  N3  UNL     1      23.481  -0.498  54.866  1.00  0.00    -0.274 N 
HETATM    6  C11 UNL     1      24.415  -0.893  55.848  1.00  0.00     0.135 C 
HETATM    7  C12 UNL     1      25.660  -0.893  55.417  1.00  0.00     0.135 C 
HETATM    8  N4  UNL     1      26.935  -0.861  54.876  1.00  0.00    -0.274 NA
HETATM    9  C13 UNL     1      27.472   0.000  54.068  1.00  0.00     0.108 C 
HETATM   10  C14 UNL     1      27.489   1.254  53.202  1.00  0.00     0.043 A 
HETATM   11  C15 UNL     1      28.700   2.167  53.764  1.00  0.00     0.048 A 
HETATM   12  C16 UNL     1      27.918   2.353  52.885  1.00  0.00    -0.051 A 
HETATM   13  C17 UNL     1      27.294   2.482  52.202  1.00  0.00    -0.052 A 
HETATM   14  C18 UNL     1      26.396   2.636  51.246  1.00  0.00     0.036 A 
HETATM   15  C19 UNL     1      24.931   2.656  51.915  1.00  0.00     0.019 C 
HETATM   16  C20 UNL     1      25.049   1.282  52.004  1.00  0.00     0.051 A 
HETATM   17  C21 UNL     1      25.565  -0.136  52.081  1.00  0.00     0.076 A 
HETATM   18  C22 UNL     1      26.193   0.931  52.007  1.00  0.00     0.032 A 
HETATM   19  N6  UNL     1      22.123  -0.554  54.575  1.00  0.00    -0.281 N 
HETATM   20  H22 UNL     1      21.681  -1.043  55.368  1.00  0.00     0.189 HD
ENDROOT
BRANCH   1  21
HETATM   21  C7  UNL     1      20.195  -0.083  53.155  1.00  0.00     0.057 C 
HETATM   22  C6  UNL     1      19.715  -1.354  53.832  1.00  0.00     0.013 C 
HETATM   23  C5  UNL     1      18.397  -1.812  53.223  1.00  0.00     0.007 C 
HETATM   24  C4  UNL     1      17.606  -0.613  52.724  1.00  0.00     0.003 C 
HETATM   25  C24 UNL     1      18.313   0.145  51.645  1.00  0.00     0.007 C 
HETATM   26  C23 UNL     1      19.798  -0.139  51.723  1.00  0.00     0.013 C 
BRANCH  24  27
HETATM   27  C3  UNL     1      16.292  -1.117  52.177  1.00  0.00     0.127 C 
BRANCH  27  28
HETATM   28  N1  UNL     1      15.175  -0.869  53.062  1.00  0.00    -0.361 N 
HETATM   29  C2  UNL     1      14.344   0.263  52.943  1.00  0.00     0.213 C 
HETATM   30  C1  UNL     1      13.191   0.550  53.831  1.00  0.00     0.117 C 
HETATM   31  O1  UNL     1      14.644   1.061  52.000  1.00  0.00    -0.274 OA
HETATM   32  H4  UNL     1      14.910  -1.522  53.856  1.00  0.00     0.162 HD
ENDBRANCH  27  28
ENDBRANCH  24  27
ENDBRANCH   1  21
BRANCH  17  33
HETATM   33  N5  UNL     1      26.749  -0.841  51.957  1.00  0.00    -0.418 N 
HETATM   34  H20 UNL     1      26.816  -1.037  53.005  1.00  0.00     0.150 HD
HETATM   35  H21 UNL     1      27.573  -1.282  51.538  1.00  0.00     0.150 HD
ENDBRANCH  17  33
TORSDOF 4
ENDMDL
