MODEL 1
REMARK VINA RESULT:      -8.2      0.000      0.000
REMARK  8 active torsions:
REMARK  status: ('A' for Active; 'I' for Inactive)
REMARK    1  A    between atoms: C2_2  and  O1_3 
REMARK    2  A    between atoms: O1_3  and  C3_4 
REMARK    3  A    between atoms: C5_6  and  C6_7 
REMARK    4  A    between atoms: C6_7  and  C8_10 
REMARK       I    between atoms: C8_10  and  N2_11 
REMARK    5  A    between atoms: C9_13  and  C10_14 
REMARK    6  A    between atoms: C10_14  and  S1_15 
REMARK    7  A    between atoms: S1_15  and  C11_16 
REMARK    8  A    between atoms: C19_24  and  O3_25 
ROOT
HETATM    1  C6  UNL     1      26.213   1.585  53.750  1.00  0.00     0.196 C 
HETATM    2  C7  UNL     1      26.425   0.446  54.637  1.00  0.00     0.074 C 
HETATM    3  N1  UNL     1      26.585  -0.452  55.357  1.00  0.00    -0.196 NA
ENDROOT
BRANCH   1   4
HETATM    4  C5  UNL     1      25.508   1.143  52.481  1.00  0.00     0.070 A 
HETATM    5  C4  UNL     1      24.675  -0.033  52.931  1.00  0.00     0.024 A 
HETATM    6  C3  UNL     1      23.385   0.185  52.799  1.00  0.00     0.099 A 
HETATM    7  C19 UNL     1      23.293   1.523  52.246  1.00  0.00     0.102 A 
HETATM    8  C9  UNL     1      24.491   2.119  52.041  1.00  0.00    -0.025 A 
BRANCH   6   9
HETATM    9  O1  UNL     1      22.539  -0.837  53.188  1.00  0.00    -0.349 OA
BRANCH   9  10
HETATM   10  C2  UNL     1      22.119  -0.906  54.558  1.00  0.00     0.171 C 
HETATM   11  C1  UNL     1      20.971   0.053  54.796  1.00  0.00     0.034 C 
ENDBRANCH   9  10
ENDBRANCH   6   9
BRANCH   7  12
HETATM   12  O3  UNL     1      21.952   1.892  52.050  1.00  0.00    -0.358 OA
HETATM   13  H22 UNL     1      21.747   2.836  51.699  1.00  0.00     0.217 HD
ENDBRANCH   7  12
BRANCH   8  14
HETATM   14  C10 UNL     1      24.354   3.468  51.439  1.00  0.00     0.116 C 
BRANCH  14  15
HETATM   15  S1  UNL     1      24.749   3.624  49.713  1.00  0.00    -0.136 SA
BRANCH  15  16
HETATM   16  C11 UNL     1      26.465   3.709  49.319  1.00  0.00     0.056 C 
HETATM   17  C12 UNL     1      26.967   4.866  48.863  1.00  0.00    -0.031 A 
HETATM   18  C13 UNL     1      26.057   5.994  48.719  1.00  0.00     0.008 A 
HETATM   19  C18 UNL     1      28.364   5.067  48.500  1.00  0.00     0.008 A 
HETATM   20  C14 UNL     1      26.523   7.140  48.272  1.00  0.00    -0.018 A 
HETATM   21  C15 UNL     1      27.916   7.386  47.897  1.00  0.00     0.026 A 
HETATM   22  C16 UNL     1      28.448   8.539  48.751  1.00  0.00     0.018 C 
HETATM   23  C17 UNL     1      28.799   6.226  48.056  1.00  0.00    -0.018 A 
ENDBRANCH  15  16
ENDBRANCH  14  15
ENDBRANCH   8  14
ENDBRANCH   1   4
BRANCH   1  24
HETATM   24  C8  UNL     1      27.581   2.123  53.405  1.00  0.00     0.234 C 
HETATM   25  N2  UNL     1      28.706   2.308  54.251  1.00  0.00    -0.369 N 
HETATM   26  H9  UNL     1      28.836   1.262  54.349  1.00  0.00     0.159 HD
HETATM   27  H10 UNL     1      29.147   3.196  54.581  1.00  0.00     0.159 HD
HETATM   28  O2  UNL     1      27.886   2.495  52.222  1.00  0.00    -0.272 OA
ENDBRANCH   1  24
TORSDOF 8
ENDMDL
MODEL 2
REMARK VINA RESULT:      -8.0      2.279      4.095
REMARK  8 active torsions:
REMARK  status: ('A' for Active; 'I' for Inactive)
REMARK    1  A    between atoms: C2_2  and  O1_3 
REMARK    2  A    between atoms: O1_3  and  C3_4 
REMARK    3  A    between atoms: C5_6  and  C6_7 
REMARK    4  A    between atoms: C6_7  and  C8_10 
REMARK       I    between atoms: C8_10  and  N2_11 
REMARK    5  A    between atoms: C9_13  and  C10_14 
REMARK    6  A    between atoms: C10_14  and  S1_15 
REMARK    7  A    between atoms: S1_15  and  C11_16 
REMARK    8  A    between atoms: C19_24  and  O3_25 
ROOT
HETATM    1  C6  UNL     1      22.705  -0.508  53.167  1.00  0.00     0.196 C 
HETATM    2  C7  UNL     1      22.413  -1.255  54.386  1.00  0.00     0.074 C 
HETATM    3  N1  UNL     1      22.186  -1.866  55.348  1.00  0.00    -0.196 NA
ENDROOT
BRANCH   1   4
HETATM    4  C5  UNL     1      23.754   0.555  53.436  1.00  0.00     0.070 A 
HETATM    5  C4  UNL     1      24.852  -0.204  54.144  1.00  0.00     0.024 A 
HETATM    6  C3  UNL     1      25.975  -0.218  53.460  1.00  0.00     0.099 A 
HETATM    7  C19 UNL     1      25.683   0.540  52.258  1.00  0.00     0.102 A 
HETATM    8  C9  UNL     1      24.414   1.010  52.197  1.00  0.00    -0.025 A 
BRANCH   6   9
HETATM    9  O1  UNL     1      27.040  -0.891  54.028  1.00  0.00    -0.349 OA
BRANCH   9  10
HETATM   10  C2  UNL     1      28.241  -0.165  54.327  1.00  0.00     0.171 C 
HETATM   11  C1  UNL     1      29.431  -0.850  53.689  1.00  0.00     0.034 C 
ENDBRANCH   9  10
ENDBRANCH   6   9
BRANCH   7  12
HETATM   12  O3  UNL     1      26.810   0.608  51.423  1.00  0.00    -0.358 OA
HETATM   13  H22 UNL     1      26.900   1.404  50.780  1.00  0.00     0.217 HD
ENDBRANCH   7  12
BRANCH   8  14
HETATM   14  C10 UNL     1      24.169   1.812  50.972  1.00  0.00     0.116 C 
BRANCH  14  15
HETATM   15  S1  UNL     1      24.910   3.425  50.904  1.00  0.00    -0.136 SA
BRANCH  15  16
HETATM   16  C11 UNL     1      26.368   3.565  49.922  1.00  0.00     0.056 C 
HETATM   17  C12 UNL     1      26.677   4.756  49.391  1.00  0.00    -0.031 A 
HETATM   18  C13 UNL     1      25.783   5.875  49.656  1.00  0.00     0.008 A 
HETATM   19  C18 UNL     1      27.850   5.004  48.561  1.00  0.00     0.008 A 
HETATM   20  C14 UNL     1      26.063   7.054  49.145  1.00  0.00    -0.018 A 
HETATM   21  C15 UNL     1      27.228   7.347  48.308  1.00  0.00     0.026 A 
HETATM   22  C16 UNL     1      28.039   8.454  48.984  1.00  0.00     0.018 C 
HETATM   23  C17 UNL     1      28.101   6.195  48.064  1.00  0.00    -0.018 A 
ENDBRANCH  15  16
ENDBRANCH  14  15
ENDBRANCH   8  14
ENDBRANCH   1   4
BRANCH   1  24
HETATM   24  C8  UNL     1      21.414   0.154  52.750  1.00  0.00     0.234 C 
HETATM   25  N2  UNL     1      20.843   0.258  51.454  1.00  0.00    -0.369 N 
HETATM   26  H9  UNL     1      20.641  -0.781  51.433  1.00  0.00     0.159 HD
HETATM   27  H10 UNL     1      20.721   1.101  50.849  1.00  0.00     0.159 HD
HETATM   28  O2  UNL     1      20.646   0.735  53.589  1.00  0.00    -0.272 OA
ENDBRANCH   1  24
TORSDOF 8
ENDMDL
MODEL 3
REMARK VINA RESULT:      -7.6      3.763      7.772
REMARK  8 active torsions:
REMARK  status: ('A' for Active; 'I' for Inactive)
REMARK    1  A    between atoms: C2_2  and  O1_3 
REMARK    2  A    between atoms: O1_3  and  C3_4 
REMARK    3  A    between atoms: C5_6  and  C6_7 
REMARK    4  A    between atoms: C6_7  and  C8_10 
REMARK       I    between atoms: C8_10  and  N2_11 
REMARK    5  A    between atoms: C9_13  and  C10_14 
REMARK    6  A    between atoms: C10_14  and  S1_15 
REMARK    7  A    between atoms: S1_15  and  C11_16 
REMARK    8  A    between atoms: C19_24  and  O3_25 
ROOT
HETATM    1  C6  UNL     1      25.443   6.946  50.227  1.00  0.00     0.196 C 
HETATM    2  C7  UNL     1      26.170   8.191  49.998  1.00  0.00     0.074 C 
HETATM    3  N1  UNL     1      26.759   9.179  49.830  1.00  0.00    -0.196 NA
ENDROOT
BRANCH   1   4
HETATM    4  C5  UNL     1      25.531   6.050  49.007  1.00  0.00     0.070 A 
HETATM    5  C4  UNL     1      26.991   6.113  48.626  1.00  0.00     0.024 A 
HETATM    6  C3  UNL     1      27.587   4.945  48.723  1.00  0.00     0.099 A 
HETATM    7  C19 UNL     1      26.547   4.038  49.171  1.00  0.00     0.102 A 
HETATM    8  C9  UNL     1      25.340   4.626  49.347  1.00  0.00    -0.025 A 
BRANCH   6   9
HETATM    9  O1  UNL     1      28.929   4.903  48.396  1.00  0.00    -0.349 OA
BRANCH   9  10
HETATM   10  C2  UNL     1      29.568   6.102  47.933  1.00  0.00     0.171 C 
HETATM   11  C1  UNL     1      30.864   6.320  48.685  1.00  0.00     0.034 C 
ENDBRANCH   9  10
ENDBRANCH   6   9
BRANCH   7  12
HETATM   12  O3  UNL     1      27.049   2.736  49.320  1.00  0.00    -0.358 OA
HETATM   13  H22 UNL     1      27.913   2.481  48.825  1.00  0.00     0.217 HD
ENDBRANCH   7  12
BRANCH   8  14
HETATM   14  C10 UNL     1      24.297   3.658  49.767  1.00  0.00     0.116 C 
BRANCH  14  15
HETATM   15  S1  UNL     1      24.342   3.107  51.456  1.00  0.00    -0.136 SA
BRANCH  15  16
HETATM   16  C11 UNL     1      24.677   1.394  51.701  1.00  0.00     0.056 C 
HETATM   17  C12 UNL     1      25.854   1.035  52.231  1.00  0.00    -0.031 A 
HETATM   18  C13 UNL     1      26.797   2.090  52.577  1.00  0.00     0.008 A 
HETATM   19  C18 UNL     1      26.254  -0.345  52.483  1.00  0.00     0.008 A 
HETATM   20  C14 UNL     1      27.960   1.764  53.097  1.00  0.00    -0.018 A 
HETATM   21  C15 UNL     1      28.402   0.395  53.366  1.00  0.00     0.026 A 
HETATM   22  C16 UNL     1      28.722   0.278  54.858  1.00  0.00     0.018 C 
HETATM   23  C17 UNL     1      27.425  -0.637  53.004  1.00  0.00    -0.018 A 
ENDBRANCH  15  16
ENDBRANCH  14  15
ENDBRANCH   8  14
ENDBRANCH   1   4
BRANCH   1  24
HETATM   24  C8  UNL     1      24.003   7.328  50.470  1.00  0.00     0.234 C 
HETATM   25  N2  UNL     1      23.270   8.425  49.945  1.00  0.00    -0.369 N 
HETATM   26  H9  UNL     1      23.285   8.002  48.975  1.00  0.00     0.159 HD
HETATM   27  H10 UNL     1      22.906   9.273  50.434  1.00  0.00     0.159 HD
HETATM   28  O2  UNL     1      23.240   6.648  51.235  1.00  0.00    -0.272 OA
ENDBRANCH   1  24
TORSDOF 8
ENDMDL
MODEL 4
REMARK VINA RESULT:      -7.6      2.865      7.645
REMARK  8 active torsions:
REMARK  status: ('A' for Active; 'I' for Inactive)
REMARK    1  A    between atoms: C2_2  and  O1_3 
REMARK    2  A    between atoms: O1_3  and  C3_4 
REMARK    3  A    between atoms: C5_6  and  C6_7 
REMARK    4  A    between atoms: C6_7  and  C8_10 
REMARK       I    between atoms: C8_10  and  N2_11 
REMARK    5  A    between atoms: C9_13  and  C10_14 
REMARK    6  A    between atoms: C10_14  and  S1_15 
REMARK    7  A    between atoms: S1_15  and  C11_16 
REMARK    8  A    between atoms: C19_24  and  O3_25 
ROOT
HETATM    1  C6  UNL     1      26.340   0.668  53.052  1.00  0.00     0.196 C 
HETATM    2  C7  UNL     1      27.448   1.599  52.864  1.00  0.00     0.074 C 
HETATM    3  N1  UNL     1      28.334   2.332  52.699  1.00  0.00    -0.196 NA
ENDROOT
BRANCH   1   4
HETATM    4  C5  UNL     1      25.039   1.424  53.238  1.00  0.00     0.070 A 
HETATM    5  C4  UNL     1      25.170   2.591  52.288  1.00  0.00     0.024 A 
HETATM    6  C3  UNL     1      24.266   2.565  51.333  1.00  0.00     0.099 A 
HETATM    7  C19 UNL     1      23.479   1.377  51.603  1.00  0.00     0.102 A 
HETATM    8  C9  UNL     1      23.883   0.684  52.694  1.00  0.00    -0.025 A 
BRANCH   6   9
HETATM    9  O1  UNL     1      24.307   3.595  50.411  1.00  0.00    -0.349 OA
BRANCH   9  10
HETATM   10  C2  UNL     1      25.483   4.414  50.338  1.00  0.00     0.171 C 
HETATM   11  C1  UNL     1      26.473   3.810  49.364  1.00  0.00     0.034 C 
ENDBRANCH   9  10
ENDBRANCH   6   9
BRANCH   7  12
HETATM   12  O3  UNL     1      22.462   1.223  50.648  1.00  0.00    -0.358 OA
HETATM   13  H22 UNL     1      22.309   1.975  49.964  1.00  0.00     0.217 HD
ENDBRANCH   7  12
BRANCH   8  14
HETATM   14  C10 UNL     1      23.029  -0.500  52.957  1.00  0.00     0.116 C 
BRANCH  14  15
HETATM   15  S1  UNL     1      21.907  -0.395  54.331  1.00  0.00    -0.136 SA
BRANCH  15  16
HETATM   16  C11 UNL     1      20.421  -1.335  54.188  1.00  0.00     0.056 C 
HETATM   17  C12 UNL     1      19.445  -0.882  53.389  1.00  0.00    -0.031 A 
HETATM   18  C13 UNL     1      19.669   0.369  52.680  1.00  0.00     0.008 A 
HETATM   19  C18 UNL     1      18.171  -1.562  53.187  1.00  0.00     0.008 A 
HETATM   20  C14 UNL     1      18.725   0.836  51.890  1.00  0.00    -0.018 A 
HETATM   21  C15 UNL     1      17.434   0.188  51.658  1.00  0.00     0.026 A 
HETATM   22  C16 UNL     1      17.296  -0.084  50.158  1.00  0.00     0.018 C 
HETATM   23  C17 UNL     1      17.248  -1.068  52.391  1.00  0.00    -0.018 A 
ENDBRANCH  15  16
ENDBRANCH  14  15
ENDBRANCH   8  14
ENDBRANCH   1   4
BRANCH   1  24
HETATM   24  C8  UNL     1      26.649  -0.120  54.303  1.00  0.00     0.234 C 
HETATM   25  N2  UNL     1      27.829  -0.116  55.092  1.00  0.00    -0.369 N 
HETATM   26  H9  UNL     1      27.632   0.869  55.426  1.00  0.00     0.159 HD
HETATM   27  H10 UNL     1      28.545  -0.867  55.216  1.00  0.00     0.159 HD
HETATM   28  O2  UNL     1      25.810  -0.935  54.816  1.00  0.00    -0.272 OA
ENDBRANCH   1  24
TORSDOF 8
ENDMDL
MODEL 5
REMARK VINA RESULT:      -7.5      3.837      8.121
REMARK  8 active torsions:
REMARK  status: ('A' for Active; 'I' for Inactive)
REMARK    1  A    between atoms: C2_2  and  O1_3 
REMARK    2  A    between atoms: O1_3  and  C3_4 
REMARK    3  A    between atoms: C5_6  and  C6_7 
REMARK    4  A    between atoms: C6_7  and  C8_10 
REMARK       I    between atoms: C8_10  and  N2_11 
REMARK    5  A    between atoms: C9_13  and  C10_14 
REMARK    6  A    between atoms: C10_14  and  S1_15 
REMARK    7  A    between atoms: S1_15  and  C11_16 
REMARK    8  A    between atoms: C19_24  and  O3_25 
ROOT
HETATM    1  C6  UNL     1      24.898   2.017  52.311  1.00  0.00     0.196 C 
HETATM    2  C7  UNL     1      25.981   2.402  51.411  1.00  0.00     0.074 C 
HETATM    3  N1  UNL     1      26.851   2.718  50.709  1.00  0.00    -0.196 NA
ENDROOT
BRANCH   1   4
HETATM    4  C5  UNL     1      24.751   0.508  52.347  1.00  0.00     0.070 A 
HETATM    5  C4  UNL     1      26.172   0.018  52.495  1.00  0.00     0.024 A 
HETATM    6  C3  UNL     1      26.367  -0.624  53.626  1.00  0.00     0.099 A 
HETATM    7  C19 UNL     1      25.077  -0.599  54.290  1.00  0.00     0.102 A 
HETATM    8  C9  UNL     1      24.109   0.041  53.592  1.00  0.00    -0.025 A 
BRANCH   6   9
HETATM    9  O1  UNL     1      27.641  -1.110  53.853  1.00  0.00    -0.349 OA
BRANCH   9  10
HETATM   10  C2  UNL     1      28.694  -0.182  54.155  1.00  0.00     0.171 C 
HETATM   11  C1  UNL     1      29.999  -0.672  53.562  1.00  0.00     0.034 C 
ENDBRANCH   9  10
ENDBRANCH   6   9
BRANCH   7  12
HETATM   12  O3  UNL     1      25.140  -1.258  55.528  1.00  0.00    -0.358 OA
HETATM   13  H22 UNL     1      24.302  -1.745  55.870  1.00  0.00     0.217 HD
ENDBRANCH   7  12
BRANCH   8  14
HETATM   14  C10 UNL     1      22.799   0.009  54.287  1.00  0.00     0.116 C 
BRANCH  14  15
HETATM   15  S1  UNL     1      21.479  -0.862  53.478  1.00  0.00    -0.136 SA
BRANCH  15  16
HETATM   16  C11 UNL     1      20.596   0.043  52.249  1.00  0.00     0.056 C 
HETATM   17  C12 UNL     1      19.272  -0.136  52.141  1.00  0.00    -0.031 A 
HETATM   18  C13 UNL     1      18.634  -1.077  53.051  1.00  0.00     0.008 A 
HETATM   19  C18 UNL     1      18.428   0.548  51.168  1.00  0.00     0.008 A 
HETATM   20  C14 UNL     1      17.336  -1.273  52.965  1.00  0.00    -0.018 A 
HETATM   21  C15 UNL     1      16.453  -0.609  52.006  1.00  0.00     0.026 A 
HETATM   22  C16 UNL     1      15.373   0.142  52.787  1.00  0.00     0.018 C 
HETATM   23  C17 UNL     1      17.133   0.329  51.107  1.00  0.00    -0.018 A 
ENDBRANCH  15  16
ENDBRANCH  14  15
ENDBRANCH   8  14
ENDBRANCH   1   4
BRANCH   1  24
HETATM   24  C8  UNL     1      23.637   2.633  51.754  1.00  0.00     0.234 C 
HETATM   25  N2  UNL     1      22.770   3.585  52.352  1.00  0.00    -0.369 N 
HETATM   26  H9  UNL     1      23.505   4.341  52.273  1.00  0.00     0.159 HD
HETATM   27  H10 UNL     1      21.791   3.464  52.698  1.00  0.00     0.159 HD
HETATM   28  O2  UNL     1      23.188   2.333  50.597  1.00  0.00    -0.272 OA
ENDBRANCH   1  24
TORSDOF 8
ENDMDL
MODEL 6
REMARK VINA RESULT:      -7.5      3.422      8.499
REMARK  8 active torsions:
REMARK  status: ('A' for Active; 'I' for Inactive)
REMARK    1  A    between atoms: C2_2  and  O1_3 
REMARK    2  A    between atoms: O1_3  and  C3_4 
REMARK    3  A    between atoms: C5_6  and  C6_7 
REMARK    4  A    between atoms: C6_7  and  C8_10 
REMARK       I    between atoms: C8_10  and  N2_11 
REMARK    5  A    between atoms: C9_13  and  C10_14 
REMARK    6  A    between atoms: C10_14  and  S1_15 
REMARK    7  A    between atoms: S1_15  and  C11_16 
REMARK    8  A    between atoms: C19_24  and  O3_25 
ROOT
HETATM    1  C6  UNL     1      25.914   7.366  50.118  1.00  0.00     0.196 C 
HETATM    2  C7  UNL     1      26.501   8.669  49.824  1.00  0.00     0.074 C 
HETATM    3  N1  UNL     1      26.980   9.705  49.603  1.00  0.00    -0.196 NA
ENDROOT
BRANCH   1   4
HETATM    4  C5  UNL     1      25.942   6.483  48.885  1.00  0.00     0.070 A 
HETATM    5  C4  UNL     1      27.411   6.397  48.544  1.00  0.00     0.024 A 
HETATM    6  C3  UNL     1      27.878   5.171  48.638  1.00  0.00     0.099 A 
HETATM    7  C19 UNL     1      26.736   4.373  49.043  1.00  0.00     0.102 A 
HETATM    8  C9  UNL     1      25.593   5.082  49.197  1.00  0.00    -0.025 A 
BRANCH   6   9
HETATM    9  O1  UNL     1      29.217   4.993  48.346  1.00  0.00    -0.349 OA
BRANCH   9  10
HETATM   10  C2  UNL     1      29.997   6.130  47.947  1.00  0.00     0.171 C 
HETATM   11  C1  UNL     1      31.199   6.276  48.858  1.00  0.00     0.034 C 
ENDBRANCH   9  10
ENDBRANCH   6   9
BRANCH   7  12
HETATM   12  O3  UNL     1      27.095   3.023  49.183  1.00  0.00    -0.358 OA
HETATM   13  H22 UNL     1      27.659   2.583  48.445  1.00  0.00     0.217 HD
ENDBRANCH   7  12
BRANCH   8  14
HETATM   14  C10 UNL     1      24.443   4.223  49.572  1.00  0.00     0.116 C 
BRANCH  14  15
HETATM   15  S1  UNL     1      24.286   3.792  51.288  1.00  0.00    -0.136 SA
BRANCH  15  16
HETATM   16  C11 UNL     1      22.690   3.249  51.805  1.00  0.00     0.056 C 
HETATM   17  C12 UNL     1      22.565   2.026  52.339  1.00  0.00    -0.031 A 
HETATM   18  C13 UNL     1      23.765   1.210  52.462  1.00  0.00     0.008 A 
HETATM   19  C18 UNL     1      21.305   1.458  52.802  1.00  0.00     0.008 A 
HETATM   20  C14 UNL     1      23.670   0.004  52.981  1.00  0.00    -0.018 A 
HETATM   21  C15 UNL     1      22.427  -0.604  53.459  1.00  0.00     0.026 A 
HETATM   22  C16 UNL     1      22.606  -0.968  54.934  1.00  0.00     0.018 C 
HETATM   23  C17 UNL     1      21.243   0.249  53.317  1.00  0.00    -0.018 A 
ENDBRANCH  15  16
ENDBRANCH  14  15
ENDBRANCH   8  14
ENDBRANCH   1   4
BRANCH   1  24
HETATM   24  C8  UNL     1      24.482   7.621  50.523  1.00  0.00     0.234 C 
HETATM   25  N2  UNL     1      23.818   7.264  51.726  1.00  0.00    -0.369 N 
HETATM   26  H9  UNL     1      24.391   7.962  52.278  1.00  0.00     0.159 HD
HETATM   27  H10 UNL     1      23.061   6.560  51.881  1.00  0.00     0.159 HD
HETATM   28  O2  UNL     1      23.659   8.232  49.761  1.00  0.00    -0.272 OA
ENDBRANCH   1  24
TORSDOF 8
ENDMDL
MODEL 7
REMARK VINA RESULT:      -7.5      1.879      2.258
REMARK  8 active torsions:
REMARK  status: ('A' for Active; 'I' for Inactive)
REMARK    1  A    between atoms: C2_2  and  O1_3 
REMARK    2  A    between atoms: O1_3  and  C3_4 
REMARK    3  A    between atoms: C5_6  and  C6_7 
REMARK    4  A    between atoms: C6_7  and  C8_10 
REMARK       I    between atoms: C8_10  and  N2_11 
REMARK    5  A    between atoms: C9_13  and  C10_14 
REMARK    6  A    between atoms: C10_14  and  S1_15 
REMARK    7  A    between atoms: S1_15  and  C11_16 
REMARK    8  A    between atoms: C19_24  and  O3_25 
ROOT
HETATM    1  C6  UNL     1      24.392  -0.002  54.125  1.00  0.00     0.196 C 
HETATM    2  C7  UNL     1      23.602  -0.975  54.873  1.00  0.00     0.074 C 
HETATM    3  N1  UNL     1      22.971  -1.737  55.482  1.00  0.00    -0.196 NA
ENDROOT
BRANCH   1   4
HETATM    4  C5  UNL     1      23.791   0.224  52.751  1.00  0.00     0.070 A 
HETATM    5  C4  UNL     1      22.331  -0.111  52.945  1.00  0.00     0.024 A 
HETATM    6  C3  UNL     1      21.547   0.926  52.745  1.00  0.00     0.099 A 
HETATM    7  C19 UNL     1      22.449   2.008  52.400  1.00  0.00     0.102 A 
HETATM    8  C9  UNL     1      23.756   1.654  52.387  1.00  0.00    -0.025 A 
BRANCH   6   9
HETATM    9  O1  UNL     1      20.190   0.717  52.902  1.00  0.00    -0.349 OA
BRANCH   9  10
HETATM   10  C2  UNL     1      19.738  -0.532  53.446  1.00  0.00     0.171 C 
HETATM   11  C1  UNL     1      18.356  -0.856  52.917  1.00  0.00     0.034 C 
ENDBRANCH   9  10
ENDBRANCH   6   9
BRANCH   7  12
HETATM   12  O3  UNL     1      21.737   3.194  52.157  1.00  0.00    -0.358 OA
HETATM   13  H22 UNL     1      21.907   3.699  51.279  1.00  0.00     0.217 HD
ENDBRANCH   7  12
BRANCH   8  14
HETATM   14  C10 UNL     1      24.640   2.778  51.992  1.00  0.00     0.116 C 
BRANCH  14  15
HETATM   15  S1  UNL     1      24.811   3.095  50.252  1.00  0.00    -0.136 SA
BRANCH  15  16
HETATM   16  C11 UNL     1      26.454   3.374  49.675  1.00  0.00     0.056 C 
HETATM   17  C12 UNL     1      26.754   4.560  49.128  1.00  0.00    -0.031 A 
HETATM   18  C13 UNL     1      25.697   5.558  49.040  1.00  0.00     0.008 A 
HETATM   19  C18 UNL     1      28.071   4.915  48.612  1.00  0.00     0.008 A 
HETATM   20  C14 UNL     1      25.965   6.729  48.505  1.00  0.00    -0.018 A 
HETATM   21  C15 UNL     1      27.270   7.128  47.976  1.00  0.00     0.026 A 
HETATM   22  C16 UNL     1      27.731   8.379  48.727  1.00  0.00     0.018 C 
HETATM   23  C17 UNL     1      28.306   6.096  48.083  1.00  0.00    -0.018 A 
ENDBRANCH  15  16
ENDBRANCH  14  15
ENDBRANCH   8  14
ENDBRANCH   1   4
BRANCH   1  24
HETATM   24  C8  UNL     1      25.775  -0.592  53.979  1.00  0.00     0.234 C 
HETATM   25  N2  UNL     1      26.349  -1.255  52.863  1.00  0.00    -0.369 N 
HETATM   26  H9  UNL     1      26.372  -0.354  52.308  1.00  0.00     0.159 HD
HETATM   27  H10 UNL     1      26.607  -2.262  52.751  1.00  0.00     0.159 HD
HETATM   28  O2  UNL     1      26.633  -0.551  54.923  1.00  0.00    -0.272 OA
ENDBRANCH   1  24
TORSDOF 8
ENDMDL
MODEL 8
REMARK VINA RESULT:      -7.3      1.924      4.151
REMARK  8 active torsions:
REMARK  status: ('A' for Active; 'I' for Inactive)
REMARK    1  A    between atoms: C2_2  and  O1_3 
REMARK    2  A    between atoms: O1_3  and  C3_4 
REMARK    3  A    between atoms: C5_6  and  C6_7 
REMARK    4  A    between atoms: C6_7  and  C8_10 
REMARK       I    between atoms: C8_10  and  N2_11 
REMARK    5  A    between atoms: C9_13  and  C10_14 
REMARK    6  A    between atoms: C10_14  and  S1_15 
REMARK    7  A    between atoms: S1_15  and  C11_16 
REMARK    8  A    between atoms: C19_24  and  O3_25 
ROOT
HETATM    1  C6  UNL     1      24.601   0.081  53.212  1.00  0.00     0.196 C 
HETATM    2  C7  UNL     1      24.999  -0.676  54.394  1.00  0.00     0.074 C 
HETATM    3  N1  UNL     1      25.326  -1.289  55.325  1.00  0.00    -0.196 NA
ENDROOT
BRANCH   1   4
HETATM    4  C5  UNL     1      24.914   1.554  53.396  1.00  0.00     0.070 A 
HETATM    5  C4  UNL     1      26.260   1.546  54.082  1.00  0.00     0.024 A 
HETATM    6  C3  UNL     1      27.200   2.103  53.350  1.00  0.00     0.099 A 
HETATM    7  C19 UNL     1      26.524   2.518  52.136  1.00  0.00     0.102 A 
HETATM    8  C9  UNL     1      25.201   2.226  52.113  1.00  0.00    -0.025 A 
BRANCH   6   9
HETATM    9  O1  UNL     1      28.469   2.141  53.895  1.00  0.00    -0.349 OA
BRANCH   9  10
HETATM   10  C2  UNL     1      28.962   0.986  54.590  1.00  0.00     0.171 C 
HETATM   11  C1  UNL     1      29.427  -0.057  53.594  1.00  0.00     0.034 C 
ENDBRANCH   9  10
ENDBRANCH   6   9
BRANCH   7  12
HETATM   12  O3  UNL     1      27.420   3.137  51.251  1.00  0.00    -0.358 OA
HETATM   13  H22 UNL     1      28.416   3.170  51.501  1.00  0.00     0.217 HD
ENDBRANCH   7  12
BRANCH   8  14
HETATM   14  C10 UNL     1      24.541   2.702  50.873  1.00  0.00     0.116 C 
BRANCH  14  15
HETATM   15  S1  UNL     1      23.724   4.278  50.949  1.00  0.00    -0.136 SA
BRANCH  15  16
HETATM   16  C11 UNL     1      23.480   5.096  49.406  1.00  0.00     0.056 C 
HETATM   17  C12 UNL     1      24.395   5.984  48.994  1.00  0.00    -0.031 A 
HETATM   18  C13 UNL     1      25.547   6.225  49.851  1.00  0.00     0.008 A 
HETATM   19  C18 UNL     1      24.311   6.728  47.742  1.00  0.00     0.008 A 
HETATM   20  C14 UNL     1      26.459   7.094  49.471  1.00  0.00    -0.018 A 
HETATM   21  C15 UNL     1      26.415   7.860  48.225  1.00  0.00     0.026 A 
HETATM   22  C16 UNL     1      27.679   7.548  47.423  1.00  0.00     0.018 C 
HETATM   23  C17 UNL     1      25.240   7.590  47.391  1.00  0.00    -0.018 A 
ENDBRANCH  15  16
ENDBRANCH  14  15
ENDBRANCH   8  14
ENDBRANCH   1   4
BRANCH   1  24
HETATM   24  C8  UNL     1      23.109  -0.103  53.066  1.00  0.00     0.234 C 
HETATM   25  N2  UNL     1      22.093   0.884  52.975  1.00  0.00    -0.369 N 
HETATM   26  H9  UNL     1      22.431   1.180  52.017  1.00  0.00     0.159 HD
HETATM   27  H10 UNL     1      21.347   1.132  53.664  1.00  0.00     0.159 HD
HETATM   28  O2  UNL     1      22.570  -1.259  53.007  1.00  0.00    -0.272 OA
ENDBRANCH   1  24
TORSDOF 8
ENDMDL
MODEL 9
REMARK VINA RESULT:      -7.2      3.596      5.327
REMARK  8 active torsions:
REMARK  status: ('A' for Active; 'I' for Inactive)
REMARK    1  A    between atoms: C2_2  and  O1_3 
REMARK    2  A    between atoms: O1_3  and  C3_4 
REMARK    3  A    between atoms: C5_6  and  C6_7 
REMARK    4  A    between atoms: C6_7  and  C8_10 
REMARK       I    between atoms: C8_10  and  N2_11 
REMARK    5  A    between atoms: C9_13  and  C10_14 
REMARK    6  A    between atoms: C10_14  and  S1_15 
REMARK    7  A    between atoms: S1_15  and  C11_16 
REMARK    8  A    between atoms: C19_24  and  O3_25 
ROOT
HETATM    1  C6  UNL     1      22.719  -0.505  53.044  1.00  0.00     0.196 C 
HETATM    2  C7  UNL     1      22.208  -1.294  54.160  1.00  0.00     0.074 C 
HETATM    3  N1  UNL     1      21.806  -1.938  55.040  1.00  0.00    -0.196 NA
ENDROOT
BRANCH   1   4
HETATM    4  C5  UNL     1      23.727   0.517  53.536  1.00  0.00     0.070 A 
HETATM    5  C4  UNL     1      24.874  -0.330  54.034  1.00  0.00     0.024 A 
HETATM    6  C3  UNL     1      25.979  -0.132  53.350  1.00  0.00     0.099 A 
HETATM    7  C19 UNL     1      25.625   0.867  52.360  1.00  0.00     0.102 A 
HETATM    8  C9  UNL     1      24.335   1.277  52.426  1.00  0.00    -0.025 A 
BRANCH   6   9
HETATM    9  O1  UNL     1      27.086  -0.866  53.733  1.00  0.00    -0.349 OA
BRANCH   9  10
HETATM   10  C2  UNL     1      28.162  -0.198  54.409  1.00  0.00     0.171 C 
HETATM   11  C1  UNL     1      29.452  -0.385  53.638  1.00  0.00     0.034 C 
ENDBRANCH   9  10
ENDBRANCH   6   9
BRANCH   7  12
HETATM   12  O3  UNL     1      26.726   1.179  51.548  1.00  0.00    -0.358 OA
HETATM   13  H22 UNL     1      27.610   0.678  51.702  1.00  0.00     0.217 HD
ENDBRANCH   7  12
BRANCH   8  14
HETATM   14  C10 UNL     1      24.026   2.325  51.423  1.00  0.00     0.116 C 
BRANCH  14  15
HETATM   15  S1  UNL     1      23.042   3.699  51.972  1.00  0.00    -0.136 SA
BRANCH  15  16
HETATM   16  C11 UNL     1      23.662   5.301  51.570  1.00  0.00     0.056 C 
HETATM   17  C12 UNL     1      22.879   6.142  50.880  1.00  0.00    -0.031 A 
HETATM   18  C13 UNL     1      21.552   5.680  50.498  1.00  0.00     0.008 A 
HETATM   19  C18 UNL     1      23.271   7.489  50.483  1.00  0.00     0.008 A 
HETATM   20  C14 UNL     1      20.764   6.485  49.818  1.00  0.00    -0.018 A 
HETATM   21  C15 UNL     1      21.116   7.843  49.401  1.00  0.00     0.026 A 
HETATM   22  C16 UNL     1      20.088   8.809  49.991  1.00  0.00     0.018 C 
HETATM   23  C17 UNL     1      22.460   8.269  49.804  1.00  0.00    -0.018 A 
ENDBRANCH  15  16
ENDBRANCH  14  15
ENDBRANCH   8  14
ENDBRANCH   1   4
BRANCH   1  24
HETATM   24  C8  UNL     1      21.531   0.209  52.443  1.00  0.00     0.234 C 
HETATM   25  N2  UNL     1      20.603   1.081  53.069  1.00  0.00    -0.369 N 
HETATM   26  H9  UNL     1      21.345   1.827  53.184  1.00  0.00     0.159 HD
HETATM   27  H10 UNL     1      19.591   0.930  53.280  1.00  0.00     0.159 HD
HETATM   28  O2  UNL     1      21.218   0.085  51.211  1.00  0.00    -0.272 OA
ENDBRANCH   1  24
TORSDOF 8
ENDMDL
