MODEL 1
REMARK VINA RESULT:      -8.1      0.000      0.000
REMARK  3 active torsions:
REMARK  status: ('A' for Active; 'I' for Inactive)
REMARK    1  A    between atoms: O1_1  and  C1_2 
REMARK    2  A    between atoms: N3_9  and  C6_10 
REMARK    3  A    between atoms: C6_10  and  C7_11 
ROOT
HETATM    1  C1  UNL     1      28.738  -2.068  53.220  1.00  0.00     0.074 C 
HETATM    2  C2  UNL     1      29.710  -1.269  53.674  1.00  0.00     0.056 C 
HETATM    3  C3  UNL     1      30.501  -0.087  54.076  1.00  0.00     0.120 C 
HETATM    4  N1  UNL     1      29.437   0.460  53.715  1.00  0.00    -0.254 NA
HETATM    5  C4  UNL     1      29.060   1.813  53.686  1.00  0.00     0.228 C 
HETATM    6  N2  UNL     1      27.990   2.451  53.618  1.00  0.00    -0.253 NA
HETATM    7  C5  UNL     1      26.619   1.988  53.536  1.00  0.00     0.422 C 
HETATM    8  N3  UNL     1      26.255   1.690  52.159  1.00  0.00     0.112 N 
HETATM    9  C13 UNL     1      25.642   0.392  51.995  1.00  0.00     0.285 C 
HETATM   10  C14 UNL     1      26.493  -0.784  52.318  1.00  0.00     0.061 A 
HETATM   11  C15 UNL     1      27.462  -1.603  52.699  1.00  0.00    -0.009 A 
HETATM   12  O2  UNL     1      26.405  -2.367  52.228  1.00  0.00     0.000 OA
HETATM   13  H16 UNL     1      26.626  -3.278  51.832  1.00  0.00     0.000 HD
ENDROOT
BRANCH   8  14
HETATM   14  C6  UNL     1      25.175   2.645  51.815  1.00  0.00     0.313 C 
BRANCH  14  15
HETATM   15  C7  UNL     1      25.563   3.625  50.808  1.00  0.00    -0.030 A 
HETATM   16  C8  UNL     1      26.606   3.543  49.910  1.00  0.00     0.010 A 
HETATM   17  C9  UNL     1      26.860   4.594  48.999  1.00  0.00     0.024 A 
HETATM   18  C10 UNL     1      26.043   5.716  49.020  1.00  0.00     0.034 A 
HETATM   19 CL1  UNL     1      26.371   7.027  47.884  1.00  0.00    -0.084 Cl
HETATM   20  C11 UNL     1      24.989   5.818  49.916  1.00  0.00     0.024 A 
HETATM   21  C12 UNL     1      24.746   4.771  50.813  1.00  0.00     0.010 A 
ENDBRANCH  14  15
ENDBRANCH   8  14
BRANCH   1  22
HETATM   22  O1  UNL     1      28.644  -3.487  53.102  1.00  0.00    -0.360 OA
HETATM   23  H1  UNL     1      27.928  -3.938  53.628  1.00  0.00     0.217 HD
ENDBRANCH   1  22
TORSDOF 3
ENDMDL
MODEL 2
REMARK VINA RESULT:      -7.9      1.942      2.260
REMARK  3 active torsions:
REMARK  status: ('A' for Active; 'I' for Inactive)
REMARK    1  A    between atoms: O1_1  and  C1_2 
REMARK    2  A    between atoms: N3_9  and  C6_10 
REMARK    3  A    between atoms: C6_10  and  C7_11 
ROOT
HETATM    1  C1  UNL     1      28.586  -1.966  53.094  1.00  0.00     0.074 C 
HETATM    2  C2  UNL     1      29.571  -1.125  53.427  1.00  0.00     0.056 C 
HETATM    3  C3  UNL     1      30.348   0.087  53.764  1.00  0.00     0.120 C 
HETATM    4  N1  UNL     1      29.207   0.576  53.622  1.00  0.00    -0.254 NA
HETATM    5  C4  UNL     1      28.750   1.899  53.743  1.00  0.00     0.228 C 
HETATM    6  N2  UNL     1      27.648   2.463  53.896  1.00  0.00    -0.253 NA
HETATM    7  C5  UNL     1      26.313   1.911  54.017  1.00  0.00     0.422 C 
HETATM    8  N3  UNL     1      25.736   1.660  52.706  1.00  0.00     0.112 N 
HETATM    9  C13 UNL     1      25.183   0.333  52.565  1.00  0.00     0.285 C 
HETATM   10  C14 UNL     1      26.146  -0.796  52.665  1.00  0.00     0.061 A 
HETATM   11  C15 UNL     1      27.214  -1.564  52.825  1.00  0.00    -0.009 A 
HETATM   12  O2  UNL     1      26.138  -2.375  52.492  1.00  0.00     0.000 OA
HETATM   13  H16 UNL     1      26.342  -3.246  52.007  1.00  0.00     0.000 HD
ENDROOT
BRANCH   8  14
HETATM   14  C6  UNL     1      24.558   2.555  52.609  1.00  0.00     0.313 C 
BRANCH  14  15
HETATM   15  C7  UNL     1      24.061   2.719  51.249  1.00  0.00    -0.030 A 
HETATM   16  C8  UNL     1      24.636   3.438  50.223  1.00  0.00     0.010 A 
HETATM   17  C9  UNL     1      24.015   3.511  48.955  1.00  0.00     0.024 A 
HETATM   18  C10 UNL     1      22.814   2.846  48.754  1.00  0.00     0.034 A 
HETATM   19 CL1  UNL     1      22.042   2.946  47.169  1.00  0.00    -0.084 Cl
HETATM   20  C11 UNL     1      22.219   2.117  49.773  1.00  0.00     0.024 A 
HETATM   21  C12 UNL     1      22.843   2.052  51.026  1.00  0.00     0.010 A 
ENDBRANCH  14  15
ENDBRANCH   8  14
BRANCH   1  22
HETATM   22  O1  UNL     1      28.558  -3.379  52.903  1.00  0.00    -0.360 OA
HETATM   23  H1  UNL     1      27.851  -3.887  53.390  1.00  0.00     0.217 HD
ENDBRANCH   1  22
TORSDOF 3
ENDMDL
MODEL 3
REMARK VINA RESULT:      -7.6      4.521      7.629
REMARK  3 active torsions:
REMARK  status: ('A' for Active; 'I' for Inactive)
REMARK    1  A    between atoms: O1_1  and  C1_2 
REMARK    2  A    between atoms: N3_9  and  C6_10 
REMARK    3  A    between atoms: C6_10  and  C7_11 
ROOT
HETATM    1  C1  UNL     1      23.163   5.936  50.806  1.00  0.00     0.074 C 
HETATM    2  C2  UNL     1      22.787   5.405  49.638  1.00  0.00     0.056 C 
HETATM    3  C3  UNL     1      22.437   4.459  48.557  1.00  0.00     0.120 C 
HETATM    4  N1  UNL     1      22.688   3.664  49.488  1.00  0.00    -0.254 NA
HETATM    5  C4  UNL     1      22.656   2.260  49.535  1.00  0.00     0.228 C 
HETATM    6  N2  UNL     1      22.613   1.387  50.424  1.00  0.00    -0.253 NA
HETATM    7  C5  UNL     1      22.577   1.511  51.868  1.00  0.00     0.422 C 
HETATM    8  N3  UNL     1      23.920   1.660  52.408  1.00  0.00     0.112 N 
HETATM    9  C13 UNL     1      24.051   2.771  53.324  1.00  0.00     0.285 C 
HETATM   10  C14 UNL     1      23.830   4.125  52.752  1.00  0.00     0.061 A 
HETATM   11  C15 UNL     1      23.556   5.163  51.975  1.00  0.00    -0.009 A 
HETATM   12  O2  UNL     1      23.941   5.639  53.220  1.00  0.00     0.000 OA
HETATM   13  H16 UNL     1      24.373   6.559  53.256  1.00  0.00     0.000 HD
ENDROOT
BRANCH   8  14
HETATM   14  C6  UNL     1      24.144   0.465  53.256  1.00  0.00     0.313 C 
BRANCH  14  15
HETATM   15  C7  UNL     1      25.553   0.184  53.505  1.00  0.00    -0.030 A 
HETATM   16  C8  UNL     1      26.306   0.555  54.598  1.00  0.00     0.010 A 
HETATM   17  C9  UNL     1      27.676   0.212  54.682  1.00  0.00     0.024 A 
HETATM   18  C10 UNL     1      28.255  -0.506  53.646  1.00  0.00     0.034 A 
HETATM   19 CL1  UNL     1      29.967  -0.924  53.754  1.00  0.00    -0.084 Cl
HETATM   20  C11 UNL     1      27.514  -0.888  52.537  1.00  0.00     0.024 A 
HETATM   21  C12 UNL     1      26.159  -0.544  52.464  1.00  0.00     0.010 A 
ENDBRANCH  14  15
ENDBRANCH   8  14
BRANCH   1  22
HETATM   22  O1  UNL     1      23.300   7.286  51.244  1.00  0.00    -0.360 OA
HETATM   23  H1  UNL     1      23.812   7.440  52.085  1.00  0.00     0.217 HD
ENDBRANCH   1  22
TORSDOF 3
ENDMDL
MODEL 4
REMARK VINA RESULT:      -7.6      4.286      7.264
REMARK  3 active torsions:
REMARK  status: ('A' for Active; 'I' for Inactive)
REMARK    1  A    between atoms: O1_1  and  C1_2 
REMARK    2  A    between atoms: N3_9  and  C6_10 
REMARK    3  A    between atoms: C6_10  and  C7_11 
ROOT
HETATM    1  C1  UNL     1      23.958   6.718  50.771  1.00  0.00     0.074 C 
HETATM    2  C2  UNL     1      25.026   6.604  49.974  1.00  0.00     0.056 C 
HETATM    3  C3  UNL     1      26.216   6.092  49.262  1.00  0.00     0.120 C 
HETATM    4  N1  UNL     1      25.892   5.084  49.927  1.00  0.00    -0.254 NA
HETATM    5  C4  UNL     1      26.470   3.806  50.002  1.00  0.00     0.228 C 
HETATM    6  N2  UNL     1      26.113   2.675  50.387  1.00  0.00    -0.253 NA
HETATM    7  C5  UNL     1      24.855   2.222  50.950  1.00  0.00     0.422 C 
HETATM    8  N3  UNL     1      24.813   2.465  52.384  1.00  0.00     0.112 N 
HETATM    9  C13 UNL     1      23.609   3.136  52.818  1.00  0.00     0.285 C 
HETATM   10  C14 UNL     1      23.398   4.513  52.297  1.00  0.00     0.061 A 
HETATM   11  C15 UNL     1      23.478   5.673  51.662  1.00  0.00    -0.009 A 
HETATM   12  O2  UNL     1      22.375   5.710  52.502  1.00  0.00     0.000 OA
HETATM   13  H16 UNL     1      22.086   6.620  52.853  1.00  0.00     0.000 HD
ENDROOT
BRANCH   8  14
HETATM   14  C6  UNL     1      24.728   1.126  53.013  1.00  0.00     0.313 C 
BRANCH  14  15
HETATM   15  C7  UNL     1      26.016   0.453  53.129  1.00  0.00    -0.030 A 
HETATM   16  C8  UNL     1      26.365  -0.788  52.641  1.00  0.00     0.010 A 
HETATM   17  C9  UNL     1      27.663  -1.308  52.852  1.00  0.00     0.024 A 
HETATM   18  C10 UNL     1      28.586  -0.551  53.559  1.00  0.00     0.034 A 
HETATM   19 CL1  UNL     1      30.202  -1.210  53.825  1.00  0.00    -0.084 Cl
HETATM   20  C11 UNL     1      28.253   0.700  54.060  1.00  0.00     0.024 A 
HETATM   21  C12 UNL     1      26.965   1.206  53.845  1.00  0.00     0.010 A 
ENDBRANCH  14  15
ENDBRANCH   8  14
BRANCH   1  22
HETATM   22  O1  UNL     1      23.042   7.788  50.996  1.00  0.00    -0.360 OA
HETATM   23  H1  UNL     1      23.080   8.237  51.886  1.00  0.00     0.217 HD
ENDBRANCH   1  22
TORSDOF 3
ENDMDL
MODEL 5
REMARK VINA RESULT:      -7.5      4.425      7.382
REMARK  3 active torsions:
REMARK  status: ('A' for Active; 'I' for Inactive)
REMARK    1  A    between atoms: O1_1  and  C1_2 
REMARK    2  A    between atoms: N3_9  and  C6_10 
REMARK    3  A    between atoms: C6_10  and  C7_11 
ROOT
HETATM    1  C1  UNL     1      20.258   3.477  52.114  1.00  0.00     0.074 C 
HETATM    2  C2  UNL     1      21.224   4.387  51.949  1.00  0.00     0.056 C 
HETATM    3  C3  UNL     1      22.535   5.065  51.875  1.00  0.00     0.120 C 
HETATM    4  N1  UNL     1      22.892   3.904  52.169  1.00  0.00    -0.254 NA
HETATM    5  C4  UNL     1      24.169   3.357  52.377  1.00  0.00     0.228 C 
HETATM    6  N2  UNL     1      24.669   2.215  52.401  1.00  0.00    -0.253 NA
HETATM    7  C5  UNL     1      24.061   0.913  52.205  1.00  0.00     0.422 C 
HETATM    8  N3  UNL     1      23.473   0.425  53.442  1.00  0.00     0.112 N 
HETATM    9  C13 UNL     1      22.111  -0.033  53.290  1.00  0.00     0.285 C 
HETATM   10  C14 UNL     1      21.111   0.993  52.894  1.00  0.00     0.061 A 
HETATM   11  C15 UNL     1      20.483   2.098  52.520  1.00  0.00    -0.009 A 
HETATM   12  O2  UNL     1      19.539   1.097  52.695  1.00  0.00     0.000 OA
HETATM   13  H16 UNL     1      18.598   1.382  52.956  1.00  0.00     0.000 HD
ENDROOT
BRANCH   8  14
HETATM   14  C6  UNL     1      24.230  -0.801  53.788  1.00  0.00     0.313 C 
BRANCH  14  15
HETATM   15  C7  UNL     1      25.670  -0.591  53.876  1.00  0.00    -0.030 A 
HETATM   16  C8  UNL     1      26.357   0.159  54.807  1.00  0.00     0.010 A 
HETATM   17  C9  UNL     1      27.765   0.274  54.745  1.00  0.00     0.024 A 
HETATM   18  C10 UNL     1      28.451  -0.380  53.732  1.00  0.00     0.034 A 
HETATM   19 CL1  UNL     1      30.208  -0.226  53.658  1.00  0.00    -0.084 Cl
HETATM   20  C11 UNL     1      27.778  -1.139  52.785  1.00  0.00     0.024 A 
HETATM   21  C12 UNL     1      26.384  -1.247  52.856  1.00  0.00     0.010 A 
ENDBRANCH  14  15
ENDBRANCH   8  14
BRANCH   1  22
HETATM   22  O1  UNL     1      18.840   3.550  51.971  1.00  0.00    -0.360 OA
HETATM   23  H1  UNL     1      18.415   4.439  52.127  1.00  0.00     0.217 HD
ENDBRANCH   1  22
TORSDOF 3
ENDMDL
MODEL 6
REMARK VINA RESULT:      -7.4      3.405      4.286
REMARK  3 active torsions:
REMARK  status: ('A' for Active; 'I' for Inactive)
REMARK    1  A    between atoms: O1_1  and  C1_2 
REMARK    2  A    between atoms: N3_9  and  C6_10 
REMARK    3  A    between atoms: C6_10  and  C7_11 
ROOT
HETATM    1  C1  UNL     1      22.272  -0.878  54.552  1.00  0.00     0.074 C 
HETATM    2  C2  UNL     1      23.572  -1.064  54.805  1.00  0.00     0.056 C 
HETATM    3  C3  UNL     1      25.043  -0.923  54.845  1.00  0.00     0.120 C 
HETATM    4  N1  UNL     1      24.733   0.081  54.168  1.00  0.00    -0.254 NA
HETATM    5  C4  UNL     1      25.529   1.084  53.592  1.00  0.00     0.228 C 
HETATM    6  N2  UNL     1      25.349   2.237  53.150  1.00  0.00    -0.253 NA
HETATM    7  C5  UNL     1      24.143   3.037  53.061  1.00  0.00     0.422 C 
HETATM    8  N3  UNL     1      23.395   2.712  51.856  1.00  0.00     0.112 N 
HETATM    9  C13 UNL     1      21.996   2.448  52.102  1.00  0.00     0.285 C 
HETATM   10  C14 UNL     1      21.687   1.264  52.947  1.00  0.00     0.061 A 
HETATM   11  C15 UNL     1      21.736   0.196  53.729  1.00  0.00    -0.009 A 
HETATM   12  O2  UNL     1      20.407   0.462  53.437  1.00  0.00     0.000 OA
HETATM   13  H16 UNL     1      19.761  -0.324  53.438  1.00  0.00     0.000 HD
ENDROOT
BRANCH   8  14
HETATM   14  C6  UNL     1      23.391   3.951  51.042  1.00  0.00     0.313 C 
BRANCH  14  15
HETATM   15  C7  UNL     1      24.645   4.188  50.336  1.00  0.00    -0.030 A 
HETATM   16  C8  UNL     1      25.567   3.252  49.919  1.00  0.00     0.010 A 
HETATM   17  C9  UNL     1      26.750   3.650  49.254  1.00  0.00     0.024 A 
HETATM   18  C10 UNL     1      26.972   5.000  49.024  1.00  0.00     0.034 A 
HETATM   19 CL1  UNL     1      28.454   5.489  48.199  1.00  0.00    -0.084 Cl
HETATM   20  C11 UNL     1      26.057   5.957  49.437  1.00  0.00     0.024 A 
HETATM   21  C12 UNL     1      24.888   5.553  50.095  1.00  0.00     0.010 A 
ENDBRANCH  14  15
ENDBRANCH   8  14
BRANCH   1  22
HETATM   22  O1  UNL     1      21.107  -1.596  54.954  1.00  0.00    -0.360 OA
HETATM   23  H1  UNL     1      21.236  -2.340  55.605  1.00  0.00     0.217 HD
ENDBRANCH   1  22
TORSDOF 3
ENDMDL
MODEL 7
REMARK VINA RESULT:      -7.0      3.166      4.938
REMARK  3 active torsions:
REMARK  status: ('A' for Active; 'I' for Inactive)
REMARK    1  A    between atoms: O1_1  and  C1_2 
REMARK    2  A    between atoms: N3_9  and  C6_10 
REMARK    3  A    between atoms: C6_10  and  C7_11 
ROOT
HETATM    1  C1  UNL     1      22.792  -1.030  54.980  1.00  0.00     0.074 C 
HETATM    2  C2  UNL     1      21.563  -0.556  54.744  1.00  0.00     0.056 C 
HETATM    3  C3  UNL     1      20.415   0.200  54.201  1.00  0.00     0.120 C 
HETATM    4  N1  UNL     1      21.342   0.643  53.488  1.00  0.00    -0.254 NA
HETATM    5  C4  UNL     1      21.334   1.590  52.452  1.00  0.00     0.228 C 
HETATM    6  N2  UNL     1      22.092   1.909  51.514  1.00  0.00    -0.253 NA
HETATM    7  C5  UNL     1      23.377   1.370  51.113  1.00  0.00     0.422 C 
HETATM    8  N3  UNL     1      24.454   1.977  51.879  1.00  0.00     0.112 N 
HETATM    9  C13 UNL     1      25.362   1.013  52.458  1.00  0.00     0.285 C 
HETATM   10  C14 UNL     1      24.786   0.092  53.472  1.00  0.00     0.061 A 
HETATM   11  C15 UNL     1      23.995  -0.581  54.294  1.00  0.00    -0.009 A 
HETATM   12  O2  UNL     1      25.294  -1.034  54.471  1.00  0.00     0.000 OA
HETATM   13  H16 UNL     1      25.539  -1.408  55.385  1.00  0.00     0.000 HD
ENDROOT
BRANCH   8  14
HETATM   14  C6  UNL     1      25.284   2.708  50.891  1.00  0.00     0.313 C 
BRANCH  14  15
HETATM   15  C7  UNL     1      24.870   4.091  50.693  1.00  0.00    -0.030 A 
HETATM   16  C8  UNL     1      24.141   4.885  51.553  1.00  0.00     0.010 A 
HETATM   17  C9  UNL     1      23.808   6.214  51.203  1.00  0.00     0.024 A 
HETATM   18  C10 UNL     1      24.225   6.712  49.978  1.00  0.00     0.034 A 
HETATM   19 CL1  UNL     1      23.799   8.370  49.545  1.00  0.00    -0.084 Cl
HETATM   20  C11 UNL     1      24.959   5.930  49.098  1.00  0.00     0.024 A 
HETATM   21  C12 UNL     1      25.284   4.615  49.454  1.00  0.00     0.010 A 
ENDBRANCH  14  15
ENDBRANCH   8  14
BRANCH   1  22
HETATM   22  O1  UNL     1      23.279  -2.016  55.887  1.00  0.00    -0.360 OA
HETATM   23  H1  UNL     1      23.221  -2.968  55.595  1.00  0.00     0.217 HD
ENDBRANCH   1  22
TORSDOF 3
ENDMDL
MODEL 8
REMARK VINA RESULT:      -6.7      7.198      8.941
REMARK  3 active torsions:
REMARK  status: ('A' for Active; 'I' for Inactive)
REMARK    1  A    between atoms: O1_1  and  C1_2 
REMARK    2  A    between atoms: N3_9  and  C6_10 
REMARK    3  A    between atoms: C6_10  and  C7_11 
ROOT
HETATM    1  C1  UNL     1      34.884   3.906  45.807  1.00  0.00     0.074 C 
HETATM    2  C2  UNL     1      34.663   4.316  44.554  1.00  0.00     0.056 C 
HETATM    3  C3  UNL     1      34.126   5.007  43.362  1.00  0.00     0.120 C 
HETATM    4  N1  UNL     1      33.449   5.544  44.265  1.00  0.00    -0.254 NA
HETATM    5  C4  UNL     1      32.451   6.530  44.204  1.00  0.00     0.228 C 
HETATM    6  N2  UNL     1      31.913   7.321  45.005  1.00  0.00    -0.253 NA
HETATM    7  C5  UNL     1      32.141   7.532  46.421  1.00  0.00     0.422 C 
HETATM    8  N3  UNL     1      31.379   6.580  47.215  1.00  0.00     0.112 N 
HETATM    9  C13 UNL     1      32.171   5.901  48.215  1.00  0.00     0.285 C 
HETATM   10  C14 UNL     1      33.264   5.028  47.710  1.00  0.00     0.061 A 
HETATM   11  C15 UNL     1      34.146   4.371  46.971  1.00  0.00    -0.009 A 
HETATM   12  O2  UNL     1      34.328   4.006  48.297  1.00  0.00     0.000 OA
HETATM   13  H16 UNL     1      34.708   3.080  48.479  1.00  0.00     0.000 HD
ENDROOT
BRANCH   8  14
HETATM   14  C6  UNL     1      30.422   7.392  48.002  1.00  0.00     0.313 C 
BRANCH  14  15
HETATM   15  C7  UNL     1      29.155   6.717  48.256  1.00  0.00    -0.030 A 
HETATM   16  C8  UNL     1      28.927   5.360  48.348  1.00  0.00     0.010 A 
HETATM   17  C9  UNL     1      27.626   4.860  48.586  1.00  0.00     0.024 A 
HETATM   18  C10 UNL     1      26.576   5.756  48.727  1.00  0.00     0.034 A 
HETATM   19 CL1  UNL     1      24.953   5.124  49.017  1.00  0.00    -0.084 Cl
HETATM   20  C11 UNL     1      26.784   7.125  48.636  1.00  0.00     0.024 A 
HETATM   21  C12 UNL     1      28.077   7.609  48.401  1.00  0.00     0.010 A 
ENDBRANCH  14  15
ENDBRANCH   8  14
BRANCH   1  22
HETATM   22  O1  UNL     1      35.811   2.971  46.358  1.00  0.00    -0.360 OA
HETATM   23  H1  UNL     1      35.930   2.111  45.868  1.00  0.00     0.217 HD
ENDBRANCH   1  22
TORSDOF 3
ENDMDL
MODEL 9
REMARK VINA RESULT:      -6.7      3.932      7.193
REMARK  3 active torsions:
REMARK  status: ('A' for Active; 'I' for Inactive)
REMARK    1  A    between atoms: O1_1  and  C1_2 
REMARK    2  A    between atoms: N3_9  and  C6_10 
REMARK    3  A    between atoms: C6_10  and  C7_11 
ROOT
HETATM    1  C1  UNL     1      25.529   5.848  49.258  1.00  0.00     0.074 C 
HETATM    2  C2  UNL     1      24.323   6.354  49.542  1.00  0.00     0.056 C 
HETATM    3  C3  UNL     1      22.969   6.565  50.095  1.00  0.00     0.120 C 
HETATM    4  N1  UNL     1      23.294   5.509  50.678  1.00  0.00    -0.254 NA
HETATM    5  C4  UNL     1      22.598   4.718  51.606  1.00  0.00     0.228 C 
HETATM    6  N2  UNL     1      22.889   3.837  52.440  1.00  0.00    -0.253 NA
HETATM    7  C5  UNL     1      24.169   3.253  52.789  1.00  0.00     0.422 C 
HETATM    8  N3  UNL     1      24.510   2.172  51.878  1.00  0.00     0.112 N 
HETATM    9  C13 UNL     1      25.844   2.279  51.333  1.00  0.00     0.285 C 
HETATM   10  C14 UNL     1      26.110   3.461  50.471  1.00  0.00     0.061 A 
HETATM   11  C15 UNL     1      26.045   4.597  49.792  1.00  0.00    -0.009 A 
HETATM   12  O2  UNL     1      27.285   4.019  49.559  1.00  0.00     0.000 OA
HETATM   13  H16 UNL     1      27.738   4.228  48.673  1.00  0.00     0.000 HD
ENDROOT
BRANCH   8  14
HETATM   14  C6  UNL     1      24.559   0.947  52.712  1.00  0.00     0.313 C 
BRANCH  14  15
HETATM   15  C7  UNL     1      25.911   0.553  53.089  1.00  0.00    -0.030 A 
HETATM   16  C8  UNL     1      26.794   1.236  53.897  1.00  0.00     0.010 A 
HETATM   17  C9  UNL     1      28.085   0.720  54.156  1.00  0.00     0.024 A 
HETATM   18  C10 UNL     1      28.454  -0.489  53.585  1.00  0.00     0.034 A 
HETATM   19 CL1  UNL     1      30.069  -1.123  53.907  1.00  0.00    -0.084 Cl
HETATM   20  C11 UNL     1      27.580  -1.192  52.768  1.00  0.00     0.024 A 
HETATM   21  C12 UNL     1      26.304  -0.672  52.518  1.00  0.00     0.010 A 
ENDBRANCH  14  15
ENDBRANCH   8  14
BRANCH   1  22
HETATM   22  O1  UNL     1      26.588   6.312  48.423  1.00  0.00    -0.360 OA
HETATM   23  H1  UNL     1      26.337   6.897  47.656  1.00  0.00     0.217 HD
ENDBRANCH   1  22
TORSDOF 3
ENDMDL
