MODEL 1
REMARK VINA RESULT:      -8.2      0.000      0.000
REMARK  6 active torsions:
REMARK  status: ('A' for Active; 'I' for Inactive)
REMARK       I    between atoms: C1_2  and  N1_3 
REMARK       I    between atoms: C1_2  and  N2_11 
REMARK    1  A    between atoms: N1_3  and  C2_4 
REMARK    2  A    between atoms: N2_11  and  C8_12 
REMARK    3  A    between atoms: N2_11  and  C12_17 
REMARK    4  A    between atoms: C8_12  and  C9_13 
REMARK    5  A    between atoms: C10_14  and  C11_15 
REMARK    6  A    between atoms: C12_17  and  C13_18 
ROOT
HETATM    1  O1  UNL     1      26.426   2.697  52.322  1.00  0.00    -0.247 OA
HETATM    2  C1  UNL     1      25.258   2.368  51.912  1.00  0.00     0.321 C 
HETATM    3  N1  UNL     1      24.833   3.233  50.866  1.00  0.00    -0.313 N 
HETATM    4  N2  UNL     1      24.474   1.294  52.414  1.00  0.00    -0.327 N 
HETATM    5  H1  UNL     1      23.907   3.099  50.425  1.00  0.00     0.167 HD
ENDROOT
BRANCH   4   6
HETATM    6  C8  UNL     1      23.153   0.804  52.059  1.00  0.00     0.155 C 
BRANCH   6   7
HETATM    7  C9  UNL     1      22.156   0.953  53.143  1.00  0.00    -0.010 C 
HETATM    8  C10 UNL     1      21.622   0.202  54.069  1.00  0.00    -0.014 C 
BRANCH   8   9
HETATM    9  C11 UNL     1      21.732  -1.184  54.521  1.00  0.00     0.141 C 
HETATM   10 CL1  UNL     1      23.105  -1.497  55.602  1.00  0.00    -0.126 Cl
ENDBRANCH   8   9
ENDBRANCH   6   7
ENDBRANCH   4   6
BRANCH   4  11
HETATM   11  C12 UNL     1      25.112   0.548  53.479  1.00  0.00     0.155 C 
BRANCH  11  12
HETATM   12  C13 UNL     1      25.691  -0.727  53.036  1.00  0.00     0.002 C 
HETATM   13  C14 UNL     1      26.934  -1.117  52.931  1.00  0.00    -0.043 C 
HETATM   14  C15 UNL     1      28.051  -0.247  53.279  1.00  0.00     0.006 C 
HETATM   15  C18 UNL     1      27.224  -2.489  52.443  1.00  0.00     0.152 C 
HETATM   16  C16 UNL     1      29.204  -0.852  53.472  1.00  0.00    -0.007 C 
HETATM   17  C17 UNL     1      29.457  -2.288  53.372  1.00  0.00     0.141 C 
HETATM   18  N3  UNL     1      28.351  -3.112  53.056  1.00  0.00    -0.414 N 
HETATM   19  H22 UNL     1      28.183  -3.942  53.624  1.00  0.00     0.153 HD
ENDBRANCH  11  12
ENDBRANCH   4  11
BRANCH   3  20
HETATM   20  C2  UNL     1      25.555   4.331  50.304  1.00  0.00     0.249 C 
HETATM   21  C3  UNL     1      24.631   5.417  49.827  1.00  0.00     0.026 C 
HETATM   22  C4  UNL     1      24.889   6.418  49.000  1.00  0.00     0.000 C 
HETATM   23  C5  UNL     1      26.195   6.674  48.357  1.00  0.00    -0.002 C 
HETATM   24  C6  UNL     1      27.261   5.887  48.345  1.00  0.00    -0.001 C 
HETATM   25  C7  UNL     1      27.438   4.550  48.966  1.00  0.00     0.198 C 
HETATM   26  O2  UNL     1      26.260   3.881  49.199  1.00  0.00    -0.360 OA
ENDBRANCH   3  20
TORSDOF 6
ENDMDL
MODEL 2
REMARK VINA RESULT:      -7.7      1.667      6.676
REMARK  6 active torsions:
REMARK  status: ('A' for Active; 'I' for Inactive)
REMARK       I    between atoms: C1_2  and  N1_3 
REMARK       I    between atoms: C1_2  and  N2_11 
REMARK    1  A    between atoms: N1_3  and  C2_4 
REMARK    2  A    between atoms: N2_11  and  C8_12 
REMARK    3  A    between atoms: N2_11  and  C12_17 
REMARK    4  A    between atoms: C8_12  and  C9_13 
REMARK    5  A    between atoms: C10_14  and  C11_15 
REMARK    6  A    between atoms: C12_17  and  C13_18 
ROOT
HETATM    1  O1  UNL     1      26.473   2.046  50.554  1.00  0.00    -0.247 OA
HETATM    2  C1  UNL     1      25.645   2.074  51.530  1.00  0.00     0.321 C 
HETATM    3  N1  UNL     1      26.105   1.254  52.599  1.00  0.00    -0.313 N 
HETATM    4  N2  UNL     1      24.431   2.811  51.569  1.00  0.00    -0.327 N 
HETATM    5  H1  UNL     1      25.546   1.170  53.465  1.00  0.00     0.167 HD
ENDROOT
BRANCH   4   6
HETATM    6  C8  UNL     1      23.403   2.942  52.588  1.00  0.00     0.155 C 
BRANCH   6   7
HETATM    7  C9  UNL     1      22.383   1.870  52.540  1.00  0.00    -0.010 C 
HETATM    8  C10 UNL     1      22.278   0.624  52.919  1.00  0.00    -0.014 C 
BRANCH   8   9
HETATM    9  C11 UNL     1      23.117  -0.366  53.593  1.00  0.00     0.141 C 
HETATM   10 CL1  UNL     1      22.318  -1.216  54.931  1.00  0.00    -0.126 Cl
ENDBRANCH   8   9
ENDBRANCH   6   7
ENDBRANCH   4   6
BRANCH   4  11
HETATM   11  C12 UNL     1      24.169   3.575  50.366  1.00  0.00     0.155 C 
BRANCH  11  12
HETATM   12  C13 UNL     1      24.513   4.998  50.491  1.00  0.00     0.002 C 
HETATM   13  C14 UNL     1      25.509   5.688  50.000  1.00  0.00    -0.043 C 
HETATM   14  C15 UNL     1      26.535   5.079  49.163  1.00  0.00     0.006 C 
HETATM   15  C18 UNL     1      25.601   7.139  50.300  1.00  0.00     0.152 C 
HETATM   16  C16 UNL     1      27.261   5.916  48.453  1.00  0.00    -0.007 C 
HETATM   17  C17 UNL     1      27.129   7.372  48.428  1.00  0.00     0.141 C 
HETATM   18  N3  UNL     1      26.109   7.936  49.231  1.00  0.00    -0.414 N 
HETATM   19  H22 UNL     1      25.482   8.623  48.812  1.00  0.00     0.153 HD
ENDBRANCH  11  12
ENDBRANCH   4  11
BRANCH   3  20
HETATM   20  C2  UNL     1      27.307   0.484  52.643  1.00  0.00     0.249 C 
HETATM   21  C3  UNL     1      27.027  -0.989  52.534  1.00  0.00     0.026 C 
HETATM   22  C4  UNL     1      27.819  -2.006  52.833  1.00  0.00     0.000 C 
HETATM   23  C5  UNL     1      29.196  -1.885  53.359  1.00  0.00    -0.002 C 
HETATM   24  C6  UNL     1      29.810  -0.789  53.777  1.00  0.00    -0.001 C 
HETATM   25  C7  UNL     1      29.295   0.603  53.834  1.00  0.00     0.198 C 
HETATM   26  O2  UNL     1      27.924   0.691  53.867  1.00  0.00    -0.360 OA
ENDBRANCH   3  20
TORSDOF 6
ENDMDL
MODEL 3
REMARK VINA RESULT:      -7.5      2.219      7.013
REMARK  6 active torsions:
REMARK  status: ('A' for Active; 'I' for Inactive)
REMARK       I    between atoms: C1_2  and  N1_3 
REMARK       I    between atoms: C1_2  and  N2_11 
REMARK    1  A    between atoms: N1_3  and  C2_4 
REMARK    2  A    between atoms: N2_11  and  C8_12 
REMARK    3  A    between atoms: N2_11  and  C12_17 
REMARK    4  A    between atoms: C8_12  and  C9_13 
REMARK    5  A    between atoms: C10_14  and  C11_15 
REMARK    6  A    between atoms: C12_17  and  C13_18 
ROOT
HETATM    1  O1  UNL     1      26.910   2.864  49.898  1.00  0.00    -0.247 OA
HETATM    2  C1  UNL     1      26.043   3.265  50.751  1.00  0.00     0.321 C 
HETATM    3  N1  UNL     1      26.258   2.643  52.013  1.00  0.00    -0.313 N 
HETATM    4  N2  UNL     1      25.001   4.198  50.501  1.00  0.00    -0.327 N 
HETATM    5  H1  UNL     1      25.639   2.862  52.812  1.00  0.00     0.167 HD
ENDROOT
BRANCH   4   6
HETATM    6  C8  UNL     1      23.957   4.744  51.351  1.00  0.00     0.155 C 
BRANCH   6   7
HETATM    7  C9  UNL     1      22.667   4.025  51.239  1.00  0.00    -0.010 C 
HETATM    8  C10 UNL     1      22.249   2.788  51.275  1.00  0.00    -0.014 C 
BRANCH   8   9
HETATM    9  C11 UNL     1      22.838   1.461  51.448  1.00  0.00     0.141 C 
HETATM   10 CL1  UNL     1      23.308   1.077  53.116  1.00  0.00    -0.126 Cl
ENDBRANCH   8   9
ENDBRANCH   6   7
ENDBRANCH   4   6
BRANCH   4  11
HETATM   11  C12 UNL     1      24.976   4.701  49.142  1.00  0.00     0.155 C 
BRANCH  11  12
HETATM   12  C13 UNL     1      25.469   6.080  49.019  1.00  0.00     0.002 C 
HETATM   13  C14 UNL     1      26.657   6.547  48.737  1.00  0.00    -0.043 C 
HETATM   14  C15 UNL     1      27.791   5.670  48.473  1.00  0.00     0.006 C 
HETATM   15  C18 UNL     1      26.862   8.016  48.683  1.00  0.00     0.152 C 
HETATM   16  C16 UNL     1      28.813   6.232  47.864  1.00  0.00    -0.007 C 
HETATM   17  C17 UNL     1      28.909   7.627  47.437  1.00  0.00     0.141 C 
HETATM   18  N3  UNL     1      27.785   8.450  47.685  1.00  0.00    -0.414 N 
HETATM   19  H22 UNL     1      27.425   9.025  46.924  1.00  0.00     0.153 HD
ENDBRANCH  11  12
ENDBRANCH   4  11
BRANCH   3  20
HETATM   20  C2  UNL     1      27.277   1.699  52.349  1.00  0.00     0.249 C 
HETATM   21  C3  UNL     1      26.779   0.284  52.241  1.00  0.00     0.026 C 
HETATM   22  C4  UNL     1      27.306  -0.819  52.747  1.00  0.00     0.000 C 
HETATM   23  C5  UNL     1      28.544  -0.876  53.555  1.00  0.00    -0.002 C 
HETATM   24  C6  UNL     1      29.235   0.138  54.052  1.00  0.00    -0.001 C 
HETATM   25  C7  UNL     1      28.964   1.594  53.938  1.00  0.00     0.198 C 
HETATM   26  O2  UNL     1      27.651   1.899  53.668  1.00  0.00    -0.360 OA
ENDBRANCH   3  20
TORSDOF 6
ENDMDL
MODEL 4
REMARK VINA RESULT:      -7.5      2.937      5.247
REMARK  6 active torsions:
REMARK  status: ('A' for Active; 'I' for Inactive)
REMARK       I    between atoms: C1_2  and  N1_3 
REMARK       I    between atoms: C1_2  and  N2_11 
REMARK    1  A    between atoms: N1_3  and  C2_4 
REMARK    2  A    between atoms: N2_11  and  C8_12 
REMARK    3  A    between atoms: N2_11  and  C12_17 
REMARK    4  A    between atoms: C8_12  and  C9_13 
REMARK    5  A    between atoms: C10_14  and  C11_15 
REMARK    6  A    between atoms: C12_17  and  C13_18 
ROOT
HETATM    1  O1  UNL     1      23.528   2.612  50.910  1.00  0.00    -0.247 OA
HETATM    2  C1  UNL     1      24.333   2.940  51.851  1.00  0.00     0.321 C 
HETATM    3  N1  UNL     1      24.447   4.356  51.939  1.00  0.00    -0.313 N 
HETATM    4  N2  UNL     1      25.028   2.039  52.701  1.00  0.00    -0.327 N 
HETATM    5  H1  UNL     1      25.063   4.783  52.651  1.00  0.00     0.167 HD
ENDROOT
BRANCH   4   6
HETATM    6  C8  UNL     1      25.960   2.255  53.795  1.00  0.00     0.155 C 
BRANCH   6   7
HETATM    7  C9  UNL     1      27.381   2.150  53.391  1.00  0.00    -0.010 C 
HETATM    8  C10 UNL     1      28.388   1.350  53.616  1.00  0.00    -0.014 C 
BRANCH   8   9
HETATM    9  C11 UNL     1      28.641   0.134  54.389  1.00  0.00     0.141 C 
HETATM   10 CL1  UNL     1      29.902  -0.917  53.713  1.00  0.00    -0.126 Cl
ENDBRANCH   8   9
ENDBRANCH   6   7
ENDBRANCH   4   6
BRANCH   4  11
HETATM   11  C12 UNL     1      24.755   0.643  52.427  1.00  0.00     0.155 C 
BRANCH  11  12
HETATM   12  C13 UNL     1      23.961  -0.015  53.473  1.00  0.00     0.002 C 
HETATM   13  C14 UNL     1      22.668  -0.106  53.641  1.00  0.00    -0.043 C 
HETATM   14  C15 UNL     1      21.721   0.498  52.712  1.00  0.00     0.006 C 
HETATM   15  C18 UNL     1      22.141  -0.847  54.815  1.00  0.00     0.152 C 
HETATM   16  C16 UNL     1      20.487   0.047  52.783  1.00  0.00    -0.007 C 
HETATM   17  C17 UNL     1      19.993  -0.986  53.692  1.00  0.00     0.141 C 
HETATM   18  N3  UNL     1      20.938  -1.573  54.568  1.00  0.00    -0.414 N 
HETATM   19  H22 UNL     1      20.975  -2.589  54.635  1.00  0.00     0.153 HD
ENDBRANCH  11  12
ENDBRANCH   4  11
BRANCH   3  20
HETATM   20  C2  UNL     1      23.787   5.329  51.127  1.00  0.00     0.249 C 
HETATM   21  C3  UNL     1      24.593   6.593  51.009  1.00  0.00     0.026 C 
HETATM   22  C4  UNL     1      24.198   7.792  50.615  1.00  0.00     0.000 C 
HETATM   23  C5  UNL     1      22.824   8.138  50.194  1.00  0.00    -0.002 C 
HETATM   24  C6  UNL     1      21.733   7.393  50.295  1.00  0.00    -0.001 C 
HETATM   25  C7  UNL     1      21.590   6.022  50.848  1.00  0.00     0.198 C 
HETATM   26  O2  UNL     1      22.585   5.668  51.728  1.00  0.00    -0.360 OA
ENDBRANCH   3  20
TORSDOF 6
ENDMDL
MODEL 5
REMARK VINA RESULT:      -7.5      2.656      5.401
REMARK  6 active torsions:
REMARK  status: ('A' for Active; 'I' for Inactive)
REMARK       I    between atoms: C1_2  and  N1_3 
REMARK       I    between atoms: C1_2  and  N2_11 
REMARK    1  A    between atoms: N1_3  and  C2_4 
REMARK    2  A    between atoms: N2_11  and  C8_12 
REMARK    3  A    between atoms: N2_11  and  C12_17 
REMARK    4  A    between atoms: C8_12  and  C9_13 
REMARK    5  A    between atoms: C10_14  and  C11_15 
REMARK    6  A    between atoms: C12_17  and  C13_18 
ROOT
HETATM    1  O1  UNL     1      23.754   3.279  49.297  1.00  0.00    -0.247 OA
HETATM    2  C1  UNL     1      24.492   2.982  50.300  1.00  0.00     0.321 C 
HETATM    3  N1  UNL     1      25.681   3.764  50.294  1.00  0.00    -0.313 N 
HETATM    4  N2  UNL     1      24.192   2.013  51.295  1.00  0.00    -0.327 N 
HETATM    5  H1  UNL     1      26.386   3.644  51.041  1.00  0.00     0.167 HD
ENDROOT
BRANCH   4   6
HETATM    6  C8  UNL     1      24.917   1.571  52.474  1.00  0.00     0.155 C 
BRANCH   6   7
HETATM    7  C9  UNL     1      26.035   0.649  52.169  1.00  0.00    -0.010 C 
HETATM    8  C10 UNL     1      27.226   0.392  52.641  1.00  0.00    -0.014 C 
BRANCH   8   9
HETATM    9  C11 UNL     1      28.081   0.883  53.721  1.00  0.00     0.141 C 
HETATM   10 CL1  UNL     1      28.661   2.546  53.500  1.00  0.00    -0.126 Cl
ENDBRANCH   8   9
ENDBRANCH   6   7
ENDBRANCH   4   6
BRANCH   4  11
HETATM   11  C12 UNL     1      22.925   1.340  51.095  1.00  0.00     0.155 C 
BRANCH  11  12
HETATM   12  C13 UNL     1      22.353   0.791  52.332  1.00  0.00     0.002 C 
HETATM   13  C14 UNL     1      21.124   0.477  52.647  1.00  0.00    -0.043 C 
HETATM   14  C15 UNL     1      20.019   0.643  51.711  1.00  0.00     0.006 C 
HETATM   15  C18 UNL     1      20.839  -0.068  53.998  1.00  0.00     0.152 C 
HETATM   16  C16 UNL     1      18.923  -0.025  52.001  1.00  0.00    -0.007 C 
HETATM   17  C17 UNL     1      18.721  -0.900  53.154  1.00  0.00     0.141 C 
HETATM   18  N3  UNL     1      19.817  -1.063  54.034  1.00  0.00    -0.414 N 
HETATM   19  H22 UNL     1      20.084  -2.007  54.312  1.00  0.00     0.153 HD
ENDBRANCH  11  12
ENDBRANCH   4  11
BRANCH   3  20
HETATM   20  C2  UNL     1      26.060   4.755  49.337  1.00  0.00     0.249 C 
HETATM   21  C3  UNL     1      27.505   4.626  48.945  1.00  0.00     0.026 C 
HETATM   22  C4  UNL     1      28.282   5.511  48.342  1.00  0.00     0.000 C 
HETATM   23  C5  UNL     1      27.859   6.863  47.918  1.00  0.00    -0.002 C 
HETATM   24  C6  UNL     1      26.725   7.485  48.205  1.00  0.00    -0.001 C 
HETATM   25  C7  UNL     1      25.579   7.003  49.018  1.00  0.00     0.198 C 
HETATM   26  O2  UNL     1      25.905   6.008  49.909  1.00  0.00    -0.360 OA
ENDBRANCH   3  20
TORSDOF 6
ENDMDL
MODEL 6
REMARK VINA RESULT:      -7.3      3.052      6.834
REMARK  6 active torsions:
REMARK  status: ('A' for Active; 'I' for Inactive)
REMARK       I    between atoms: C1_2  and  N1_3 
REMARK       I    between atoms: C1_2  and  N2_11 
REMARK    1  A    between atoms: N1_3  and  C2_4 
REMARK    2  A    between atoms: N2_11  and  C8_12 
REMARK    3  A    between atoms: N2_11  and  C12_17 
REMARK    4  A    between atoms: C8_12  and  C9_13 
REMARK    5  A    between atoms: C10_14  and  C11_15 
REMARK    6  A    between atoms: C12_17  and  C13_18 
ROOT
HETATM    1  O1  UNL     1      23.965   1.982  53.398  1.00  0.00    -0.247 OA
HETATM    2  C1  UNL     1      24.114   1.931  52.127  1.00  0.00     0.321 C 
HETATM    3  N1  UNL     1      25.403   1.426  51.796  1.00  0.00    -0.313 N 
HETATM    4  N2  UNL     1      23.148   2.319  51.161  1.00  0.00    -0.327 N 
HETATM    5  H1  UNL     1      25.681   1.323  50.805  1.00  0.00     0.167 HD
ENDROOT
BRANCH   4   6
HETATM    6  C8  UNL     1      23.169   2.320  49.708  1.00  0.00     0.155 C 
BRANCH   6   7
HETATM    7  C9  UNL     1      23.346   3.668  49.121  1.00  0.00    -0.010 C 
HETATM    8  C10 UNL     1      24.252   4.609  49.130  1.00  0.00    -0.014 C 
BRANCH   8   9
HETATM    9  C11 UNL     1      25.570   4.825  49.726  1.00  0.00     0.141 C 
HETATM   10 CL1  UNL     1      26.749   3.542  49.385  1.00  0.00    -0.126 Cl
ENDBRANCH   8   9
ENDBRANCH   6   7
ENDBRANCH   4   6
BRANCH   4  11
HETATM   11  C12 UNL     1      21.907   2.803  51.733  1.00  0.00     0.155 C 
BRANCH  11  12
HETATM   12  C13 UNL     1      20.731   2.023  51.325  1.00  0.00     0.002 C 
HETATM   13  C14 UNL     1      20.221   0.921  51.808  1.00  0.00    -0.043 C 
HETATM   14  C15 UNL     1      20.809   0.230  52.950  1.00  0.00     0.006 C 
HETATM   15  C18 UNL     1      19.003   0.350  51.179  1.00  0.00     0.152 C 
HETATM   16  C16 UNL     1      20.026  -0.638  53.553  1.00  0.00    -0.007 C 
HETATM   17  C17 UNL     1      18.648  -0.964  53.189  1.00  0.00     0.141 C 
HETATM   18  N3  UNL     1      18.094  -0.262  52.092  1.00  0.00    -0.414 N 
HETATM   19  H22 UNL     1      17.172   0.162  52.199  1.00  0.00     0.153 HD
ENDBRANCH  11  12
ENDBRANCH   4  11
BRANCH   3  20
HETATM   20  C2  UNL     1      26.430   1.015  52.700  1.00  0.00     0.249 C 
HETATM   21  C3  UNL     1      27.408   2.124  52.970  1.00  0.00     0.026 C 
HETATM   22  C4  UNL     1      28.623   2.047  53.489  1.00  0.00     0.000 C 
HETATM   23  C5  UNL     1      29.284   0.798  53.924  1.00  0.00    -0.002 C 
HETATM   24  C6  UNL     1      28.877  -0.447  53.724  1.00  0.00    -0.001 C 
HETATM   25  C7  UNL     1      27.660  -0.927  53.019  1.00  0.00     0.198 C 
HETATM   26  O2  UNL     1      27.142  -0.024  52.121  1.00  0.00    -0.360 OA
ENDBRANCH   3  20
TORSDOF 6
ENDMDL
MODEL 7
REMARK VINA RESULT:      -7.2      3.476      7.420
REMARK  6 active torsions:
REMARK  status: ('A' for Active; 'I' for Inactive)
REMARK       I    between atoms: C1_2  and  N1_3 
REMARK       I    between atoms: C1_2  and  N2_11 
REMARK    1  A    between atoms: N1_3  and  C2_4 
REMARK    2  A    between atoms: N2_11  and  C8_12 
REMARK    3  A    between atoms: N2_11  and  C12_17 
REMARK    4  A    between atoms: C8_12  and  C9_13 
REMARK    5  A    between atoms: C10_14  and  C11_15 
REMARK    6  A    between atoms: C12_17  and  C13_18 
ROOT
HETATM    1  O1  UNL     1      24.088  -0.882  53.999  1.00  0.00    -0.247 OA
HETATM    2  C1  UNL     1      24.250   0.277  53.479  1.00  0.00     0.321 C 
HETATM    3  N1  UNL     1      25.631   0.529  53.241  1.00  0.00    -0.313 N 
HETATM    4  N2  UNL     1      23.217   1.202  53.172  1.00  0.00    -0.327 N 
HETATM    5  H1  UNL     1      25.930   1.426  52.822  1.00  0.00     0.167 HD
ENDROOT
BRANCH   4   6
HETATM    6  C8  UNL     1      23.242   2.534  52.590  1.00  0.00     0.155 C 
BRANCH   6   7
HETATM    7  C9  UNL     1      23.888   2.585  51.258  1.00  0.00    -0.010 C 
HETATM    8  C10 UNL     1      23.520   2.506  50.008  1.00  0.00    -0.014 C 
BRANCH   8   9
HETATM    9  C11 UNL     1      22.273   2.325  49.265  1.00  0.00     0.141 C 
HETATM   10 CL1  UNL     1      22.490   1.957  47.542  1.00  0.00    -0.126 Cl
ENDBRANCH   8   9
ENDBRANCH   6   7
ENDBRANCH   4   6
BRANCH   4  11
HETATM   11  C12 UNL     1      21.888   0.729  53.502  1.00  0.00     0.155 C 
BRANCH  11  12
HETATM   12  C13 UNL     1      20.958   0.759  52.365  1.00  0.00     0.002 C 
HETATM   13  C14 UNL     1      19.819   0.147  52.169  1.00  0.00    -0.043 C 
HETATM   14  C15 UNL     1      19.242  -0.752  53.161  1.00  0.00     0.006 C 
HETATM   15  C18 UNL     1      19.086   0.372  50.898  1.00  0.00     0.152 C 
HETATM   16  C16 UNL     1      17.962  -1.016  53.012  1.00  0.00    -0.007 C 
HETATM   17  C17 UNL     1      17.085  -0.497  51.963  1.00  0.00     0.141 C 
HETATM   18  N3  UNL     1      17.665   0.392  51.027  1.00  0.00    -0.414 N 
HETATM   19  H22 UNL     1      17.183   1.266  50.820  1.00  0.00     0.153 HD
ENDBRANCH  11  12
ENDBRANCH   4  11
BRANCH   3  20
HETATM   20  C2  UNL     1      26.729  -0.342  53.517  1.00  0.00     0.249 C 
HETATM   21  C3  UNL     1      27.990   0.426  53.799  1.00  0.00     0.026 C 
HETATM   22  C4  UNL     1      29.241  -0.006  53.795  1.00  0.00     0.000 C 
HETATM   23  C5  UNL     1      29.659  -1.392  53.497  1.00  0.00    -0.002 C 
HETATM   24  C6  UNL     1      28.914  -2.382  53.027  1.00  0.00    -0.001 C 
HETATM   25  C7  UNL     1      27.471  -2.373  52.675  1.00  0.00     0.198 C 
HETATM   26  O2  UNL     1      26.970  -1.123  52.398  1.00  0.00    -0.360 OA
ENDBRANCH   3  20
TORSDOF 6
ENDMDL
MODEL 8
REMARK VINA RESULT:      -7.2      2.223      3.120
REMARK  6 active torsions:
REMARK  status: ('A' for Active; 'I' for Inactive)
REMARK       I    between atoms: C1_2  and  N1_3 
REMARK       I    between atoms: C1_2  and  N2_11 
REMARK    1  A    between atoms: N1_3  and  C2_4 
REMARK    2  A    between atoms: N2_11  and  C8_12 
REMARK    3  A    between atoms: N2_11  and  C12_17 
REMARK    4  A    between atoms: C8_12  and  C9_13 
REMARK    5  A    between atoms: C10_14  and  C11_15 
REMARK    6  A    between atoms: C12_17  and  C13_18 
ROOT
HETATM    1  O1  UNL     1      25.361   2.958  49.330  1.00  0.00    -0.247 OA
HETATM    2  C1  UNL     1      24.989   3.640  50.348  1.00  0.00     0.321 C 
HETATM    3  N1  UNL     1      25.419   4.992  50.229  1.00  0.00    -0.313 N 
HETATM    4  N2  UNL     1      24.249   3.144  51.455  1.00  0.00    -0.327 N 
HETATM    5  H1  UNL     1      25.197   5.675  50.973  1.00  0.00     0.167 HD
ENDROOT
BRANCH   4   6
HETATM    6  C8  UNL     1      23.760   3.783  52.665  1.00  0.00     0.155 C 
BRANCH   6   7
HETATM    7  C9  UNL     1      22.498   4.532  52.470  1.00  0.00    -0.010 C 
HETATM    8  C10 UNL     1      21.255   4.262  52.173  1.00  0.00    -0.014 C 
BRANCH   8   9
HETATM    9  C11 UNL     1      20.457   3.072  51.877  1.00  0.00     0.141 C 
HETATM   10 CL1  UNL     1      20.670   1.739  53.030  1.00  0.00    -0.126 Cl
ENDBRANCH   8   9
ENDBRANCH   6   7
ENDBRANCH   4   6
BRANCH   4  11
HETATM   11  C12 UNL     1      23.920   1.736  51.358  1.00  0.00     0.155 C 
BRANCH  11  12
HETATM   12  C13 UNL     1      24.238   0.977  52.575  1.00  0.00     0.002 C 
HETATM   13  C14 UNL     1      25.345   0.400  52.964  1.00  0.00    -0.043 C 
HETATM   14  C15 UNL     1      26.559   0.431  52.158  1.00  0.00     0.006 C 
HETATM   15  C18 UNL     1      25.372  -0.311  54.267  1.00  0.00     0.152 C 
HETATM   16  C16 UNL     1      27.672   0.138  52.796  1.00  0.00    -0.007 C 
HETATM   17  C17 UNL     1      27.796  -0.206  54.212  1.00  0.00     0.141 C 
HETATM   18  N3  UNL     1      26.605  -0.205  54.976  1.00  0.00    -0.414 N 
HETATM   19  H22 UNL     1      26.599   0.288  55.869  1.00  0.00     0.153 HD
ENDBRANCH  11  12
ENDBRANCH   4  11
BRANCH   3  20
HETATM   20  C2  UNL     1      26.163   5.571  49.155  1.00  0.00     0.249 C 
HETATM   21  C3  UNL     1      27.513   4.928  49.005  1.00  0.00     0.026 C 
HETATM   22  C4  UNL     1      28.574   5.374  48.352  1.00  0.00     0.000 C 
HETATM   23  C5  UNL     1      28.640   6.652  47.610  1.00  0.00    -0.002 C 
HETATM   24  C6  UNL     1      27.749   7.632  47.603  1.00  0.00    -0.001 C 
HETATM   25  C7  UNL     1      26.455   7.718  48.327  1.00  0.00     0.198 C 
HETATM   26  O2  UNL     1      26.379   6.911  49.436  1.00  0.00    -0.360 OA
ENDBRANCH   3  20
TORSDOF 6
ENDMDL
MODEL 9
REMARK VINA RESULT:      -7.2      2.367      6.881
REMARK  6 active torsions:
REMARK  status: ('A' for Active; 'I' for Inactive)
REMARK       I    between atoms: C1_2  and  N1_3 
REMARK       I    between atoms: C1_2  and  N2_11 
REMARK    1  A    between atoms: N1_3  and  C2_4 
REMARK    2  A    between atoms: N2_11  and  C8_12 
REMARK    3  A    between atoms: N2_11  and  C12_17 
REMARK    4  A    between atoms: C8_12  and  C9_13 
REMARK    5  A    between atoms: C10_14  and  C11_15 
REMARK    6  A    between atoms: C12_17  and  C13_18 
ROOT
HETATM    1  O1  UNL     1      25.965   1.916  51.230  1.00  0.00    -0.247 OA
HETATM    2  C1  UNL     1      25.055   1.407  51.975  1.00  0.00     0.321 C 
HETATM    3  N1  UNL     1      25.577   0.319  52.728  1.00  0.00    -0.313 N 
HETATM    4  N2  UNL     1      23.707   1.848  52.057  1.00  0.00    -0.327 N 
HETATM    5  H1  UNL     1      24.965  -0.201  53.381  1.00  0.00     0.167 HD
ENDROOT
BRANCH   4   6
HETATM    6  C8  UNL     1      22.576   1.382  52.840  1.00  0.00     0.155 C 
BRANCH   6   7
HETATM    7  C9  UNL     1      22.198  -0.022  52.556  1.00  0.00    -0.010 C 
HETATM    8  C10 UNL     1      21.963  -1.111  53.237  1.00  0.00    -0.014 C 
BRANCH   8   9
HETATM    9  C11 UNL     1      21.948  -1.516  54.643  1.00  0.00     0.141 C 
HETATM   10 CL1  UNL     1      23.498  -1.309  55.483  1.00  0.00    -0.126 Cl
ENDBRANCH   8   9
ENDBRANCH   6   7
ENDBRANCH   4   6
BRANCH   4  11
HETATM   11  C12 UNL     1      23.404   2.975  51.197  1.00  0.00     0.155 C 
BRANCH  11  12
HETATM   12  C13 UNL     1      22.707   2.596  49.960  1.00  0.00     0.002 C 
HETATM   13  C14 UNL     1      22.309   3.313  48.943  1.00  0.00    -0.043 C 
HETATM   14  C15 UNL     1      22.523   4.754  48.881  1.00  0.00     0.006 C 
HETATM   15  C18 UNL     1      21.616   2.646  47.813  1.00  0.00     0.152 C 
HETATM   16  C16 UNL     1      22.407   5.295  47.687  1.00  0.00    -0.007 C 
HETATM   17  C17 UNL     1      22.092   4.593  46.444  1.00  0.00     0.141 C 
HETATM   18  N3  UNL     1      21.913   3.191  46.528  1.00  0.00    -0.414 N 
HETATM   19  H22 UNL     1      22.402   2.595  45.861  1.00  0.00     0.153 HD
ENDBRANCH  11  12
ENDBRANCH   4  11
BRANCH   3  20
HETATM   20  C2  UNL     1      26.913  -0.187  52.706  1.00  0.00     0.249 C 
HETATM   21  C3  UNL     1      26.938  -1.684  52.572  1.00  0.00     0.026 C 
HETATM   22  C4  UNL     1      27.934  -2.521  52.815  1.00  0.00     0.000 C 
HETATM   23  C5  UNL     1      29.277  -2.126  53.290  1.00  0.00    -0.002 C 
HETATM   24  C6  UNL     1      29.671  -0.934  53.712  1.00  0.00    -0.001 C 
HETATM   25  C7  UNL     1      28.883   0.321  53.822  1.00  0.00     0.198 C 
HETATM   26  O2  UNL     1      27.526   0.123  53.911  1.00  0.00    -0.360 OA
ENDBRANCH   3  20
TORSDOF 6
ENDMDL
