MODEL 1
REMARK VINA RESULT:      -7.3      0.000      0.000
REMARK  6 active torsions:
REMARK  status: ('A' for Active; 'I' for Inactive)
REMARK    1  A    between atoms: C1_2  and  C2_3 
REMARK    2  A    between atoms: C1_2  and  C9_11 
REMARK    3  A    between atoms: C2_3  and  C3_4 
REMARK    4  A    between atoms: C3_4  and  N1_5 
REMARK    5  A    between atoms: C12_14  and  O2_15 
REMARK    6  A    between atoms: O2_15  and  C13_16 
ROOT
HETATM    1  C9  UNL     1      23.771   3.624  51.988  1.00  0.00     0.024 A 
HETATM    2  C10 UNL     1      24.147   2.997  53.150  1.00  0.00     0.019 A 
HETATM    3  C11 UNL     1      25.341   2.335  53.339  1.00  0.00     0.038 A 
HETATM    4  C12 UNL     1      26.389   2.149  52.465  1.00  0.00     0.077 A 
HETATM    5  C19 UNL     1      26.370   2.652  51.166  1.00  0.00     0.054 A 
HETATM    6  P1  UNL     1      24.935   3.542  50.689  1.00  0.00    -0.016 P 
ENDROOT
BRANCH   1   7
HETATM    7  C1  UNL     1      22.516   4.326  51.781  1.00  0.00     0.162 C 
HETATM    8  O1  UNL     1      22.469   5.534  51.406  1.00  0.00    -0.292 OA
BRANCH   7   9
HETATM    9  C2  UNL     1      21.186   3.747  51.976  1.00  0.00     0.103 C 
BRANCH   9  10
HETATM   10  C3  UNL     1      21.022   2.556  51.035  1.00  0.00     0.124 C 
BRANCH  10  11
HETATM   11  N1  UNL     1      20.738   1.345  51.722  1.00  0.00    -0.412 N 
HETATM   12  C4  UNL     1      21.529   0.230  51.390  1.00  0.00     0.117 C 
HETATM   13  C5  UNL     1      22.503  -0.129  52.487  1.00  0.00     0.019 C 
HETATM   14  C6  UNL     1      21.626  -0.560  53.659  1.00  0.00     0.003 C 
HETATM   15  C7  UNL     1      20.863   0.652  54.102  1.00  0.00     0.019 C 
HETATM   16  C8  UNL     1      20.255   1.471  53.042  1.00  0.00     0.117 C 
ENDBRANCH  10  11
ENDBRANCH   9  10
ENDBRANCH   7   9
ENDBRANCH   1   7
BRANCH   4  17
HETATM   17  O2  UNL     1      27.491   1.439  52.899  1.00  0.00    -0.311 OA
BRANCH  17  18
HETATM   18  C13 UNL     1      27.656   0.083  52.863  1.00  0.00     0.076 A 
HETATM   19  C14 UNL     1      28.912  -0.283  53.356  1.00  0.00     0.037 A 
HETATM   20  C15 UNL     1      29.338  -1.595  53.434  1.00  0.00     0.003 A 
HETATM   21  C16 UNL     1      28.479  -2.607  53.000  1.00  0.00     0.000 A 
HETATM   22  C17 UNL     1      27.227  -2.250  52.506  1.00  0.00     0.003 A 
HETATM   23  C18 UNL     1      26.828  -0.934  52.443  1.00  0.00     0.037 A 
ENDBRANCH  17  18
ENDBRANCH   4  17
TORSDOF 6
ENDMDL
MODEL 2
REMARK VINA RESULT:      -6.9      2.425      4.308
REMARK  6 active torsions:
REMARK  status: ('A' for Active; 'I' for Inactive)
REMARK    1  A    between atoms: C1_2  and  C2_3 
REMARK    2  A    between atoms: C1_2  and  C9_11 
REMARK    3  A    between atoms: C2_3  and  C3_4 
REMARK    4  A    between atoms: C3_4  and  N1_5 
REMARK    5  A    between atoms: C12_14  and  O2_15 
REMARK    6  A    between atoms: O2_15  and  C13_16 
ROOT
HETATM    1  C9  UNL     1      23.182   2.925  52.451  1.00  0.00     0.024 A 
HETATM    2  C10 UNL     1      24.478   2.852  52.899  1.00  0.00     0.019 A 
HETATM    3  C11 UNL     1      25.105   1.698  53.315  1.00  0.00     0.038 A 
HETATM    4  C12 UNL     1      24.620   0.410  53.382  1.00  0.00     0.077 A 
HETATM    5  C19 UNL     1      23.319   0.087  53.003  1.00  0.00     0.054 A 
HETATM    6  P1  UNL     1      22.316   1.409  52.431  1.00  0.00    -0.016 P 
ENDROOT
BRANCH   1   7
HETATM    7  C1  UNL     1      22.514   4.137  52.008  1.00  0.00     0.162 C 
HETATM    8  O1  UNL     1      21.292   4.361  52.246  1.00  0.00    -0.292 OA
BRANCH   7   9
HETATM    9  C2  UNL     1      23.147   5.218  51.252  1.00  0.00     0.103 C 
BRANCH   9  10
HETATM   10  C3  UNL     1      22.870   5.010  49.766  1.00  0.00     0.124 C 
BRANCH  10  11
HETATM   11  N1  UNL     1      24.054   4.801  49.007  1.00  0.00    -0.412 N 
HETATM   12  C4  UNL     1      24.755   5.951  48.600  1.00  0.00     0.117 C 
HETATM   13  C5  UNL     1      26.046   6.136  49.362  1.00  0.00     0.019 C 
HETATM   14  C6  UNL     1      26.908   4.944  48.960  1.00  0.00     0.003 C 
HETATM   15  C7  UNL     1      26.233   3.716  49.492  1.00  0.00     0.019 C 
HETATM   16  C8  UNL     1      24.778   3.623  49.289  1.00  0.00     0.117 C 
ENDBRANCH  10  11
ENDBRANCH   9  10
ENDBRANCH   7   9
ENDBRANCH   1   7
BRANCH   4  17
HETATM   17  O2  UNL     1      25.457  -0.587  53.841  1.00  0.00    -0.311 OA
BRANCH  17  18
HETATM   18  C13 UNL     1      26.818  -0.527  53.950  1.00  0.00     0.076 A 
HETATM   19  C14 UNL     1      27.432  -1.418  53.064  1.00  0.00     0.037 A 
HETATM   20  C15 UNL     1      28.803  -1.559  52.967  1.00  0.00     0.003 A 
HETATM   21  C16 UNL     1      29.619  -0.779  53.790  1.00  0.00     0.000 A 
HETATM   22  C17 UNL     1      29.014   0.110  54.675  1.00  0.00     0.003 A 
HETATM   23  C18 UNL     1      27.644   0.231  54.749  1.00  0.00     0.037 A 
ENDBRANCH  17  18
ENDBRANCH   4  17
TORSDOF 6
ENDMDL
MODEL 3
REMARK VINA RESULT:      -6.9      3.483      6.671
REMARK  6 active torsions:
REMARK  status: ('A' for Active; 'I' for Inactive)
REMARK    1  A    between atoms: C1_2  and  C2_3 
REMARK    2  A    between atoms: C1_2  and  C9_11 
REMARK    3  A    between atoms: C2_3  and  C3_4 
REMARK    4  A    between atoms: C3_4  and  N1_5 
REMARK    5  A    between atoms: C12_14  and  O2_15 
REMARK    6  A    between atoms: O2_15  and  C13_16 
ROOT
HETATM    1  C9  UNL     1      24.107   2.454  51.821  1.00  0.00     0.024 A 
HETATM    2  C10 UNL     1      24.818   2.320  50.653  1.00  0.00     0.019 A 
HETATM    3  C11 UNL     1      25.144   3.356  49.806  1.00  0.00     0.038 A 
HETATM    4  C12 UNL     1      24.858   4.699  49.910  1.00  0.00     0.077 A 
HETATM    5  C19 UNL     1      24.139   5.223  50.982  1.00  0.00     0.054 A 
HETATM    6  P1  UNL     1      23.608   4.082  52.205  1.00  0.00    -0.016 P 
ENDROOT
BRANCH   1   7
HETATM    7  C1  UNL     1      23.761   1.368  52.721  1.00  0.00     0.162 C 
HETATM    8  O1  UNL     1      22.647   1.314  53.320  1.00  0.00    -0.292 OA
BRANCH   7   9
HETATM    9  C2  UNL     1      24.626   0.233  53.043  1.00  0.00     0.103 C 
BRANCH   9  10
HETATM   10  C3  UNL     1      25.813   0.732  53.861  1.00  0.00     0.124 C 
BRANCH  10  11
HETATM   11  N1  UNL     1      27.059   0.534  53.206  1.00  0.00    -0.412 N 
HETATM   12  C4  UNL     1      28.034   1.532  53.389  1.00  0.00     0.117 C 
HETATM   13  C5  UNL     1      29.163   1.074  54.282  1.00  0.00     0.019 C 
HETATM   14  C6  UNL     1      29.841  -0.051  53.505  1.00  0.00     0.003 C 
HETATM   15  C7  UNL     1      28.851  -1.172  53.406  1.00  0.00     0.019 C 
HETATM   16  C8  UNL     1      27.474  -0.804  53.040  1.00  0.00     0.117 C 
ENDBRANCH  10  11
ENDBRANCH   9  10
ENDBRANCH   7   9
ENDBRANCH   1   7
BRANCH   4  17
HETATM   17  O2  UNL     1      25.302   5.548  48.916  1.00  0.00    -0.311 OA
BRANCH  17  18
HETATM   18  C13 UNL     1      26.602   5.798  48.574  1.00  0.00     0.076 A 
HETATM   19  C14 UNL     1      26.753   7.102  48.092  1.00  0.00     0.037 A 
HETATM   20  C15 UNL     1      27.966   7.617  47.677  1.00  0.00     0.003 A 
HETATM   21  C16 UNL     1      29.098   6.801  47.738  1.00  0.00     0.000 A 
HETATM   22  C17 UNL     1      28.955   5.500  48.216  1.00  0.00     0.003 A 
HETATM   23  C18 UNL     1      27.733   5.015  48.625  1.00  0.00     0.037 A 
ENDBRANCH  17  18
ENDBRANCH   4  17
TORSDOF 6
ENDMDL
MODEL 4
REMARK VINA RESULT:      -6.8      3.105      5.927
REMARK  6 active torsions:
REMARK  status: ('A' for Active; 'I' for Inactive)
REMARK    1  A    between atoms: C1_2  and  C2_3 
REMARK    2  A    between atoms: C1_2  and  C9_11 
REMARK    3  A    between atoms: C2_3  and  C3_4 
REMARK    4  A    between atoms: C3_4  and  N1_5 
REMARK    5  A    between atoms: C12_14  and  O2_15 
REMARK    6  A    between atoms: O2_15  and  C13_16 
ROOT
HETATM    1  C9  UNL     1      23.057   1.634  52.185  1.00  0.00     0.024 A 
HETATM    2  C10 UNL     1      23.836   2.666  52.648  1.00  0.00     0.019 A 
HETATM    3  C11 UNL     1      24.231   3.753  51.900  1.00  0.00     0.038 A 
HETATM    4  C12 UNL     1      23.960   4.059  50.584  1.00  0.00     0.077 A 
HETATM    5  C19 UNL     1      23.184   3.231  49.775  1.00  0.00     0.054 A 
HETATM    6  P1  UNL     1      22.563   1.767  50.516  1.00  0.00    -0.016 P 
ENDROOT
BRANCH   1   7
HETATM    7  C1  UNL     1      22.635   0.485  52.967  1.00  0.00     0.162 C 
HETATM    8  O1  UNL     1      21.518  -0.083  52.788  1.00  0.00    -0.292 OA
BRANCH   7   9
HETATM    9  C2  UNL     1      23.419  -0.143  54.031  1.00  0.00     0.103 C 
BRANCH   9  10
HETATM   10  C3  UNL     1      24.395  -1.137  53.406  1.00  0.00     0.124 C 
BRANCH  10  11
HETATM   11  N1  UNL     1      25.748  -0.710  53.492  1.00  0.00    -0.412 N 
HETATM   12  C4  UNL     1      26.472  -0.664  52.286  1.00  0.00     0.117 C 
HETATM   13  C5  UNL     1      26.729   0.752  51.825  1.00  0.00     0.019 C 
HETATM   14  C6  UNL     1      27.638   1.349  52.895  1.00  0.00     0.003 C 
HETATM   15  C7  UNL     1      26.837   1.418  54.161  1.00  0.00     0.019 C 
HETATM   16  C8  UNL     1      26.048   0.225  54.505  1.00  0.00     0.117 C 
ENDBRANCH  10  11
ENDBRANCH   9  10
ENDBRANCH   7   9
ENDBRANCH   1   7
BRANCH   4  17
HETATM   17  O2  UNL     1      24.478   5.224  50.057  1.00  0.00    -0.311 OA
BRANCH  17  18
HETATM   18  C13 UNL     1      25.697   5.380  49.457  1.00  0.00     0.076 A 
HETATM   19  C14 UNL     1      25.886   6.702  49.040  1.00  0.00     0.037 A 
HETATM   20  C15 UNL     1      27.034   7.134  48.405  1.00  0.00     0.003 A 
HETATM   21  C16 UNL     1      28.056   6.214  48.165  1.00  0.00     0.000 A 
HETATM   22  C17 UNL     1      27.875   4.895  48.576  1.00  0.00     0.003 A 
HETATM   23  C18 UNL     1      26.720   4.493  49.209  1.00  0.00     0.037 A 
ENDBRANCH  17  18
ENDBRANCH   4  17
TORSDOF 6
ENDMDL
MODEL 5
REMARK VINA RESULT:      -6.7      2.521      4.099
REMARK  6 active torsions:
REMARK  status: ('A' for Active; 'I' for Inactive)
REMARK    1  A    between atoms: C1_2  and  C2_3 
REMARK    2  A    between atoms: C1_2  and  C9_11 
REMARK    3  A    between atoms: C2_3  and  C3_4 
REMARK    4  A    between atoms: C3_4  and  N1_5 
REMARK    5  A    between atoms: C12_14  and  O2_15 
REMARK    6  A    between atoms: O2_15  and  C13_16 
ROOT
HETATM    1  C9  UNL     1      21.303   1.847  52.451  1.00  0.00     0.024 A 
HETATM    2  C10 UNL     1      22.674   1.910  52.391  1.00  0.00     0.019 A 
HETATM    3  C11 UNL     1      23.532   1.029  53.011  1.00  0.00     0.038 A 
HETATM    4  C12 UNL     1      23.249  -0.066  53.797  1.00  0.00     0.077 A 
HETATM    5  C19 UNL     1      21.942  -0.453  54.088  1.00  0.00     0.054 A 
HETATM    6  P1  UNL     1      20.661   0.530  53.401  1.00  0.00    -0.016 P 
ENDROOT
BRANCH   1   7
HETATM    7  C1  UNL     1      20.391   2.770  51.799  1.00  0.00     0.162 C 
HETATM    8  O1  UNL     1      19.430   3.319  52.412  1.00  0.00    -0.292 OA
BRANCH   7   9
HETATM    9  C2  UNL     1      20.462   3.171  50.394  1.00  0.00     0.103 C 
BRANCH   9  10
HETATM   10  C3  UNL     1      20.902   4.631  50.317  1.00  0.00     0.124 C 
BRANCH  10  11
HETATM   11  N1  UNL     1      22.169   4.793  49.693  1.00  0.00    -0.412 N 
HETATM   12  C4  UNL     1      23.061   5.695  50.302  1.00  0.00     0.117 C 
HETATM   13  C5  UNL     1      24.209   4.992  50.988  1.00  0.00     0.019 C 
HETATM   14  C6  UNL     1      24.983   4.320  49.858  1.00  0.00     0.003 C 
HETATM   15  C7  UNL     1      24.084   3.270  49.276  1.00  0.00     0.019 C 
HETATM   16  C8  UNL     1      22.689   3.664  49.026  1.00  0.00     0.117 C 
ENDBRANCH  10  11
ENDBRANCH   9  10
ENDBRANCH   7   9
ENDBRANCH   1   7
BRANCH   4  17
HETATM   17  O2  UNL     1      24.300  -0.799  54.310  1.00  0.00    -0.311 OA
BRANCH  17  18
HETATM   18  C13 UNL     1      25.617  -0.701  53.955  1.00  0.00     0.076 A 
HETATM   19  C14 UNL     1      26.338   0.037  54.899  1.00  0.00     0.037 A 
HETATM   20  C15 UNL     1      27.691   0.288  54.786  1.00  0.00     0.003 A 
HETATM   21  C16 UNL     1      28.377  -0.215  53.678  1.00  0.00     0.000 A 
HETATM   22  C17 UNL     1      27.665  -0.950  52.732  1.00  0.00     0.003 A 
HETATM   23  C18 UNL     1      26.316  -1.186  52.873  1.00  0.00     0.037 A 
ENDBRANCH  17  18
ENDBRANCH   4  17
TORSDOF 6
ENDMDL
MODEL 6
REMARK VINA RESULT:      -6.6      4.350      6.844
REMARK  6 active torsions:
REMARK  status: ('A' for Active; 'I' for Inactive)
REMARK    1  A    between atoms: C1_2  and  C2_3 
REMARK    2  A    between atoms: C1_2  and  C9_11 
REMARK    3  A    between atoms: C2_3  and  C3_4 
REMARK    4  A    between atoms: C3_4  and  N1_5 
REMARK    5  A    between atoms: C12_14  and  O2_15 
REMARK    6  A    between atoms: O2_15  and  C13_16 
ROOT
HETATM    1  C9  UNL     1      25.263   3.990  50.356  1.00  0.00     0.024 A 
HETATM    2  C10 UNL     1      26.398   3.563  49.710  1.00  0.00     0.019 A 
HETATM    3  C11 UNL     1      27.219   4.364  48.946  1.00  0.00     0.038 A 
HETATM    4  C12 UNL     1      27.114   5.707  48.658  1.00  0.00     0.077 A 
HETATM    5  C19 UNL     1      26.072   6.491  49.147  1.00  0.00     0.054 A 
HETATM    6  P1  UNL     1      24.886   5.682  50.156  1.00  0.00    -0.016 P 
ENDROOT
BRANCH   1   7
HETATM    7  C1  UNL     1      24.394   3.153  51.164  1.00  0.00     0.162 C 
HETATM    8  O1  UNL     1      23.204   3.483  51.443  1.00  0.00    -0.292 OA
BRANCH   7   9
HETATM    9  C2  UNL     1      24.768   1.863  51.744  1.00  0.00     0.103 C 
BRANCH   9  10
HETATM   10  C3  UNL     1      25.824   2.092  52.822  1.00  0.00     0.124 C 
BRANCH  10  11
HETATM   11  N1  UNL     1      27.002   1.325  52.614  1.00  0.00    -0.412 N 
HETATM   12  C4  UNL     1      28.114   1.646  53.414  1.00  0.00     0.117 C 
HETATM   13  C5  UNL     1      28.388   0.594  54.463  1.00  0.00     0.019 C 
HETATM   14  C6  UNL     1      28.774  -0.652  53.672  1.00  0.00     0.003 C 
HETATM   15  C7  UNL     1      27.559  -1.077  52.903  1.00  0.00     0.019 C 
HETATM   16  C8  UNL     1      26.815  -0.014  52.209  1.00  0.00     0.117 C 
ENDBRANCH  10  11
ENDBRANCH   9  10
ENDBRANCH   7   9
ENDBRANCH   1   7
BRANCH   4  17
HETATM   17  O2  UNL     1      28.078   6.287  47.858  1.00  0.00    -0.311 OA
BRANCH  17  18
HETATM   18  C13 UNL     1      29.363   6.590  48.213  1.00  0.00     0.076 A 
HETATM   19  C14 UNL     1      29.475   7.930  48.597  1.00  0.00     0.037 A 
HETATM   20  C15 UNL     1      30.665   8.499  49.006  1.00  0.00     0.003 A 
HETATM   21  C16 UNL     1      31.814   7.705  49.038  1.00  0.00     0.000 A 
HETATM   22  C17 UNL     1      31.710   6.370  48.655  1.00  0.00     0.003 A 
HETATM   23  C18 UNL     1      30.509   5.829  48.255  1.00  0.00     0.037 A 
ENDBRANCH  17  18
ENDBRANCH   4  17
TORSDOF 6
ENDMDL
MODEL 7
REMARK VINA RESULT:      -6.5      3.826      5.959
REMARK  6 active torsions:
REMARK  status: ('A' for Active; 'I' for Inactive)
REMARK    1  A    between atoms: C1_2  and  C2_3 
REMARK    2  A    between atoms: C1_2  and  C9_11 
REMARK    3  A    between atoms: C2_3  and  C3_4 
REMARK    4  A    between atoms: C3_4  and  N1_5 
REMARK    5  A    between atoms: C12_14  and  O2_15 
REMARK    6  A    between atoms: O2_15  and  C13_16 
ROOT
HETATM    1  C9  UNL     1      24.940   3.639  50.662  1.00  0.00     0.024 A 
HETATM    2  C10 UNL     1      26.156   3.006  50.586  1.00  0.00     0.019 A 
HETATM    3  C11 UNL     1      26.715   2.246  51.590  1.00  0.00     0.038 A 
HETATM    4  C12 UNL     1      26.225   1.949  52.842  1.00  0.00     0.077 A 
HETATM    5  C19 UNL     1      24.992   2.424  53.288  1.00  0.00     0.054 A 
HETATM    6  P1  UNL     1      24.086   3.428  52.170  1.00  0.00    -0.016 P 
ENDROOT
BRANCH   1   7
HETATM    7  C1  UNL     1      24.344   4.440  49.608  1.00  0.00     0.162 C 
HETATM    8  O1  UNL     1      23.131   4.315  49.266  1.00  0.00    -0.292 OA
BRANCH   7   9
HETATM    9  C2  UNL     1      25.043   5.461  48.828  1.00  0.00     0.103 C 
BRANCH   9  10
HETATM   10  C3  UNL     1      25.458   6.598  49.758  1.00  0.00     0.124 C 
BRANCH  10  11
HETATM   11  N1  UNL     1      26.201   7.612  49.095  1.00  0.00    -0.412 N 
HETATM   12  C4  UNL     1      26.158   8.899  49.661  1.00  0.00     0.117 C 
HETATM   13  C5  UNL     1      27.460   9.278  50.326  1.00  0.00     0.019 C 
HETATM   14  C6  UNL     1      28.472   9.344  49.187  1.00  0.00     0.003 C 
HETATM   15  C7  UNL     1      28.619   7.952  48.649  1.00  0.00     0.019 C 
HETATM   16  C8  UNL     1      27.376   7.196  48.433  1.00  0.00     0.117 C 
ENDBRANCH  10  11
ENDBRANCH   9  10
ENDBRANCH   7   9
ENDBRANCH   1   7
BRANCH   4  17
HETATM   17  O2  UNL     1      26.984   1.155  53.677  1.00  0.00    -0.311 OA
BRANCH  17  18
HETATM   18  C13 UNL     1      27.458  -0.099  53.406  1.00  0.00     0.076 A 
HETATM   19  C14 UNL     1      28.815  -0.203  53.726  1.00  0.00     0.037 A 
HETATM   20  C15 UNL     1      29.543  -1.364  53.552  1.00  0.00     0.003 A 
HETATM   21  C16 UNL     1      28.899  -2.489  53.032  1.00  0.00     0.000 A 
HETATM   22  C17 UNL     1      27.547  -2.392  52.710  1.00  0.00     0.003 A 
HETATM   23  C18 UNL     1      26.847  -1.222  52.896  1.00  0.00     0.037 A 
ENDBRANCH  17  18
ENDBRANCH   4  17
TORSDOF 6
ENDMDL
MODEL 8
REMARK VINA RESULT:      -6.4      2.582      4.490
REMARK  6 active torsions:
REMARK  status: ('A' for Active; 'I' for Inactive)
REMARK    1  A    between atoms: C1_2  and  C2_3 
REMARK    2  A    between atoms: C1_2  and  C9_11 
REMARK    3  A    between atoms: C2_3  and  C3_4 
REMARK    4  A    between atoms: C3_4  and  N1_5 
REMARK    5  A    between atoms: C12_14  and  O2_15 
REMARK    6  A    between atoms: O2_15  and  C13_16 
ROOT
HETATM    1  C9  UNL     1      22.573   1.816  51.764  1.00  0.00     0.024 A 
HETATM    2  C10 UNL     1      23.937   1.733  51.618  1.00  0.00     0.019 A 
HETATM    3  C11 UNL     1      24.747   0.833  52.276  1.00  0.00     0.038 A 
HETATM    4  C12 UNL     1      24.414  -0.145  53.187  1.00  0.00     0.077 A 
HETATM    5  C19 UNL     1      23.099  -0.365  53.592  1.00  0.00     0.054 A 
HETATM    6  P1  UNL     1      21.874   0.672  52.882  1.00  0.00    -0.016 P 
ENDROOT
BRANCH   1   7
HETATM    7  C1  UNL     1      21.712   2.760  51.073  1.00  0.00     0.162 C 
HETATM    8  O1  UNL     1      21.452   2.660  49.838  1.00  0.00    -0.292 OA
BRANCH   7   9
HETATM    9  C2  UNL     1      21.056   3.911  51.692  1.00  0.00     0.103 C 
BRANCH   9  10
HETATM   10  C3  UNL     1      22.121   4.924  52.106  1.00  0.00     0.124 C 
BRANCH  10  11
HETATM   11  N1  UNL     1      22.797   5.500  50.996  1.00  0.00    -0.412 N 
HETATM   12  C4  UNL     1      22.055   6.393  50.200  1.00  0.00     0.117 C 
HETATM   13  C5  UNL     1      22.490   7.827  50.389  1.00  0.00     0.019 C 
HETATM   14  C6  UNL     1      23.921   7.870  49.863  1.00  0.00     0.003 C 
HETATM   15  C7  UNL     1      24.749   7.016  50.775  1.00  0.00     0.019 C 
HETATM   16  C8  UNL     1      24.184   5.710  51.147  1.00  0.00     0.117 C 
ENDBRANCH  10  11
ENDBRANCH   9  10
ENDBRANCH   7   9
ENDBRANCH   1   7
BRANCH   4  17
HETATM   17  O2  UNL     1      25.423  -0.928  53.712  1.00  0.00    -0.311 OA
BRANCH  17  18
HETATM   18  C13 UNL     1      26.727  -0.564  53.902  1.00  0.00     0.076 A 
HETATM   19  C14 UNL     1      27.583  -1.328  53.103  1.00  0.00     0.037 A 
HETATM   20  C15 UNL     1      28.955  -1.165  53.098  1.00  0.00     0.003 A 
HETATM   21  C16 UNL     1      29.518  -0.194  53.929  1.00  0.00     0.000 A 
HETATM   22  C17 UNL     1      28.672   0.570  54.728  1.00  0.00     0.003 A 
HETATM   23  C18 UNL     1      27.307   0.387  54.710  1.00  0.00     0.037 A 
ENDBRANCH  17  18
ENDBRANCH   4  17
TORSDOF 6
ENDMDL
MODEL 9
REMARK VINA RESULT:      -6.4      5.155      7.784
REMARK  6 active torsions:
REMARK  status: ('A' for Active; 'I' for Inactive)
REMARK    1  A    between atoms: C1_2  and  C2_3 
REMARK    2  A    between atoms: C1_2  and  C9_11 
REMARK    3  A    between atoms: C2_3  and  C3_4 
REMARK    4  A    between atoms: C3_4  and  N1_5 
REMARK    5  A    between atoms: C12_14  and  O2_15 
REMARK    6  A    between atoms: O2_15  and  C13_16 
ROOT
HETATM    1  C9  UNL     1      26.352   5.905  48.945  1.00  0.00     0.024 A 
HETATM    2  C10 UNL     1      27.070   4.735  48.899  1.00  0.00     0.019 A 
HETATM    3  C11 UNL     1      26.777   3.601  49.623  1.00  0.00     0.038 A 
HETATM    4  C12 UNL     1      25.756   3.370  50.518  1.00  0.00     0.077 A 
HETATM    5  C19 UNL     1      24.808   4.343  50.828  1.00  0.00     0.054 A 
HETATM    6  P1  UNL     1      24.977   5.891  50.020  1.00  0.00    -0.016 P 
ENDROOT
BRANCH   1   7
HETATM    7  C1  UNL     1      26.653   7.105  48.183  1.00  0.00     0.162 C 
HETATM    8  O1  UNL     1      25.883   8.109  48.169  1.00  0.00    -0.292 OA
BRANCH   7   9
HETATM    9  C2  UNL     1      27.845   7.301  47.357  1.00  0.00     0.103 C 
BRANCH   9  10
HETATM   10  C3  UNL     1      28.965   7.860  48.230  1.00  0.00     0.124 C 
BRANCH  10  11
HETATM   11  N1  UNL     1      30.230   7.273  47.951  1.00  0.00    -0.412 N 
HETATM   12  C4  UNL     1      31.299   8.158  47.718  1.00  0.00     0.117 C 
HETATM   13  C5  UNL     1      32.284   8.181  48.863  1.00  0.00     0.019 C 
HETATM   14  C6  UNL     1      32.884   6.779  48.887  1.00  0.00     0.003 C 
HETATM   15  C7  UNL     1      31.779   5.835  49.253  1.00  0.00     0.019 C 
HETATM   16  C8  UNL     1      30.492   6.030  48.565  1.00  0.00     0.117 C 
ENDBRANCH  10  11
ENDBRANCH   9  10
ENDBRANCH   7   9
ENDBRANCH   1   7
BRANCH   4  17
HETATM   17  O2  UNL     1      25.675   2.132  51.122  1.00  0.00    -0.311 OA
BRANCH  17  18
HETATM   18  C13 UNL     1      26.598   1.569  51.959  1.00  0.00     0.076 A 
HETATM   19  C14 UNL     1      26.489   0.174  51.961  1.00  0.00     0.037 A 
HETATM   20  C15 UNL     1      27.304  -0.644  52.720  1.00  0.00     0.003 A 
HETATM   21  C16 UNL     1      28.282  -0.057  53.526  1.00  0.00     0.000 A 
HETATM   22  C17 UNL     1      28.394   1.332  53.531  1.00  0.00     0.003 A 
HETATM   23  C18 UNL     1      27.570   2.122  52.762  1.00  0.00     0.037 A 
ENDBRANCH  17  18
ENDBRANCH   4  17
TORSDOF 6
ENDMDL
