MODEL 1
REMARK VINA RESULT:      -8.6      0.000      0.000
REMARK  6 active torsions:
REMARK  status: ('A' for Active; 'I' for Inactive)
REMARK    1  A    between atoms: C2_2  and  C3_3 
REMARK    2  A    between atoms: C2_2  and  O1_5 
REMARK    3  A    between atoms: C2_2  and  N4_23 
REMARK    4  A    between atoms: C3_3  and  N1_4 
REMARK    5  A    between atoms: O1_5  and  C4_6 
REMARK    6  A    between atoms: C13_17  and  C14_18 
ROOT
HETATM    1  C4  UNL     1      25.726   4.384  49.339  1.00  0.00     0.074 A 
HETATM    2  C5  UNL     1      26.646   3.704  50.144  1.00  0.00     0.038 A 
HETATM    3  C6  UNL     1      26.243   2.677  51.001  1.00  0.00     0.018 A 
HETATM    4  C7  UNL     1      24.901   2.310  51.069  1.00  0.00     0.019 A 
HETATM    5  C8  UNL     1      24.128   1.384  51.759  1.00  0.00     0.046 A 
HETATM    6  N2  UNL     1      22.847   1.526  51.375  1.00  0.00    -0.272 N 
HETATM    7  N3  UNL     1      22.784   2.494  50.477  1.00  0.00    -0.172 NA
HETATM    8  C9  UNL     1      24.016   2.993  50.268  1.00  0.00     0.092 A 
HETATM    9  C10 UNL     1      24.405   4.006  49.419  1.00  0.00     0.071 A 
HETATM   10  C11 UNL     1      21.737   0.755  51.857  1.00  0.00     0.155 C 
HETATM   11  C12 UNL     1      21.675   0.626  53.352  1.00  0.00     0.061 C 
HETATM   12  C13 UNL     1      22.594  -0.512  53.724  1.00  0.00    -0.018 C 
HETATM   13  C15 UNL     1      23.895  -0.445  53.397  1.00  0.00    -0.012 C 
HETATM   14  C16 UNL     1      24.811   0.482  52.721  1.00  0.00     0.087 C 
ENDROOT
BRANCH   1  15
HETATM   15  O1  UNL     1      26.360   5.342  48.591  1.00  0.00    -0.315 OA
BRANCH  15  16
HETATM   16  C2  UNL     1      26.290   6.724  48.737  1.00  0.00     0.175 C 
HETATM   17  C1  UNL     1      25.560   7.456  47.660  1.00  0.00     0.078 C 
BRANCH  16  18
HETATM   18  C3  UNL     1      25.695   7.027  50.072  1.00  0.00     0.140 C 
BRANCH  18  19
HETATM   19  N1  UNL     1      25.224   7.353  51.228  1.00  0.00    -0.311 NA
HETATM   20  H5  UNL     1      24.259   7.127  51.494  1.00  0.00     0.185 HD
ENDBRANCH  18  19
ENDBRANCH  16  18
BRANCH  16  21
HETATM   21  N4  UNL     1      27.674   7.214  48.743  1.00  0.00    -0.311 N 
HETATM   22  C17 UNL     1      28.792   6.402  48.240  1.00  0.00     0.155 C 
HETATM   23  C18 UNL     1      29.625   7.177  47.245  1.00  0.00     0.188 C 
HETATM   24  O2  UNL     1      29.556   8.549  47.464  1.00  0.00    -0.380 OA
HETATM   25  C19 UNL     1      29.475   8.849  48.829  1.00  0.00     0.270 C 
HETATM   26  C20 UNL     1      28.065   8.509  49.230  1.00  0.00     0.246 C 
HETATM   27  O3  UNL     1      27.212   9.147  49.895  1.00  0.00    -0.271 OA
ENDBRANCH  16  21
ENDBRANCH  15  16
ENDBRANCH   1  15
BRANCH  12  28
HETATM   28  C14 UNL     1      22.143  -1.727  54.442  1.00  0.00     0.382 C 
HETATM   29  F1  UNL     1      20.802  -1.577  54.774  1.00  0.00    -0.209 F 
HETATM   30  F2  UNL     1      22.812  -1.938  55.619  1.00  0.00    -0.209 F 
ENDBRANCH  12  28
TORSDOF 6
ENDMDL
MODEL 2
REMARK VINA RESULT:      -8.6      2.007      3.244
REMARK  6 active torsions:
REMARK  status: ('A' for Active; 'I' for Inactive)
REMARK    1  A    between atoms: C2_2  and  C3_3 
REMARK    2  A    between atoms: C2_2  and  O1_5 
REMARK    3  A    between atoms: C2_2  and  N4_23 
REMARK    4  A    between atoms: C3_3  and  N1_4 
REMARK    5  A    between atoms: O1_5  and  C4_6 
REMARK    6  A    between atoms: C13_17  and  C14_18 
ROOT
HETATM    1  C4  UNL     1      26.979   6.890  48.444  1.00  0.00     0.074 A 
HETATM    2  C5  UNL     1      27.779   5.748  48.335  1.00  0.00     0.038 A 
HETATM    3  C6  UNL     1      27.458   4.567  49.011  1.00  0.00     0.018 A 
HETATM    4  C7  UNL     1      26.323   4.509  49.814  1.00  0.00     0.019 A 
HETATM    5  C8  UNL     1      25.684   3.570  50.616  1.00  0.00     0.046 A 
HETATM    6  N2  UNL     1      24.588   4.139  51.149  1.00  0.00    -0.272 N 
HETATM    7  N3  UNL     1      24.512   5.387  50.720  1.00  0.00    -0.172 NA
HETATM    8  C9  UNL     1      25.552   5.644  49.905  1.00  0.00     0.092 A 
HETATM    9  C10 UNL     1      25.860   6.812  49.242  1.00  0.00     0.071 A 
HETATM   10  C11 UNL     1      23.658   3.499  52.035  1.00  0.00     0.155 C 
HETATM   11  C12 UNL     1      24.298   2.758  53.175  1.00  0.00     0.061 C 
HETATM   12  C13 UNL     1      24.685   1.401  52.641  1.00  0.00    -0.018 C 
HETATM   13  C15 UNL     1      25.533   1.315  51.602  1.00  0.00    -0.012 C 
HETATM   14  C16 UNL     1      26.287   2.218  50.724  1.00  0.00     0.087 C 
ENDROOT
BRANCH   1  15
HETATM   15  O1  UNL     1      27.499   7.912  47.692  1.00  0.00    -0.315 OA
BRANCH  15  16
HETATM   16  C2  UNL     1      28.207   9.024  48.138  1.00  0.00     0.175 C 
HETATM   17  C1  UNL     1      27.970  10.291  47.384  1.00  0.00     0.078 C 
BRANCH  16  18
HETATM   18  C3  UNL     1      27.918   9.216  49.589  1.00  0.00     0.140 C 
BRANCH  18  19
HETATM   19  N1  UNL     1      27.652   9.456  50.829  1.00  0.00    -0.311 NA
HETATM   20  H5  UNL     1      28.052   8.886  51.581  1.00  0.00     0.185 HD
ENDBRANCH  18  19
ENDBRANCH  16  18
BRANCH  16  21
HETATM   21  N4  UNL     1      29.630   8.692  48.005  1.00  0.00    -0.311 N 
HETATM   22  C17 UNL     1      30.598   8.952  49.081  1.00  0.00     0.155 C 
HETATM   23  C18 UNL     1      31.411   7.718  49.394  1.00  0.00     0.188 C 
HETATM   24  O2  UNL     1      31.517   6.871  48.295  1.00  0.00    -0.380 OA
HETATM   25  C19 UNL     1      31.602   7.589  47.097  1.00  0.00     0.270 C 
HETATM   26  C20 UNL     1      30.208   8.092  46.833  1.00  0.00     0.246 C 
HETATM   27  O3  UNL     1      29.499   8.073  45.796  1.00  0.00    -0.271 OA
ENDBRANCH  16  21
ENDBRANCH  15  16
ENDBRANCH   1  15
BRANCH  12  28
HETATM   28  C14 UNL     1      24.178   0.125  53.201  1.00  0.00     0.382 C 
HETATM   29  F1  UNL     1      25.117  -0.870  52.963  1.00  0.00    -0.209 F 
HETATM   30  F2  UNL     1      23.011  -0.294  52.618  1.00  0.00    -0.209 F 
ENDBRANCH  12  28
TORSDOF 6
ENDMDL
MODEL 3
REMARK VINA RESULT:      -8.5      4.837      6.654
REMARK  6 active torsions:
REMARK  status: ('A' for Active; 'I' for Inactive)
REMARK    1  A    between atoms: C2_2  and  C3_3 
REMARK    2  A    between atoms: C2_2  and  O1_5 
REMARK    3  A    between atoms: C2_2  and  N4_23 
REMARK    4  A    between atoms: C3_3  and  N1_4 
REMARK    5  A    between atoms: O1_5  and  C4_6 
REMARK    6  A    between atoms: C13_17  and  C14_18 
ROOT
HETATM    1  C4  UNL     1      24.118   0.737  53.110  1.00  0.00     0.074 A 
HETATM    2  C5  UNL     1      23.641  -0.136  54.094  1.00  0.00     0.038 A 
HETATM    3  C6  UNL     1      22.324  -0.603  54.076  1.00  0.00     0.018 A 
HETATM    4  C7  UNL     1      21.454  -0.200  53.066  1.00  0.00     0.019 A 
HETATM    5  C8  UNL     1      20.131  -0.426  52.707  1.00  0.00     0.046 A 
HETATM    6  N2  UNL     1      19.867   0.273  51.589  1.00  0.00    -0.272 N 
HETATM    7  N3  UNL     1      20.961   0.924  51.233  1.00  0.00    -0.172 NA
HETATM    8  C9  UNL     1      21.946   0.658  52.111  1.00  0.00     0.092 A 
HETATM    9  C10 UNL     1      23.243   1.122  52.120  1.00  0.00     0.071 A 
HETATM   10  C11 UNL     1      18.609   0.307  50.898  1.00  0.00     0.155 C 
HETATM   11  C12 UNL     1      17.421   0.543  51.786  1.00  0.00     0.061 C 
HETATM   12  C13 UNL     1      17.041  -0.799  52.361  1.00  0.00    -0.018 C 
HETATM   13  C15 UNL     1      17.937  -1.484  53.091  1.00  0.00    -0.012 C 
HETATM   14  C16 UNL     1      19.318  -1.328  53.561  1.00  0.00     0.087 C 
ENDROOT
BRANCH   1  15
HETATM   15  O1  UNL     1      25.432   1.049  53.343  1.00  0.00    -0.315 OA
BRANCH  15  16
HETATM   16  C2  UNL     1      26.522   0.832  52.505  1.00  0.00     0.175 C 
HETATM   17  C1  UNL     1      26.395  -0.312  51.555  1.00  0.00     0.078 C 
BRANCH  16  18
HETATM   18  C3  UNL     1      26.807   2.097  51.766  1.00  0.00     0.140 C 
BRANCH  18  19
HETATM   19  N1  UNL     1      27.026   3.157  51.063  1.00  0.00    -0.311 NA
HETATM   20  H5  UNL     1      27.839   3.227  50.442  1.00  0.00     0.185 HD
ENDBRANCH  18  19
ENDBRANCH  16  18
BRANCH  16  21
HETATM   21  N4  UNL     1      27.670   0.555  53.377  1.00  0.00    -0.311 N 
HETATM   22  C17 UNL     1      28.141  -0.814  53.638  1.00  0.00     0.155 C 
HETATM   23  C18 UNL     1      29.627  -0.935  53.393  1.00  0.00     0.188 C 
HETATM   24  O2  UNL     1      30.286   0.277  53.574  1.00  0.00    -0.380 OA
HETATM   25  C19 UNL     1      29.715   1.024  54.610  1.00  0.00     0.270 C 
HETATM   26  C20 UNL     1      28.432   1.573  54.049  1.00  0.00     0.246 C 
HETATM   27  O3  UNL     1      27.940   2.729  54.072  1.00  0.00    -0.271 OA
ENDBRANCH  16  21
ENDBRANCH  15  16
ENDBRANCH   1  15
BRANCH  12  28
HETATM   28  C14 UNL     1      15.712  -1.426  52.167  1.00  0.00     0.382 C 
HETATM   29  F1  UNL     1      15.722  -2.684  52.757  1.00  0.00    -0.209 F 
HETATM   30  F2  UNL     1      15.393  -1.619  50.848  1.00  0.00    -0.209 F 
ENDBRANCH  12  28
TORSDOF 6
ENDMDL
MODEL 4
REMARK VINA RESULT:      -8.2      5.648      8.698
REMARK  6 active torsions:
REMARK  status: ('A' for Active; 'I' for Inactive)
REMARK    1  A    between atoms: C2_2  and  C3_3 
REMARK    2  A    between atoms: C2_2  and  O1_5 
REMARK    3  A    between atoms: C2_2  and  N4_23 
REMARK    4  A    between atoms: C3_3  and  N1_4 
REMARK    5  A    between atoms: O1_5  and  C4_6 
REMARK    6  A    between atoms: C13_17  and  C14_18 
ROOT
HETATM    1  C4  UNL     1      20.504   2.554  52.475  1.00  0.00     0.074 A 
HETATM    2  C5  UNL     1      20.546   1.304  53.101  1.00  0.00     0.038 A 
HETATM    3  C6  UNL     1      21.759   0.660  53.360  1.00  0.00     0.018 A 
HETATM    4  C7  UNL     1      22.960   1.260  52.993  1.00  0.00     0.019 A 
HETATM    5  C8  UNL     1      24.316   0.965  53.069  1.00  0.00     0.046 A 
HETATM    6  N2  UNL     1      25.006   1.981  52.521  1.00  0.00    -0.272 N 
HETATM    7  N3  UNL     1      24.147   2.897  52.107  1.00  0.00    -0.172 NA
HETATM    8  C9  UNL     1      22.893   2.489  52.379  1.00  0.00     0.092 A 
HETATM    9  C10 UNL     1      21.701   3.131  52.121  1.00  0.00     0.071 A 
HETATM   10  C11 UNL     1      26.434   2.059  52.405  1.00  0.00     0.155 C 
HETATM   11  C12 UNL     1      27.080   0.819  51.856  1.00  0.00     0.061 C 
HETATM   12  C13 UNL     1      27.250  -0.128  53.019  1.00  0.00    -0.018 C 
HETATM   13  C15 UNL     1      26.170  -0.529  53.709  1.00  0.00    -0.012 C 
HETATM   14  C16 UNL     1      24.717  -0.321  53.693  1.00  0.00     0.087 C 
ENDROOT
BRANCH   1  15
HETATM   15  O1  UNL     1      19.207   2.975  52.333  1.00  0.00    -0.315 OA
BRANCH  15  16
HETATM   16  C2  UNL     1      18.518   3.234  51.152  1.00  0.00     0.175 C 
HETATM   17  C1  UNL     1      18.730   4.588  50.560  1.00  0.00     0.078 C 
BRANCH  16  18
HETATM   18  C3  UNL     1      18.862   2.170  50.163  1.00  0.00     0.140 C 
BRANCH  18  19
HETATM   19  N1  UNL     1      19.098   1.210  49.334  1.00  0.00    -0.311 NA
HETATM   20  H5  UNL     1      19.811   0.500  49.528  1.00  0.00     0.185 HD
ENDBRANCH  18  19
ENDBRANCH  16  18
BRANCH  16  21
HETATM   21  N4  UNL     1      17.090   3.109  51.465  1.00  0.00    -0.311 N 
HETATM   22  C17 UNL     1      16.216   4.282  51.614  1.00  0.00     0.155 C 
HETATM   23  C18 UNL     1      14.973   4.148  50.766  1.00  0.00     0.188 C 
HETATM   24  O2  UNL     1      14.636   2.817  50.541  1.00  0.00    -0.380 OA
HETATM   25  C19 UNL     1      14.921   2.018  51.654  1.00  0.00     0.270 C 
HETATM   26  C20 UNL     1      16.417   1.852  51.655  1.00  0.00     0.246 C 
HETATM   27  O3  UNL     1      17.141   0.834  51.788  1.00  0.00    -0.271 OA
ENDBRANCH  16  21
ENDBRANCH  15  16
ENDBRANCH   1  15
BRANCH  12  28
HETATM   28  C14 UNL     1      28.564  -0.654  53.460  1.00  0.00     0.382 C 
HETATM   29  F1  UNL     1      28.595  -2.024  53.229  1.00  0.00    -0.209 F 
HETATM   30  F2  UNL     1      28.793  -0.481  54.800  1.00  0.00    -0.209 F 
ENDBRANCH  12  28
TORSDOF 6
ENDMDL
MODEL 5
REMARK VINA RESULT:      -8.1      2.197      3.057
REMARK  6 active torsions:
REMARK  status: ('A' for Active; 'I' for Inactive)
REMARK    1  A    between atoms: C2_2  and  C3_3 
REMARK    2  A    between atoms: C2_2  and  O1_5 
REMARK    3  A    between atoms: C2_2  and  N4_23 
REMARK    4  A    between atoms: C3_3  and  N1_4 
REMARK    5  A    between atoms: O1_5  and  C4_6 
REMARK    6  A    between atoms: C13_17  and  C14_18 
ROOT
HETATM    1  C4  UNL     1      26.297   6.733  48.621  1.00  0.00     0.074 A 
HETATM    2  C5  UNL     1      27.317   5.781  48.517  1.00  0.00     0.038 A 
HETATM    3  C6  UNL     1      27.240   4.556  49.183  1.00  0.00     0.018 A 
HETATM    4  C7  UNL     1      26.132   4.260  49.973  1.00  0.00     0.019 A 
HETATM    5  C8  UNL     1      25.692   3.204  50.763  1.00  0.00     0.046 A 
HETATM    6  N2  UNL     1      24.498   3.531  51.287  1.00  0.00    -0.272 N 
HETATM    7  N3  UNL     1      24.170   4.739  50.861  1.00  0.00    -0.172 NA
HETATM    8  C9  UNL     1      25.143   5.211  50.060  1.00  0.00     0.092 A 
HETATM    9  C10 UNL     1      25.211   6.422  49.405  1.00  0.00     0.071 A 
HETATM   10  C11 UNL     1      23.710   2.707  52.159  1.00  0.00     0.155 C 
HETATM   11  C12 UNL     1      24.478   2.107  53.303  1.00  0.00     0.061 C 
HETATM   12  C13 UNL     1      25.142   0.862  52.768  1.00  0.00    -0.018 C 
HETATM   13  C15 UNL     1      26.000   0.960  51.739  1.00  0.00    -0.012 C 
HETATM   14  C16 UNL     1      26.561   2.005  50.873  1.00  0.00     0.087 C 
ENDROOT
BRANCH   1  15
HETATM   15  O1  UNL     1      26.603   7.845  47.879  1.00  0.00    -0.315 OA
BRANCH  15  16
HETATM   16  C2  UNL     1      26.559   9.177  48.281  1.00  0.00     0.175 C 
HETATM   17  C1  UNL     1      25.231   9.849  48.160  1.00  0.00     0.078 C 
BRANCH  16  18
HETATM   18  C3  UNL     1      27.063   9.263  49.683  1.00  0.00     0.140 C 
BRANCH  18  19
HETATM   19  N1  UNL     1      27.567   9.361  50.867  1.00  0.00    -0.311 NA
HETATM   20  H5  UNL     1      27.164   9.991  51.568  1.00  0.00     0.185 HD
ENDBRANCH  18  19
ENDBRANCH  16  18
BRANCH  16  21
HETATM   21  N4  UNL     1      27.500   9.903  47.421  1.00  0.00    -0.311 N 
HETATM   22  C17 UNL     1      27.048  10.851  46.391  1.00  0.00     0.155 C 
HETATM   23  C18 UNL     1      27.761  12.176  46.518  1.00  0.00     0.188 C 
HETATM   24  O2  UNL     1      29.015  12.040  47.105  1.00  0.00    -0.380 OA
HETATM   25  C19 UNL     1      29.635  10.844  46.724  1.00  0.00     0.270 C 
HETATM   26  C20 UNL     1      28.929   9.764  47.499  1.00  0.00     0.246 C 
HETATM   27  O3  UNL     1      29.371   8.801  48.174  1.00  0.00    -0.271 OA
ENDBRANCH  16  21
ENDBRANCH  15  16
ENDBRANCH   1  15
BRANCH  12  28
HETATM   28  C14 UNL     1      24.903  -0.494  53.317  1.00  0.00     0.382 C 
HETATM   29  F1  UNL     1      23.539  -0.660  53.517  1.00  0.00    -0.209 F 
HETATM   30  F2  UNL     1      25.501  -0.697  54.533  1.00  0.00    -0.209 F 
ENDBRANCH  12  28
TORSDOF 6
ENDMDL
MODEL 6
REMARK VINA RESULT:      -8.1      6.001      8.822
REMARK  6 active torsions:
REMARK  status: ('A' for Active; 'I' for Inactive)
REMARK    1  A    between atoms: C2_2  and  C3_3 
REMARK    2  A    between atoms: C2_2  and  O1_5 
REMARK    3  A    between atoms: C2_2  and  N4_23 
REMARK    4  A    between atoms: C3_3  and  N1_4 
REMARK    5  A    between atoms: O1_5  and  C4_6 
REMARK    6  A    between atoms: C13_17  and  C14_18 
ROOT
HETATM    1  C4  UNL     1      20.096   2.709  52.384  1.00  0.00     0.074 A 
HETATM    2  C5  UNL     1      21.047   3.692  52.094  1.00  0.00     0.038 A 
HETATM    3  C6  UNL     1      22.415   3.443  52.230  1.00  0.00     0.018 A 
HETATM    4  C7  UNL     1      22.859   2.195  52.662  1.00  0.00     0.019 A 
HETATM    5  C8  UNL     1      24.076   1.574  52.916  1.00  0.00     0.046 A 
HETATM    6  N2  UNL     1      23.836   0.316  53.325  1.00  0.00    -0.272 N 
HETATM    7  N3  UNL     1      22.528   0.121  53.339  1.00  0.00    -0.172 NA
HETATM    8  C9  UNL     1      21.904   1.246  52.941  1.00  0.00     0.092 A 
HETATM    9  C10 UNL     1      20.553   1.482  52.809  1.00  0.00     0.071 A 
HETATM   10  C11 UNL     1      24.831  -0.653  53.686  1.00  0.00     0.155 C 
HETATM   11  C12 UNL     1      25.884  -0.139  54.627  1.00  0.00     0.061 C 
HETATM   12  C13 UNL     1      26.913   0.565  53.777  1.00  0.00    -0.018 C 
HETATM   13  C15 UNL     1      26.540   1.605  53.012  1.00  0.00    -0.012 C 
HETATM   14  C16 UNL     1      25.318   2.359  52.704  1.00  0.00     0.087 C 
ENDROOT
BRANCH   1  15
HETATM   15  O1  UNL     1      18.830   3.191  52.174  1.00  0.00    -0.315 OA
BRANCH  15  16
HETATM   16  C2  UNL     1      18.096   3.178  50.991  1.00  0.00     0.175 C 
HETATM   17  C1  UNL     1      17.972   4.490  50.289  1.00  0.00     0.078 C 
BRANCH  16  18
HETATM   18  C3  UNL     1      18.687   2.153  50.083  1.00  0.00     0.140 C 
BRANCH  18  19
HETATM   19  N1  UNL     1      19.268   1.293  49.315  1.00  0.00    -0.311 NA
HETATM   20  H5  UNL     1      18.866   0.363  49.155  1.00  0.00     0.185 HD
ENDBRANCH  18  19
ENDBRANCH  16  18
BRANCH  16  21
HETATM   21  N4  UNL     1      16.742   2.738  51.345  1.00  0.00    -0.311 N 
HETATM   22  C17 UNL     1      16.114   1.563  50.721  1.00  0.00     0.155 C 
HETATM   23  C18 UNL     1      15.568   0.617  51.765  1.00  0.00     0.188 C 
HETATM   24  O2  UNL     1      15.235   1.277  52.943  1.00  0.00    -0.380 OA
HETATM   25  C19 UNL     1      14.722   2.555  52.691  1.00  0.00     0.270 C 
HETATM   26  C20 UNL     1      15.912   3.396  52.316  1.00  0.00     0.246 C 
HETATM   27  O3  UNL     1      16.280   4.535  52.700  1.00  0.00    -0.271 OA
ENDBRANCH  16  21
ENDBRANCH  15  16
ENDBRANCH   1  15
BRANCH  12  28
HETATM   28  C14 UNL     1      28.342   0.175  53.730  1.00  0.00     0.382 C 
HETATM   29  F1  UNL     1      28.454  -1.024  53.037  1.00  0.00    -0.209 F 
HETATM   30  F2  UNL     1      28.883  -0.042  54.970  1.00  0.00    -0.209 F 
ENDBRANCH  12  28
TORSDOF 6
ENDMDL
MODEL 7
REMARK VINA RESULT:      -8.1      5.212      9.077
REMARK  6 active torsions:
REMARK  status: ('A' for Active; 'I' for Inactive)
REMARK    1  A    between atoms: C2_2  and  C3_3 
REMARK    2  A    between atoms: C2_2  and  O1_5 
REMARK    3  A    between atoms: C2_2  and  N4_23 
REMARK    4  A    between atoms: C3_3  and  N1_4 
REMARK    5  A    between atoms: O1_5  and  C4_6 
REMARK    6  A    between atoms: C13_17  and  C14_18 
ROOT
HETATM    1  C4  UNL     1      25.584   2.506  50.838  1.00  0.00     0.074 A 
HETATM    2  C5  UNL     1      24.429   3.261  50.608  1.00  0.00     0.038 A 
HETATM    3  C6  UNL     1      24.466   4.439  49.859  1.00  0.00     0.018 A 
HETATM    4  C7  UNL     1      25.670   4.887  49.322  1.00  0.00     0.019 A 
HETATM    5  C8  UNL     1      26.112   5.958  48.554  1.00  0.00     0.046 A 
HETATM    6  N2  UNL     1      27.435   5.825  48.357  1.00  0.00    -0.272 N 
HETATM    7  N3  UNL     1      27.841   4.723  48.964  1.00  0.00    -0.172 NA
HETATM    8  C9  UNL     1      26.792   4.128  49.561  1.00  0.00     0.092 A 
HETATM    9  C10 UNL     1      26.764   2.965  50.298  1.00  0.00     0.071 A 
HETATM   10  C11 UNL     1      28.267   6.727  47.612  1.00  0.00     0.155 C 
HETATM   11  C12 UNL     1      28.076   8.176  47.961  1.00  0.00     0.061 C 
HETATM   12  C13 UNL     1      26.887   8.656  47.165  1.00  0.00    -0.018 C 
HETATM   13  C15 UNL     1      25.695   8.059  47.332  1.00  0.00    -0.012 C 
HETATM   14  C16 UNL     1      25.113   6.972  48.129  1.00  0.00     0.087 C 
ENDROOT
BRANCH   1  15
HETATM   15  O1  UNL     1      25.291   1.401  51.595  1.00  0.00    -0.315 OA
BRANCH  15  16
HETATM   16  C2  UNL     1      25.526   1.211  52.954  1.00  0.00     0.175 C 
HETATM   17  C1  UNL     1      25.478   2.440  53.800  1.00  0.00     0.078 C 
BRANCH  16  18
HETATM   18  C3  UNL     1      24.564   0.189  53.460  1.00  0.00     0.140 C 
BRANCH  18  19
HETATM   19  N1  UNL     1      23.782  -0.750  53.875  1.00  0.00    -0.311 NA
HETATM   20  H5  UNL     1      23.881  -1.714  53.539  1.00  0.00     0.185 HD
ENDBRANCH  18  19
ENDBRANCH  16  18
BRANCH  16  21
HETATM   21  N4  UNL     1      26.877   0.650  53.069  1.00  0.00    -0.311 N 
HETATM   22  C17 UNL     1      28.022   1.455  53.521  1.00  0.00     0.155 C 
HETATM   23  C18 UNL     1      28.769   0.762  54.637  1.00  0.00     0.188 C 
HETATM   24  O2  UNL     1      28.626  -0.621  54.580  1.00  0.00    -0.380 OA
HETATM   25  C19 UNL     1      28.580  -1.080  53.259  1.00  0.00     0.270 C 
HETATM   26  C20 UNL     1      27.209  -0.714  52.756  1.00  0.00     0.246 C 
HETATM   27  O3  UNL     1      26.345  -1.381  52.135  1.00  0.00    -0.271 OA
ENDBRANCH  16  21
ENDBRANCH  15  16
ENDBRANCH   1  15
BRANCH  12  28
HETATM   28  C14 UNL     1      26.951   9.768  46.187  1.00  0.00     0.382 C 
HETATM   29  F1  UNL     1      26.434  10.913  46.780  1.00  0.00    -0.209 F 
HETATM   30  F2  UNL     1      26.202   9.542  45.063  1.00  0.00    -0.209 F 
ENDBRANCH  12  28
TORSDOF 6
ENDMDL
MODEL 8
REMARK VINA RESULT:      -8.0      6.214      9.065
REMARK  6 active torsions:
REMARK  status: ('A' for Active; 'I' for Inactive)
REMARK    1  A    between atoms: C2_2  and  C3_3 
REMARK    2  A    between atoms: C2_2  and  O1_5 
REMARK    3  A    between atoms: C2_2  and  N4_23 
REMARK    4  A    between atoms: C3_3  and  N1_4 
REMARK    5  A    between atoms: O1_5  and  C4_6 
REMARK    6  A    between atoms: C13_17  and  C14_18 
ROOT
HETATM    1  C4  UNL     1      20.430   1.581  52.496  1.00  0.00     0.074 A 
HETATM    2  C5  UNL     1      21.270   2.458  51.804  1.00  0.00     0.038 A 
HETATM    3  C6  UNL     1      22.661   2.344  51.878  1.00  0.00     0.018 A 
HETATM    4  C7  UNL     1      23.239   1.342  52.653  1.00  0.00     0.019 A 
HETATM    5  C8  UNL     1      24.520   0.910  52.976  1.00  0.00     0.046 A 
HETATM    6  N2  UNL     1      24.418  -0.147  53.801  1.00  0.00    -0.272 N 
HETATM    7  N3  UNL     1      23.137  -0.396  54.008  1.00  0.00    -0.172 NA
HETATM    8  C9  UNL     1      22.392   0.492  53.324  1.00  0.00     0.092 A 
HETATM    9  C10 UNL     1      21.020   0.597  53.256  1.00  0.00     0.071 A 
HETATM   10  C11 UNL     1      25.517  -0.882  54.362  1.00  0.00     0.155 C 
HETATM   11  C12 UNL     1      26.590  -0.024  54.970  1.00  0.00     0.061 C 
HETATM   12  C13 UNL     1      27.488   0.406  53.837  1.00  0.00    -0.018 C 
HETATM   13  C15 UNL     1      26.973   1.104  52.811  1.00  0.00    -0.012 C 
HETATM   14  C16 UNL     1      25.672   1.643  52.394  1.00  0.00     0.087 C 
ENDROOT
BRANCH   1  15
HETATM   15  O1  UNL     1      19.115   1.895  52.265  1.00  0.00    -0.315 OA
BRANCH  15  16
HETATM   16  C2  UNL     1      18.196   1.200  51.485  1.00  0.00     0.175 C 
HETATM   17  C1  UNL     1      18.592   0.971  50.063  1.00  0.00     0.078 C 
BRANCH  16  18
HETATM   18  C3  UNL     1      17.890  -0.096  52.158  1.00  0.00     0.140 C 
BRANCH  18  19
HETATM   19  N1  UNL     1      17.592  -1.176  52.799  1.00  0.00    -0.311 NA
HETATM   20  H5  UNL     1      17.200  -1.145  53.746  1.00  0.00     0.185 HD
ENDBRANCH  18  19
ENDBRANCH  16  18
BRANCH  16  21
HETATM   21  N4  UNL     1      16.967   2.001  51.475  1.00  0.00    -0.311 N 
HETATM   22  C17 UNL     1      15.631   1.384  51.471  1.00  0.00     0.155 C 
HETATM   23  C18 UNL     1      14.760   1.963  52.561  1.00  0.00     0.188 C 
HETATM   24  O2  UNL     1      15.134   3.261  52.894  1.00  0.00    -0.380 OA
HETATM   25  C19 UNL     1      15.572   3.974  51.772  1.00  0.00     0.270 C 
HETATM   26  C20 UNL     1      16.946   3.439  51.469  1.00  0.00     0.246 C 
HETATM   27  O3  UNL     1      18.031   4.022  51.223  1.00  0.00    -0.271 OA
ENDBRANCH  16  21
ENDBRANCH  15  16
ENDBRANCH   1  15
BRANCH  12  28
HETATM   28  C14 UNL     1      28.938   0.101  53.780  1.00  0.00     0.382 C 
HETATM   29  F1  UNL     1      29.575   1.099  53.054  1.00  0.00    -0.209 F 
HETATM   30  F2  UNL     1      29.216  -1.080  53.144  1.00  0.00    -0.209 F 
ENDBRANCH  12  28
TORSDOF 6
ENDMDL
MODEL 9
REMARK VINA RESULT:      -7.9      5.272      9.451
REMARK  6 active torsions:
REMARK  status: ('A' for Active; 'I' for Inactive)
REMARK    1  A    between atoms: C2_2  and  C3_3 
REMARK    2  A    between atoms: C2_2  and  O1_5 
REMARK    3  A    between atoms: C2_2  and  N4_23 
REMARK    4  A    between atoms: C3_3  and  N1_4 
REMARK    5  A    between atoms: O1_5  and  C4_6 
REMARK    6  A    between atoms: C13_17  and  C14_18 
ROOT
HETATM    1  C4  UNL     1      24.760   4.325  49.510  1.00  0.00     0.074 A 
HETATM    2  C5  UNL     1      24.429   5.628  49.122  1.00  0.00     0.038 A 
HETATM    3  C6  UNL     1      25.395   6.508  48.628  1.00  0.00     0.018 A 
HETATM    4  C7  UNL     1      26.721   6.097  48.514  1.00  0.00     0.019 A 
HETATM    5  C8  UNL     1      27.928   6.641  48.091  1.00  0.00     0.046 A 
HETATM    6  N2  UNL     1      28.888   5.710  48.229  1.00  0.00    -0.272 N 
HETATM    7  N3  UNL     1      28.340   4.611  48.717  1.00  0.00    -0.172 NA
HETATM    8  C9  UNL     1      27.022   4.812  48.902  1.00  0.00     0.092 A 
HETATM    9  C10 UNL     1      26.075   3.938  49.390  1.00  0.00     0.071 A 
HETATM   10  C11 UNL     1      30.275   5.881  47.900  1.00  0.00     0.155 C 
HETATM   11  C12 UNL     1      30.887   7.144  48.435  1.00  0.00     0.061 C 
HETATM   12  C13 UNL     1      30.546   8.237  47.452  1.00  0.00    -0.018 C 
HETATM   13  C15 UNL     1      29.257   8.514  47.192  1.00  0.00    -0.012 C 
HETATM   14  C16 UNL     1      27.929   8.044  47.603  1.00  0.00     0.087 C 
ENDROOT
BRANCH   1  15
HETATM   15  O1  UNL     1      23.647   3.661  49.957  1.00  0.00    -0.315 OA
BRANCH  15  16
HETATM   16  C2  UNL     1      23.309   3.349  51.271  1.00  0.00     0.175 C 
HETATM   17  C1  UNL     1      23.933   2.111  51.826  1.00  0.00     0.078 C 
BRANCH  16  18
HETATM   18  C3  UNL     1      23.627   4.527  52.131  1.00  0.00     0.140 C 
BRANCH  18  19
HETATM   19  N1  UNL     1      23.900   5.497  52.937  1.00  0.00    -0.311 NA
HETATM   20  H5  UNL     1      23.292   5.718  53.732  1.00  0.00     0.185 HD
ENDBRANCH  18  19
ENDBRANCH  16  18
BRANCH  16  21
HETATM   21  N4  UNL     1      21.855   3.158  51.294  1.00  0.00    -0.311 N 
HETATM   22  C17 UNL     1      21.243   1.826  51.410  1.00  0.00     0.155 C 
HETATM   23  C18 UNL     1      20.216   1.793  52.518  1.00  0.00     0.188 C 
HETATM   24  O2  UNL     1      19.658   3.045  52.750  1.00  0.00    -0.380 OA
HETATM   25  C19 UNL     1      19.515   3.774  51.564  1.00  0.00     0.270 C 
HETATM   26  C20 UNL     1      20.903   4.233  51.206  1.00  0.00     0.246 C 
HETATM   27  O3  UNL     1      21.344   5.356  50.858  1.00  0.00    -0.271 OA
ENDBRANCH  16  21
ENDBRANCH  15  16
ENDBRANCH   1  15
BRANCH  12  28
HETATM   28  C14 UNL     1      31.564   9.042  46.737  1.00  0.00     0.382 C 
HETATM   29  F1  UNL     1      32.188   8.236  45.794  1.00  0.00    -0.209 F 
HETATM   30  F2  UNL     1      32.553   9.515  47.559  1.00  0.00    -0.209 F 
ENDBRANCH  12  28
TORSDOF 6
ENDMDL
