MODEL 1
REMARK VINA RESULT:      -7.7      0.000      0.000
REMARK  2 active torsions:
REMARK  status: ('A' for Active; 'I' for Inactive)
REMARK    1  A    between atoms: N4_10  and  C7_11 
REMARK       I    between atoms: N5_15  and  C11_16 
REMARK    2  A    between atoms: C11_16  and  C12_18 
ROOT
HETATM    1  C12 UNL     1      19.187   0.844  51.587  1.00  0.00     0.226 C 
HETATM    2  C13 UNL     1      18.511   2.154  51.684  1.00  0.00     0.068 C 
HETATM    3  N6  UNL     1      17.978   3.203  51.754  1.00  0.00    -0.197 NA
ENDROOT
BRANCH   1   4
HETATM    4  C11 UNL     1      20.414   0.862  52.446  1.00  0.00     0.232 C 
HETATM    5  N5  UNL     1      21.638   1.466  52.069  1.00  0.00    -0.349 N 
HETATM    6  C10 UNL     1      22.066   2.143  50.855  1.00  0.00     0.128 C 
HETATM    7  C14 UNL     1      22.720   1.447  53.038  1.00  0.00     0.152 C 
HETATM    8  C9  UNL     1      23.576   2.074  50.926  1.00  0.00     0.048 C 
HETATM    9  C7  UNL     1      23.862   2.163  52.409  1.00  0.00     0.047 C 
HETATM   10  C8  UNL     1      23.935   3.616  52.756  1.00  0.00     0.036 C 
HETATM   11  O1  UNL     1      20.090   0.252  53.498  1.00  0.00    -0.272 OA
BRANCH   9  12
HETATM   12  N4  UNL     1      25.086   1.437  52.703  1.00  0.00    -0.215 NA
HETATM   13  N3  UNL     1      24.794   0.080  52.892  1.00  0.00    -0.312 N 
HETATM   14  C6  UNL     1      25.540  -0.932  53.594  1.00  0.00     0.221 C 
HETATM   15  H7  UNL     1      23.910  -0.271  52.470  1.00  0.00     0.181 HD
HETATM   16  N2  UNL     1      26.782  -0.912  54.024  1.00  0.00    -0.225 NA
HETATM   17  C5  UNL     1      27.655   0.228  53.838  1.00  0.00     0.138 A 
HETATM   18  N1  UNL     1      29.014   0.175  53.720  1.00  0.00    -0.346 N 
HETATM   19  C4  UNL     1      27.229   1.561  53.754  1.00  0.00     0.004 A 
HETATM   20  C1  UNL     1      29.813  -1.033  53.758  1.00  0.00     0.157 C 
HETATM   21  C2  UNL     1      29.470   1.427  53.565  1.00  0.00     0.093 A 
HETATM   22  C3  UNL     1      28.395   2.304  53.582  1.00  0.00     0.029 A 
HETATM   23  C15 UNL     1      25.790   1.996  53.841  1.00  0.00     0.157 C 
ENDBRANCH   9  12
ENDBRANCH   1   4
TORSDOF 2
ENDMDL
MODEL 2
REMARK VINA RESULT:      -7.6      1.541      2.274
REMARK  2 active torsions:
REMARK  status: ('A' for Active; 'I' for Inactive)
REMARK    1  A    between atoms: N4_10  and  C7_11 
REMARK       I    between atoms: N5_15  and  C11_16 
REMARK    2  A    between atoms: C11_16  and  C12_18 
ROOT
HETATM    1  C12 UNL     1      19.524  -0.003  51.804  1.00  0.00     0.226 C 
HETATM    2  C13 UNL     1      18.396  -0.473  52.634  1.00  0.00     0.068 C 
HETATM    3  N6  UNL     1      17.494  -0.838  53.299  1.00  0.00    -0.197 NA
ENDROOT
BRANCH   1   4
HETATM    4  C11 UNL     1      20.742   0.131  52.666  1.00  0.00     0.232 C 
HETATM    5  N5  UNL     1      21.868   0.921  52.330  1.00  0.00    -0.349 N 
HETATM    6  C10 UNL     1      22.190   1.725  51.162  1.00  0.00     0.128 C 
HETATM    7  C14 UNL     1      22.948   0.991  53.298  1.00  0.00     0.152 C 
HETATM    8  C9  UNL     1      23.696   1.861  51.232  1.00  0.00     0.048 C 
HETATM    9  C7  UNL     1      23.977   1.896  52.719  1.00  0.00     0.047 C 
HETATM   10  C8  UNL     1      23.849   3.321  53.156  1.00  0.00     0.036 C 
HETATM   11  O1  UNL     1      20.512  -0.583  53.676  1.00  0.00    -0.272 OA
BRANCH   9  12
HETATM   12  N4  UNL     1      25.291   1.330  52.969  1.00  0.00    -0.215 NA
HETATM   13  N3  UNL     1      26.191   2.354  53.289  1.00  0.00    -0.312 N 
HETATM   14  C6  UNL     1      27.628   2.376  53.199  1.00  0.00     0.221 C 
HETATM   15  H7  UNL     1      25.782   3.242  53.645  1.00  0.00     0.181 HD
HETATM   16  N2  UNL     1      28.474   1.384  53.033  1.00  0.00    -0.225 NA
HETATM   17  C5  UNL     1      28.047   0.007  52.904  1.00  0.00     0.138 A 
HETATM   18  N1  UNL     1      28.772  -1.087  53.280  1.00  0.00    -0.346 N 
HETATM   19  C4  UNL     1      26.819  -0.408  52.369  1.00  0.00     0.004 A 
HETATM   20  C1  UNL     1      30.093  -1.053  53.876  1.00  0.00     0.157 C 
HETATM   21  C2  UNL     1      28.051  -2.183  53.003  1.00  0.00     0.093 A 
HETATM   22  C3  UNL     1      26.842  -1.798  52.440  1.00  0.00     0.029 A 
HETATM   23  C15 UNL     1      25.761   0.533  51.853  1.00  0.00     0.157 C 
ENDBRANCH   9  12
ENDBRANCH   1   4
TORSDOF 2
ENDMDL
MODEL 3
REMARK VINA RESULT:      -7.4      2.751      3.656
REMARK  2 active torsions:
REMARK  status: ('A' for Active; 'I' for Inactive)
REMARK    1  A    between atoms: N4_10  and  C7_11 
REMARK       I    between atoms: N5_15  and  C11_16 
REMARK    2  A    between atoms: C11_16  and  C12_18 
ROOT
HETATM    1  C12 UNL     1      23.752   7.057  50.226  1.00  0.00     0.226 C 
HETATM    2  C13 UNL     1      22.277   7.086  50.290  1.00  0.00     0.068 C 
HETATM    3  N6  UNL     1      21.101   7.109  50.351  1.00  0.00    -0.197 NA
ENDROOT
BRANCH   1   4
HETATM    4  C11 UNL     1      24.211   5.632  50.175  1.00  0.00     0.232 C 
HETATM    5  N5  UNL     1      24.033   4.703  51.228  1.00  0.00    -0.349 N 
HETATM    6  C10 UNL     1      23.459   4.824  52.558  1.00  0.00     0.128 C 
HETATM    7  C14 UNL     1      24.486   3.341  51.002  1.00  0.00     0.152 C 
HETATM    8  C9  UNL     1      24.040   3.643  53.304  1.00  0.00     0.048 C 
HETATM    9  C7  UNL     1      24.158   2.577  52.236  1.00  0.00     0.047 C 
HETATM   10  C8  UNL     1      22.843   1.866  52.179  1.00  0.00     0.036 C 
HETATM   11  O1  UNL     1      24.747   5.498  49.044  1.00  0.00    -0.272 OA
BRANCH   9  12
HETATM   12  N4  UNL     1      25.274   1.703  52.554  1.00  0.00    -0.215 NA
HETATM   13  N3  UNL     1      24.821   0.383  52.662  1.00  0.00    -0.312 N 
HETATM   14  C6  UNL     1      25.409  -0.737  53.350  1.00  0.00     0.221 C 
HETATM   15  H7  UNL     1      23.928   0.154  52.181  1.00  0.00     0.181 HD
HETATM   16  N2  UNL     1      26.620  -0.879  53.842  1.00  0.00    -0.225 NA
HETATM   17  C5  UNL     1      27.624   0.160  53.755  1.00  0.00     0.138 A 
HETATM   18  N1  UNL     1      28.974  -0.044  53.703  1.00  0.00    -0.346 N 
HETATM   19  C4  UNL     1      27.357   1.536  53.715  1.00  0.00     0.004 A 
HETATM   20  C1  UNL     1      29.628  -1.336  53.721  1.00  0.00     0.157 C 
HETATM   21  C2  UNL     1      29.575   1.153  53.631  1.00  0.00     0.093 A 
HETATM   22  C3  UNL     1      28.606   2.147  53.637  1.00  0.00     0.029 A 
HETATM   23  C15 UNL     1      25.973   2.129  53.751  1.00  0.00     0.157 C 
ENDBRANCH   9  12
ENDBRANCH   1   4
TORSDOF 2
ENDMDL
MODEL 4
REMARK VINA RESULT:      -7.3      2.081      7.478
REMARK  2 active torsions:
REMARK  status: ('A' for Active; 'I' for Inactive)
REMARK    1  A    between atoms: N4_10  and  C7_11 
REMARK       I    between atoms: N5_15  and  C11_16 
REMARK    2  A    between atoms: C11_16  and  C12_18 
ROOT
HETATM    1  C12 UNL     1      27.786   0.216  54.811  1.00  0.00     0.226 C 
HETATM    2  C13 UNL     1      29.091  -0.095  54.193  1.00  0.00     0.068 C 
HETATM    3  N6  UNL     1      30.133  -0.335  53.696  1.00  0.00    -0.197 NA
ENDROOT
BRANCH   1   4
HETATM    4  C11 UNL     1      26.698  -0.061  53.820  1.00  0.00     0.232 C 
HETATM    5  N5  UNL     1      25.819   0.924  53.310  1.00  0.00    -0.349 N 
HETATM    6  C10 UNL     1      25.673   2.345  53.582  1.00  0.00     0.128 C 
HETATM    7  C14 UNL     1      24.850   0.505  52.312  1.00  0.00     0.152 C 
HETATM    8  C9  UNL     1      24.270   2.653  53.107  1.00  0.00     0.048 C 
HETATM    9  C7  UNL     1      24.084   1.721  51.930  1.00  0.00     0.047 C 
HETATM   10  C8  UNL     1      24.622   2.425  50.724  1.00  0.00     0.036 C 
HETATM   11  O1  UNL     1      26.772  -1.296  53.585  1.00  0.00    -0.272 OA
BRANCH   9  12
HETATM   12  N4  UNL     1      22.679   1.371  51.815  1.00  0.00    -0.215 NA
HETATM   13  N3  UNL     1      22.078   2.156  50.823  1.00  0.00    -0.312 N 
HETATM   14  C6  UNL     1      20.691   2.491  50.630  1.00  0.00     0.221 C 
HETATM   15  H7  UNL     1      22.711   2.569  50.107  1.00  0.00     0.181 HD
HETATM   16  N2  UNL     1      19.617   1.965  51.174  1.00  0.00    -0.225 NA
HETATM   17  C5  UNL     1      19.678   0.878  52.128  1.00  0.00     0.138 A 
HETATM   18  N1  UNL     1      18.713  -0.071  52.313  1.00  0.00    -0.346 N 
HETATM   19  C4  UNL     1      20.742   0.639  53.009  1.00  0.00     0.004 A 
HETATM   20  C1  UNL     1      17.465  -0.151  51.580  1.00  0.00     0.157 C 
HETATM   21  C2  UNL     1      19.124  -0.904  53.281  1.00  0.00     0.093 A 
HETATM   22  C3  UNL     1      20.370  -0.493  53.731  1.00  0.00     0.029 A 
HETATM   23  C15 UNL     1      21.985   1.488  53.083  1.00  0.00     0.157 C 
ENDBRANCH   9  12
ENDBRANCH   1   4
TORSDOF 2
ENDMDL
MODEL 5
REMARK VINA RESULT:      -7.3      2.095      7.677
REMARK  2 active torsions:
REMARK  status: ('A' for Active; 'I' for Inactive)
REMARK    1  A    between atoms: N4_10  and  C7_11 
REMARK       I    between atoms: N5_15  and  C11_16 
REMARK    2  A    between atoms: C11_16  and  C12_18 
ROOT
HETATM    1  C12 UNL     1      27.191   0.546  54.857  1.00  0.00     0.226 C 
HETATM    2  C13 UNL     1      28.399  -0.146  54.364  1.00  0.00     0.068 C 
HETATM    3  N6  UNL     1      29.364  -0.691  53.964  1.00  0.00    -0.197 NA
ENDROOT
BRANCH   1   4
HETATM    4  C11 UNL     1      26.001   0.062  54.086  1.00  0.00     0.232 C 
HETATM    5  N5  UNL     1      25.066   0.915  53.453  1.00  0.00    -0.349 N 
HETATM    6  C10 UNL     1      24.942   2.362  53.390  1.00  0.00     0.128 C 
HETATM    7  C14 UNL     1      23.995   0.289  52.696  1.00  0.00     0.152 C 
HETATM    8  C9  UNL     1      23.492   2.576  53.011  1.00  0.00     0.048 C 
HETATM    9  C7  UNL     1      23.184   1.394  52.118  1.00  0.00     0.047 C 
HETATM   10  C8  UNL     1      23.582   1.777  50.728  1.00  0.00     0.036 C 
HETATM   11  O1  UNL     1      26.057  -1.194  54.147  1.00  0.00    -0.272 OA
BRANCH   9  12
HETATM   12  N4  UNL     1      21.777   1.055  52.245  1.00  0.00    -0.215 NA
HETATM   13  N3  UNL     1      21.567   0.354  53.439  1.00  0.00    -0.312 N 
HETATM   14  C6  UNL     1      20.497  -0.537  53.806  1.00  0.00     0.221 C 
HETATM   15  H7  UNL     1      22.280   0.480  54.186  1.00  0.00     0.181 HD
HETATM   16  N2  UNL     1      19.333  -0.734  53.228  1.00  0.00    -0.225 NA
HETATM   17  C5  UNL     1      18.923  -0.023  52.036  1.00  0.00     0.138 A 
HETATM   18  N1  UNL     1      17.635   0.278  51.695  1.00  0.00    -0.346 N 
HETATM   19  C4  UNL     1      19.793   0.463  51.050  1.00  0.00     0.004 A 
HETATM   20  C1  UNL     1      16.461  -0.062  52.474  1.00  0.00     0.157 C 
HETATM   21  C2  UNL     1      17.654   0.937  50.527  1.00  0.00     0.093 A 
HETATM   22  C3  UNL     1      18.969   1.066  50.103  1.00  0.00     0.029 A 
HETATM   23  C15 UNL     1      21.292   0.314  51.096  1.00  0.00     0.157 C 
ENDBRANCH   9  12
ENDBRANCH   1   4
TORSDOF 2
ENDMDL
MODEL 6
REMARK VINA RESULT:      -7.2      4.158      5.991
REMARK  2 active torsions:
REMARK  status: ('A' for Active; 'I' for Inactive)
REMARK    1  A    between atoms: N4_10  and  C7_11 
REMARK       I    between atoms: N5_15  and  C11_16 
REMARK    2  A    between atoms: C11_16  and  C12_18 
ROOT
HETATM    1  C12 UNL     1      24.266  -0.825  53.490  1.00  0.00     0.226 C 
HETATM    2  C13 UNL     1      23.147  -0.956  54.445  1.00  0.00     0.068 C 
HETATM    3  N6  UNL     1      22.247  -1.057  55.199  1.00  0.00    -0.197 NA
ENDROOT
BRANCH   1   4
HETATM    4  C11 UNL     1      24.672   0.614  53.406  1.00  0.00     0.232 C 
HETATM    5  N5  UNL     1      24.024   1.575  52.593  1.00  0.00    -0.349 N 
HETATM    6  C10 UNL     1      22.918   1.481  51.655  1.00  0.00     0.128 C 
HETATM    7  C14 UNL     1      24.504   2.944  52.665  1.00  0.00     0.152 C 
HETATM    8  C9  UNL     1      23.082   2.713  50.791  1.00  0.00     0.048 C 
HETATM    9  C7  UNL     1      23.644   3.741  51.749  1.00  0.00     0.047 C 
HETATM   10  C8  UNL     1      22.480   4.396  52.423  1.00  0.00     0.036 C 
HETATM   11  O1  UNL     1      25.654   0.726  54.185  1.00  0.00    -0.272 OA
BRANCH   9  12
HETATM   12  N4  UNL     1      24.483   4.671  51.013  1.00  0.00    -0.215 NA
HETATM   13  N3  UNL     1      23.875   5.932  50.986  1.00  0.00    -0.312 N 
HETATM   14  C6  UNL     1      24.069   7.026  50.070  1.00  0.00     0.221 C 
HETATM   15  H7  UNL     1      23.176   6.130  51.730  1.00  0.00     0.181 HD
HETATM   16  N2  UNL     1      25.019   7.221  49.184  1.00  0.00    -0.225 NA
HETATM   17  C5  UNL     1      26.104   6.284  48.984  1.00  0.00     0.138 A 
HETATM   18  N1  UNL     1      27.361   6.605  48.556  1.00  0.00    -0.346 N 
HETATM   19  C4  UNL     1      26.022   4.901  49.198  1.00  0.00     0.004 A 
HETATM   20  C1  UNL     1      27.822   7.940  48.234  1.00  0.00     0.157 C 
HETATM   21  C2  UNL     1      28.081   5.475  48.490  1.00  0.00     0.093 A 
HETATM   22  C3  UNL     1      27.285   4.408  48.879  1.00  0.00     0.029 A 
HETATM   23  C15 UNL     1      24.782   4.192  49.677  1.00  0.00     0.157 C 
ENDBRANCH   9  12
ENDBRANCH   1   4
TORSDOF 2
ENDMDL
MODEL 7
REMARK VINA RESULT:      -7.2      2.240      3.095
REMARK  2 active torsions:
REMARK  status: ('A' for Active; 'I' for Inactive)
REMARK    1  A    between atoms: N4_10  and  C7_11 
REMARK       I    between atoms: N5_15  and  C11_16 
REMARK    2  A    between atoms: C11_16  and  C12_18 
ROOT
HETATM    1  C12 UNL     1      16.559  -1.085  52.008  1.00  0.00     0.226 C 
HETATM    2  C13 UNL     1      15.448  -0.322  52.611  1.00  0.00     0.068 C 
HETATM    3  N6  UNL     1      14.563   0.295  53.086  1.00  0.00    -0.197 NA
ENDROOT
BRANCH   1   4
HETATM    4  C11 UNL     1      17.831  -0.743  52.721  1.00  0.00     0.232 C 
HETATM    5  N5  UNL     1      18.886   0.005  52.145  1.00  0.00    -0.349 N 
HETATM    6  C10 UNL     1      19.077   0.577  50.822  1.00  0.00     0.128 C 
HETATM    7  C14 UNL     1      20.033   0.302  52.987  1.00  0.00     0.152 C 
HETATM    8  C9  UNL     1      20.575   0.777  50.736  1.00  0.00     0.048 C 
HETATM    9  C7  UNL     1      20.966   1.112  52.159  1.00  0.00     0.047 C 
HETATM   10  C8  UNL     1      20.800   2.589  52.324  1.00  0.00     0.036 C 
HETATM   11  O1  UNL     1      17.716  -1.252  53.865  1.00  0.00    -0.272 OA
BRANCH   9  12
HETATM   12  N4  UNL     1      22.323   0.652  52.401  1.00  0.00    -0.215 NA
HETATM   13  N3  UNL     1      22.309  -0.373  53.355  1.00  0.00    -0.312 N 
HETATM   14  C6  UNL     1      23.363  -0.840  54.218  1.00  0.00     0.221 C 
HETATM   15  H7  UNL     1      21.412  -0.886  53.477  1.00  0.00     0.181 HD
HETATM   16  N2  UNL     1      24.655  -0.603  54.169  1.00  0.00    -0.225 NA
HETATM   17  C5  UNL     1      25.257   0.234  53.154  1.00  0.00     0.138 A 
HETATM   18  N1  UNL     1      26.529   0.108  52.673  1.00  0.00    -0.346 N 
HETATM   19  C4  UNL     1      24.619   1.307  52.513  1.00  0.00     0.004 A 
HETATM   20  C1  UNL     1      27.490  -0.890  53.096  1.00  0.00     0.157 C 
HETATM   21  C2  UNL     1      26.724   1.062  51.750  1.00  0.00     0.093 A 
HETATM   22  C3  UNL     1      25.566   1.817  51.629  1.00  0.00     0.029 A 
HETATM   23  C15 UNL     1      23.203   1.736  52.793  1.00  0.00     0.157 C 
ENDBRANCH   9  12
ENDBRANCH   1   4
TORSDOF 2
ENDMDL
MODEL 8
REMARK VINA RESULT:      -7.1      3.847      5.326
REMARK  2 active torsions:
REMARK  status: ('A' for Active; 'I' for Inactive)
REMARK    1  A    between atoms: N4_10  and  C7_11 
REMARK       I    between atoms: N5_15  and  C11_16 
REMARK    2  A    between atoms: C11_16  and  C12_18 
ROOT
HETATM    1  C12 UNL     1      20.502   0.217  51.419  1.00  0.00     0.226 C 
HETATM    2  C13 UNL     1      19.306   1.077  51.318  1.00  0.00     0.068 C 
HETATM    3  N6  UNL     1      18.349   1.759  51.229  1.00  0.00    -0.197 NA
ENDROOT
BRANCH   1   4
HETATM    4  C11 UNL     1      21.643   0.882  50.712  1.00  0.00     0.232 C 
HETATM    5  N5  UNL     1      22.747   1.474  51.370  1.00  0.00    -0.349 N 
HETATM    6  C10 UNL     1      23.073   1.650  52.776  1.00  0.00     0.128 C 
HETATM    7  C14 UNL     1      23.802   2.031  50.540  1.00  0.00     0.152 C 
HETATM    8  C9  UNL     1      24.089   2.772  52.766  1.00  0.00     0.048 C 
HETATM    9  C7  UNL     1      24.839   2.555  51.469  1.00  0.00     0.047 C 
HETATM   10  C8  UNL     1      25.943   1.587  51.756  1.00  0.00     0.036 C 
HETATM   11  O1  UNL     1      21.378   0.778  49.486  1.00  0.00    -0.272 OA
BRANCH   9  12
HETATM   12  N4  UNL     1      25.308   3.836  50.969  1.00  0.00    -0.215 NA
HETATM   13  N3  UNL     1      24.459   4.855  51.417  1.00  0.00    -0.312 N 
HETATM   14  C6  UNL     1      24.241   6.173  50.878  1.00  0.00     0.221 C 
HETATM   15  H7  UNL     1      23.890   4.651  52.264  1.00  0.00     0.181 HD
HETATM   16  N2  UNL     1      24.941   6.844  49.992  1.00  0.00    -0.225 NA
HETATM   17  C5  UNL     1      26.137   6.310  49.376  1.00  0.00     0.138 A 
HETATM   18  N1  UNL     1      27.194   7.048  48.923  1.00  0.00    -0.346 N 
HETATM   19  C4  UNL     1      26.387   4.949  49.149  1.00  0.00     0.004 A 
HETATM   20  C1  UNL     1      27.296   8.491  48.988  1.00  0.00     0.157 C 
HETATM   21  C2  UNL     1      28.106   6.205  48.416  1.00  0.00     0.093 A 
HETATM   22  C3  UNL     1      27.638   4.905  48.540  1.00  0.00     0.029 A 
HETATM   23  C15 UNL     1      25.437   3.841  49.525  1.00  0.00     0.157 C 
ENDBRANCH   9  12
ENDBRANCH   1   4
TORSDOF 2
ENDMDL
MODEL 9
REMARK VINA RESULT:      -7.0      4.920      7.109
REMARK  2 active torsions:
REMARK  status: ('A' for Active; 'I' for Inactive)
REMARK    1  A    between atoms: N4_10  and  C7_11 
REMARK       I    between atoms: N5_15  and  C11_16 
REMARK    2  A    between atoms: C11_16  and  C12_18 
ROOT
HETATM    1  C12 UNL     1      27.479   8.811  48.789  1.00  0.00     0.226 C 
HETATM    2  C13 UNL     1      28.888   9.041  49.167  1.00  0.00     0.068 C 
HETATM    3  N6  UNL     1      30.015   9.223  49.459  1.00  0.00    -0.197 NA
ENDROOT
BRANCH   1   4
HETATM    4  C11 UNL     1      27.185   7.344  48.867  1.00  0.00     0.232 C 
HETATM    5  N5  UNL     1      26.045   6.796  49.503  1.00  0.00    -0.349 N 
HETATM    6  C10 UNL     1      24.946   7.399  50.238  1.00  0.00     0.128 C 
HETATM    7  C14 UNL     1      25.875   5.355  49.444  1.00  0.00     0.152 C 
HETATM    8  C9  UNL     1      24.391   6.250  51.051  1.00  0.00     0.048 C 
HETATM    9  C7  UNL     1      24.603   5.050  50.153  1.00  0.00     0.047 C 
HETATM   10  C8  UNL     1      23.411   4.960  49.253  1.00  0.00     0.036 C 
HETATM   11  O1  UNL     1      28.139   6.784  48.266  1.00  0.00    -0.272 OA
BRANCH   9  12
HETATM   12  N4  UNL     1      24.798   3.868  50.974  1.00  0.00    -0.215 NA
HETATM   13  N3  UNL     1      26.164   3.570  51.053  1.00  0.00    -0.312 N 
HETATM   14  C6  UNL     1      26.817   2.325  51.362  1.00  0.00     0.221 C 
HETATM   15  H7  UNL     1      26.824   4.352  50.863  1.00  0.00     0.181 HD
HETATM   16  N2  UNL     1      26.321   1.223  51.880  1.00  0.00    -0.225 NA
HETATM   17  C5  UNL     1      24.928   1.091  52.247  1.00  0.00     0.138 A 
HETATM   18  N1  UNL     1      24.442   0.292  53.242  1.00  0.00    -0.346 N 
HETATM   19  C4  UNL     1      23.866   1.766  51.629  1.00  0.00     0.004 A 
HETATM   20  C1  UNL     1      25.242  -0.556  54.102  1.00  0.00     0.157 C 
HETATM   21  C2  UNL     1      23.108   0.434  53.279  1.00  0.00     0.093 A 
HETATM   22  C3  UNL     1      22.723   1.335  52.297  1.00  0.00     0.029 A 
HETATM   23  C15 UNL     1      24.031   2.737  50.489  1.00  0.00     0.157 C 
ENDBRANCH   9  12
ENDBRANCH   1   4
TORSDOF 2
ENDMDL
