MODEL 1
REMARK VINA RESULT:     -10.1      0.000      0.000
REMARK  2 active torsions:
REMARK  status: ('A' for Active; 'I' for Inactive)
REMARK    1  A    between atoms: N2_14  and  C12_15 
REMARK    2  A    between atoms: C13_17  and  O1_18 
ROOT
HETATM    1  C1  UNL     1      18.196  -0.899  52.786  1.00  0.00     0.044 C 
HETATM    2  C2  UNL     1      19.684  -0.478  52.724  1.00  0.00    -0.079 A 
HETATM    3  C3  UNL     1      19.949   0.374  51.685  1.00  0.00     0.001 A 
HETATM    4  C4  UNL     1      20.311   1.269  50.620  1.00  0.00     0.010 A 
HETATM    5  C5  UNL     1      21.574   1.735  50.431  1.00  0.00     0.196 A 
HETATM    6  C6  UNL     1      23.029   2.054  50.501  1.00  0.00     0.153 A 
HETATM    7  F1  UNL     1      22.638   1.221  51.477  1.00  0.00    -0.377 F 
HETATM    8  C7  UNL     1      24.102   1.776  51.221  1.00  0.00     0.021 A 
HETATM    9  C8  UNL     1      25.066   1.286  52.182  1.00  0.00     0.027 A 
HETATM   10  C9  UNL     1      24.856   0.459  53.186  1.00  0.00     0.044 A 
HETATM   11  C10 UNL     1      23.574  -0.161  53.559  1.00  0.00     0.115 A 
HETATM   12  C11 UNL     1      23.884  -0.970  54.754  1.00  0.00     0.039 A 
HETATM   13  N1  UNL     1      25.110  -0.865  55.021  1.00  0.00    -0.174 NA
HETATM   14  N2  UNL     1      25.761  -0.039  54.144  1.00  0.00    -0.213 N 
HETATM   15  C15 UNL     1      22.681  -1.661  55.287  1.00  0.00     0.062 A 
HETATM   16  C16 UNL     1      21.422  -1.427  54.557  1.00  0.00     0.005 A 
HETATM   17  C17 UNL     1      20.967  -0.720  53.468  1.00  0.00     0.027 A 
ENDROOT
BRANCH  14  18
HETATM   18  C12 UNL     1      27.178   0.324  54.132  1.00  0.00     0.196 A 
HETATM   19  N3  UNL     1      27.901   1.189  54.479  1.00  0.00    -0.198 NA
HETATM   20  C13 UNL     1      29.193   1.248  54.327  1.00  0.00     0.171 A 
HETATM   21  C14 UNL     1      29.767   0.213  53.706  1.00  0.00     0.111 A 
HETATM   22  S1  UNL     1      28.397  -0.916  53.314  1.00  0.00    -0.058 SA
BRANCH  20  23
HETATM   23  O1  UNL     1      29.820   2.407  54.842  1.00  0.00    -0.344 OA
HETATM   24  H11 UNL     1      30.724   2.350  55.304  1.00  0.00     0.219 HD
ENDBRANCH  20  23
ENDBRANCH  14  18
TORSDOF 2
ENDMDL
MODEL 2
REMARK VINA RESULT:      -9.3      1.300      3.295
REMARK  2 active torsions:
REMARK  status: ('A' for Active; 'I' for Inactive)
REMARK    1  A    between atoms: N2_14  and  C12_15 
REMARK    2  A    between atoms: C13_17  and  O1_18 
ROOT
HETATM    1  C1  UNL     1      18.341   0.843  50.548  1.00  0.00     0.044 C 
HETATM    2  C2  UNL     1      19.709   0.672  51.254  1.00  0.00    -0.079 A 
HETATM    3  C3  UNL     1      19.643  -0.162  52.337  1.00  0.00     0.001 A 
HETATM    4  C4  UNL     1      19.661  -1.024  53.488  1.00  0.00     0.010 A 
HETATM    5  C5  UNL     1      20.782  -1.282  54.213  1.00  0.00     0.196 A 
HETATM    6  C6  UNL     1      22.159  -1.353  54.780  1.00  0.00     0.153 A 
HETATM    7  F1  UNL     1      22.088  -0.560  53.700  1.00  0.00    -0.377 F 
HETATM    8  C7  UNL     1      23.374  -0.875  54.575  1.00  0.00     0.021 A 
HETATM    9  C8  UNL     1      24.559  -0.197  54.098  1.00  0.00     0.027 A 
HETATM   10  C9  UNL     1      24.663   0.621  53.069  1.00  0.00     0.044 A 
HETATM   11  C10 UNL     1      23.578   1.034  52.164  1.00  0.00     0.115 A 
HETATM   12  C11 UNL     1      24.228   1.927  51.185  1.00  0.00     0.039 A 
HETATM   13  N1  UNL     1      25.450   2.035  51.469  1.00  0.00    -0.174 NA
HETATM   14  N2  UNL     1      25.793   1.297  52.569  1.00  0.00    -0.213 N 
HETATM   15  C15 UNL     1      23.270   2.429  50.166  1.00  0.00     0.062 A 
HETATM   16  C16 UNL     1      21.878   1.962  50.300  1.00  0.00     0.005 A 
HETATM   17  C17 UNL     1      21.127   1.151  51.117  1.00  0.00     0.027 A 
ENDROOT
BRANCH  14  18
HETATM   18  C12 UNL     1      27.109   1.172  53.197  1.00  0.00     0.196 A 
HETATM   19  N3  UNL     1      27.901   1.814  53.788  1.00  0.00    -0.198 NA
HETATM   20  C13 UNL     1      29.052   1.419  54.252  1.00  0.00     0.171 A 
HETATM   21  C14 UNL     1      29.375   0.141  54.032  1.00  0.00     0.111 A 
HETATM   22  S1  UNL     1      27.964  -0.546  53.114  1.00  0.00    -0.058 SA
BRANCH  20  23
HETATM   23  O1  UNL     1      29.811   2.401  54.931  1.00  0.00    -0.344 OA
HETATM   24  H11 UNL     1      29.472   3.356  55.015  1.00  0.00     0.219 HD
ENDBRANCH  20  23
ENDBRANCH  14  18
TORSDOF 2
ENDMDL
MODEL 3
REMARK VINA RESULT:      -9.2      3.962      5.533
REMARK  2 active torsions:
REMARK  status: ('A' for Active; 'I' for Inactive)
REMARK    1  A    between atoms: N2_14  and  C12_15 
REMARK    2  A    between atoms: C13_17  and  O1_18 
ROOT
HETATM    1  C1  UNL     1      21.377  -1.584  54.227  1.00  0.00     0.044 C 
HETATM    2  C2  UNL     1      22.489  -0.686  53.633  1.00  0.00    -0.079 A 
HETATM    3  C3  UNL     1      23.681  -0.814  54.295  1.00  0.00     0.001 A 
HETATM    4  C4  UNL     1      24.966  -0.888  54.935  1.00  0.00     0.010 A 
HETATM    5  C5  UNL     1      26.046  -0.168  54.531  1.00  0.00     0.196 A 
HETATM    6  C6  UNL     1      27.011   0.742  53.850  1.00  0.00     0.153 A 
HETATM    7  F1  UNL     1      25.793   0.773  53.289  1.00  0.00    -0.377 F 
HETATM    8  C7  UNL     1      27.071   1.605  52.850  1.00  0.00     0.021 A 
HETATM    9  C8  UNL     1      26.819   2.470  51.719  1.00  0.00     0.027 A 
HETATM   10  C9  UNL     1      25.687   2.631  51.062  1.00  0.00     0.044 A 
HETATM   11  C10 UNL     1      24.408   1.957  51.339  1.00  0.00     0.115 A 
HETATM   12  C11 UNL     1      23.484   2.471  50.309  1.00  0.00     0.039 A 
HETATM   13  N1  UNL     1      24.093   3.300  49.582  1.00  0.00    -0.174 NA
HETATM   14  N2  UNL     1      25.400   3.455  49.956  1.00  0.00    -0.213 N 
HETATM   15  C15 UNL     1      22.130   1.872  50.427  1.00  0.00     0.062 A 
HETATM   16  C16 UNL     1      21.945   0.895  51.515  1.00  0.00     0.005 A 
HETATM   17  C17 UNL     1      22.675   0.312  52.525  1.00  0.00     0.027 A 
ENDROOT
BRANCH  14  18
HETATM   18  C12 UNL     1      26.412   4.325  49.356  1.00  0.00     0.196 A 
HETATM   19  N3  UNL     1      27.520   4.292  48.955  1.00  0.00    -0.198 NA
HETATM   20  C13 UNL     1      28.206   5.275  48.444  1.00  0.00     0.171 A 
HETATM   21  C14 UNL     1      27.585   6.456  48.367  1.00  0.00     0.111 A 
HETATM   22  S1  UNL     1      25.929   6.160  49.057  1.00  0.00    -0.058 SA
BRANCH  20  23
HETATM   23  O1  UNL     1      29.523   4.958  48.038  1.00  0.00    -0.344 OA
HETATM   24  H11 UNL     1      30.106   5.649  47.572  1.00  0.00     0.219 HD
ENDBRANCH  20  23
ENDBRANCH  14  18
TORSDOF 2
ENDMDL
MODEL 4
REMARK VINA RESULT:      -9.1      2.226      3.954
REMARK  2 active torsions:
REMARK  status: ('A' for Active; 'I' for Inactive)
REMARK    1  A    between atoms: N2_14  and  C12_15 
REMARK    2  A    between atoms: C13_17  and  O1_18 
ROOT
HETATM    1  C1  UNL     1      20.022   4.363  51.196  1.00  0.00     0.044 C 
HETATM    2  C2  UNL     1      21.097   3.360  51.679  1.00  0.00    -0.079 A 
HETATM    3  C3  UNL     1      20.580   2.372  52.473  1.00  0.00     0.001 A 
HETATM    4  C4  UNL     1      20.118   1.302  53.315  1.00  0.00     0.010 A 
HETATM    5  C5  UNL     1      20.934   0.338  53.817  1.00  0.00     0.196 A 
HETATM    6  C6  UNL     1      22.074  -0.545  54.196  1.00  0.00     0.153 A 
HETATM    7  F1  UNL     1      22.453   0.471  53.407  1.00  0.00    -0.377 F 
HETATM    8  C7  UNL     1      23.379  -0.663  54.018  1.00  0.00     0.021 A 
HETATM    9  C8  UNL     1      24.768  -0.520  53.642  1.00  0.00     0.027 A 
HETATM   10  C9  UNL     1      25.308   0.420  52.891  1.00  0.00     0.044 A 
HETATM   11  C10 UNL     1      24.607   1.550  52.260  1.00  0.00     0.115 A 
HETATM   12  C11 UNL     1      25.659   2.277  51.523  1.00  0.00     0.039 A 
HETATM   13  N1  UNL     1      26.765   1.702  51.701  1.00  0.00    -0.174 NA
HETATM   14  N2  UNL     1      26.650   0.594  52.498  1.00  0.00    -0.213 N 
HETATM   15  C15 UNL     1      25.118   3.455  50.797  1.00  0.00     0.062 A 
HETATM   16  C16 UNL     1      23.669   3.688  50.928  1.00  0.00     0.005 A 
HETATM   17  C17 UNL     1      22.576   3.125  51.546  1.00  0.00     0.027 A 
ENDROOT
BRANCH  14  18
HETATM   18  C12 UNL     1      27.707  -0.322  52.926  1.00  0.00     0.196 A 
HETATM   19  N3  UNL     1      27.926  -1.475  53.032  1.00  0.00    -0.198 NA
HETATM   20  C13 UNL     1      29.018  -2.036  53.467  1.00  0.00     0.171 A 
HETATM   21  C14 UNL     1      30.004  -1.212  53.836  1.00  0.00     0.111 A 
HETATM   22  S1  UNL     1      29.348   0.459  53.551  1.00  0.00    -0.058 SA
BRANCH  20  23
HETATM   23  O1  UNL     1      29.015  -3.451  53.489  1.00  0.00    -0.344 OA
HETATM   24  H11 UNL     1      28.210  -3.976  53.156  1.00  0.00     0.219 HD
ENDBRANCH  20  23
ENDBRANCH  14  18
TORSDOF 2
ENDMDL
MODEL 5
REMARK VINA RESULT:      -8.8      2.660      3.814
REMARK  2 active torsions:
REMARK  status: ('A' for Active; 'I' for Inactive)
REMARK    1  A    between atoms: N2_14  and  C12_15 
REMARK    2  A    between atoms: C13_17  and  O1_18 
ROOT
HETATM    1  C1  UNL     1      20.158   5.027  50.333  1.00  0.00     0.044 C 
HETATM    2  C2  UNL     1      21.491   4.278  50.572  1.00  0.00    -0.079 A 
HETATM    3  C3  UNL     1      22.527   4.797  49.843  1.00  0.00     0.001 A 
HETATM    4  C4  UNL     1      23.667   5.280  49.112  1.00  0.00     0.010 A 
HETATM    5  C5  UNL     1      24.908   4.734  49.215  1.00  0.00     0.196 A 
HETATM    6  C6  UNL     1      26.114   3.923  49.550  1.00  0.00     0.153 A 
HETATM    7  F1  UNL     1      25.019   3.513  50.209  1.00  0.00    -0.377 F 
HETATM    8  C7  UNL     1      26.478   2.895  50.297  1.00  0.00     0.021 A 
HETATM    9  C8  UNL     1      26.559   1.770  51.202  1.00  0.00     0.027 A 
HETATM   10  C9  UNL     1      25.587   1.233  51.912  1.00  0.00     0.044 A 
HETATM   11  C10 UNL     1      24.180   1.665  51.941  1.00  0.00     0.115 A 
HETATM   12  C11 UNL     1      23.529   0.754  52.903  1.00  0.00     0.039 A 
HETATM   13  N1  UNL     1      24.380  -0.066  53.339  1.00  0.00    -0.174 NA
HETATM   14  N2  UNL     1      25.623   0.145  52.806  1.00  0.00    -0.213 N 
HETATM   15  C15 UNL     1      22.086   1.063  53.075  1.00  0.00     0.062 A 
HETATM   16  C16 UNL     1      21.566   2.193  52.284  1.00  0.00     0.005 A 
HETATM   17  C17 UNL     1      22.019   3.123  51.378  1.00  0.00     0.027 A 
ENDROOT
BRANCH  14  18
HETATM   18  C12 UNL     1      26.854  -0.600  53.069  1.00  0.00     0.196 A 
HETATM   19  N3  UNL     1      27.281  -1.698  53.030  1.00  0.00    -0.198 NA
HETATM   20  C13 UNL     1      28.485  -2.090  53.339  1.00  0.00     0.171 A 
HETATM   21  C14 UNL     1      29.333  -1.141  53.747  1.00  0.00     0.111 A 
HETATM   22  S1  UNL     1      28.372   0.401  53.690  1.00  0.00    -0.058 SA
BRANCH  20  23
HETATM   23  O1  UNL     1      28.733  -3.476  53.199  1.00  0.00    -0.344 OA
HETATM   24  H11 UNL     1      29.139  -4.012  53.962  1.00  0.00     0.219 HD
ENDBRANCH  20  23
ENDBRANCH  14  18
TORSDOF 2
ENDMDL
MODEL 6
REMARK VINA RESULT:      -8.5      4.715      7.856
REMARK  2 active torsions:
REMARK  status: ('A' for Active; 'I' for Inactive)
REMARK    1  A    between atoms: N2_14  and  C12_15 
REMARK    2  A    between atoms: C13_17  and  O1_18 
ROOT
HETATM    1  C1  UNL     1      27.030   4.243  49.094  1.00  0.00     0.044 C 
HETATM    2  C2  UNL     1      25.921   3.394  49.761  1.00  0.00    -0.079 A 
HETATM    3  C3  UNL     1      26.401   2.587  50.758  1.00  0.00     0.001 A 
HETATM    4  C4  UNL     1      26.822   1.710  51.816  1.00  0.00     0.010 A 
HETATM    5  C5  UNL     1      25.970   0.904  52.504  1.00  0.00     0.196 A 
HETATM    6  C6  UNL     1      24.799   0.160  53.050  1.00  0.00     0.153 A 
HETATM    7  F1  UNL     1      24.459   0.996  52.058  1.00  0.00    -0.377 F 
HETATM    8  C7  UNL     1      23.495   0.036  52.874  1.00  0.00     0.021 A 
HETATM    9  C8  UNL     1      22.117   0.124  52.445  1.00  0.00     0.027 A 
HETATM   10  C9  UNL     1      21.617   0.876  51.485  1.00  0.00     0.044 A 
HETATM   11  C10 UNL     1      22.361   1.808  50.622  1.00  0.00     0.115 A 
HETATM   12  C11 UNL     1      21.336   2.406  49.745  1.00  0.00     0.039 A 
HETATM   13  N1  UNL     1      20.212   1.909  50.022  1.00  0.00    -0.174 NA
HETATM   14  N2  UNL     1      20.286   0.996  51.039  1.00  0.00    -0.213 N 
HETATM   15  C15 UNL     1      21.915   3.402  48.808  1.00  0.00     0.062 A 
HETATM   16  C16 UNL     1      23.370   3.620  48.912  1.00  0.00     0.005 A 
HETATM   17  C17 UNL     1      24.439   3.171  49.652  1.00  0.00     0.027 A 
ENDROOT
BRANCH  14  18
HETATM   18  C12 UNL     1      19.198   0.217  51.632  1.00  0.00     0.196 A 
HETATM   19  N3  UNL     1      18.947  -0.409  52.598  1.00  0.00    -0.198 NA
HETATM   20  C13 UNL     1      17.833  -1.027  52.873  1.00  0.00     0.171 A 
HETATM   21  C14 UNL     1      16.865  -0.944  51.956  1.00  0.00     0.111 A 
HETATM   22  S1  UNL     1      17.569   0.072  50.622  1.00  0.00    -0.058 SA
BRANCH  20  23
HETATM   23  O1  UNL     1      17.799  -1.707  54.113  1.00  0.00    -0.344 OA
HETATM   24  H11 UNL     1      16.970  -2.220  54.404  1.00  0.00     0.219 HD
ENDBRANCH  20  23
ENDBRANCH  14  18
TORSDOF 2
ENDMDL
MODEL 7
REMARK VINA RESULT:      -8.4      4.241      7.044
REMARK  2 active torsions:
REMARK  status: ('A' for Active; 'I' for Inactive)
REMARK    1  A    between atoms: N2_14  and  C12_15 
REMARK    2  A    between atoms: C13_17  and  O1_18 
ROOT
HETATM    1  C1  UNL     1      28.273   0.140  54.903  1.00  0.00     0.044 C 
HETATM    2  C2  UNL     1      26.843   0.227  54.317  1.00  0.00    -0.079 A 
HETATM    3  C3  UNL     1      26.776   1.017  53.200  1.00  0.00     0.001 A 
HETATM    4  C4  UNL     1      26.619   1.829  52.025  1.00  0.00     0.010 A 
HETATM    5  C5  UNL     1      25.431   2.003  51.388  1.00  0.00     0.196 A 
HETATM    6  C6  UNL     1      24.009   1.986  50.938  1.00  0.00     0.153 A 
HETATM    7  F1  UNL     1      24.210   1.239  52.034  1.00  0.00    -0.377 F 
HETATM    8  C7  UNL     1      22.839   1.472  51.272  1.00  0.00     0.021 A 
HETATM    9  C8  UNL     1      21.729   0.774  51.884  1.00  0.00     0.027 A 
HETATM   10  C9  UNL     1      21.748   0.015  52.962  1.00  0.00     0.044 A 
HETATM   11  C10 UNL     1      22.921  -0.295  53.796  1.00  0.00     0.115 A 
HETATM   12  C11 UNL     1      22.404  -1.192  54.848  1.00  0.00     0.039 A 
HETATM   13  N1  UNL     1      21.167  -1.361  54.679  1.00  0.00    -0.174 NA
HETATM   14  N2  UNL     1      20.696  -0.683  53.587  1.00  0.00    -0.213 N 
HETATM   15  C15 UNL     1      23.473  -1.629  55.783  1.00  0.00     0.062 A 
HETATM   16  C16 UNL     1      24.825  -1.111  55.509  1.00  0.00     0.005 A 
HETATM   17  C17 UNL     1      25.464  -0.301  54.599  1.00  0.00     0.027 A 
ENDROOT
BRANCH  14  18
HETATM   18  C12 UNL     1      19.326  -0.637  53.078  1.00  0.00     0.196 A 
HETATM   19  N3  UNL     1      18.629   0.026  52.396  1.00  0.00    -0.198 NA
HETATM   20  C13 UNL     1      17.378  -0.187  52.100  1.00  0.00     0.171 A 
HETATM   21  C14 UNL     1      16.819  -1.280  52.629  1.00  0.00     0.111 A 
HETATM   22  S1  UNL     1      18.143  -2.056  53.605  1.00  0.00    -0.058 SA
BRANCH  20  23
HETATM   23  O1  UNL     1      16.776   0.772  51.252  1.00  0.00    -0.344 OA
HETATM   24  H11 UNL     1      16.727   1.751  51.524  1.00  0.00     0.219 HD
ENDBRANCH  20  23
ENDBRANCH  14  18
TORSDOF 2
ENDMDL
MODEL 8
REMARK VINA RESULT:      -8.2      4.828      7.829
REMARK  2 active torsions:
REMARK  status: ('A' for Active; 'I' for Inactive)
REMARK    1  A    between atoms: N2_14  and  C12_15 
REMARK    2  A    between atoms: C13_17  and  O1_18 
ROOT
HETATM    1  C1  UNL     1      27.643  -0.045  53.423  1.00  0.00     0.044 C 
HETATM    2  C2  UNL     1      26.125   0.245  53.338  1.00  0.00    -0.079 A 
HETATM    3  C3  UNL     1      25.394  -0.503  54.221  1.00  0.00     0.001 A 
HETATM    4  C4  UNL     1      24.553  -1.250  55.117  1.00  0.00     0.010 A 
HETATM    5  C5  UNL     1      23.202  -1.108  55.169  1.00  0.00     0.196 A 
HETATM    6  C6  UNL     1      21.775  -0.720  54.977  1.00  0.00     0.153 A 
HETATM    7  F1  UNL     1      22.603  -0.049  54.164  1.00  0.00    -0.377 F 
HETATM    8  C7  UNL     1      21.025   0.084  54.244  1.00  0.00     0.021 A 
HETATM    9  C8  UNL     1      20.492   1.050  53.309  1.00  0.00     0.027 A 
HETATM   10  C9  UNL     1      21.158   1.780  52.436  1.00  0.00     0.044 A 
HETATM   11  C10 UNL     1      22.613   1.775  52.216  1.00  0.00     0.115 A 
HETATM   12  C11 UNL     1      22.834   2.780  51.157  1.00  0.00     0.039 A 
HETATM   13  N1  UNL     1      21.726   3.266  50.808  1.00  0.00    -0.174 NA
HETATM   14  N2  UNL     1      20.681   2.732  51.513  1.00  0.00    -0.213 N 
HETATM   15  C15 UNL     1      24.273   2.924  50.817  1.00  0.00     0.062 A 
HETATM   16  C16 UNL     1      25.207   2.068  51.573  1.00  0.00     0.005 A 
HETATM   17  C17 UNL     1      25.174   1.116  52.565  1.00  0.00     0.027 A 
ENDROOT
BRANCH  14  18
HETATM   18  C12 UNL     1      19.257   3.044  51.389  1.00  0.00     0.196 A 
HETATM   19  N3  UNL     1      18.390   3.590  51.971  1.00  0.00    -0.198 NA
HETATM   20  C13 UNL     1      17.148   3.721  51.599  1.00  0.00     0.171 A 
HETATM   21  C14 UNL     1      16.818   3.174  50.425  1.00  0.00     0.111 A 
HETATM   22  S1  UNL     1      18.357   2.430  49.806  1.00  0.00    -0.058 SA
BRANCH  20  23
HETATM   23  O1  UNL     1      16.311   4.428  52.494  1.00  0.00    -0.344 OA
HETATM   24  H11 UNL     1      16.644   5.260  52.973  1.00  0.00     0.219 HD
ENDBRANCH  20  23
ENDBRANCH  14  18
TORSDOF 2
ENDMDL
MODEL 9
REMARK VINA RESULT:      -8.1      3.709      5.210
REMARK  2 active torsions:
REMARK  status: ('A' for Active; 'I' for Inactive)
REMARK    1  A    between atoms: N2_14  and  C12_15 
REMARK    2  A    between atoms: C13_17  and  O1_18 
ROOT
HETATM    1  C1  UNL     1      17.979  -1.656  53.429  1.00  0.00     0.044 C 
HETATM    2  C2  UNL     1      19.262  -0.880  53.047  1.00  0.00    -0.079 A 
HETATM    3  C3  UNL     1      20.346  -1.249  53.798  1.00  0.00     0.001 A 
HETATM    4  C4  UNL     1      21.532  -1.576  54.540  1.00  0.00     0.010 A 
HETATM    5  C5  UNL     1      22.739  -0.988  54.323  1.00  0.00     0.196 A 
HETATM    6  C6  UNL     1      23.888  -0.168  53.843  1.00  0.00     0.153 A 
HETATM    7  F1  UNL     1      22.753   0.099  53.179  1.00  0.00    -0.377 F 
HETATM    8  C7  UNL     1      24.173   0.771  52.959  1.00  0.00     0.021 A 
HETATM    9  C8  UNL     1      24.166   1.773  51.915  1.00  0.00     0.027 A 
HETATM   10  C9  UNL     1      23.145   2.165  51.179  1.00  0.00     0.044 A 
HETATM   11  C10 UNL     1      21.763   1.664  51.258  1.00  0.00     0.115 A 
HETATM   12  C11 UNL     1      21.036   2.411  50.213  1.00  0.00     0.039 A 
HETATM   13  N1  UNL     1      21.827   3.209  49.645  1.00  0.00    -0.174 NA
HETATM   14  N2  UNL     1      23.096   3.130  50.154  1.00  0.00    -0.213 N 
HETATM   15  C15 UNL     1      19.607   2.011  50.135  1.00  0.00     0.062 A 
HETATM   16  C16 UNL     1      19.173   0.968  51.082  1.00  0.00     0.005 A 
HETATM   17  C17 UNL     1      19.702   0.186  52.082  1.00  0.00     0.027 A 
ENDROOT
BRANCH  14  18
HETATM   18  C12 UNL     1      24.277   3.894  49.752  1.00  0.00     0.196 A 
HETATM   19  N3  UNL     1      25.451   3.801  49.707  1.00  0.00    -0.198 NA
HETATM   20  C13 UNL     1      26.299   4.692  49.277  1.00  0.00     0.171 A 
HETATM   21  C14 UNL     1      25.781   5.843  48.839  1.00  0.00     0.111 A 
HETATM   22  S1  UNL     1      23.984   5.657  49.045  1.00  0.00    -0.058 SA
BRANCH  20  23
HETATM   23  O1  UNL     1      27.662   4.318  49.332  1.00  0.00    -0.344 OA
HETATM   24  H11 UNL     1      28.011   3.536  48.783  1.00  0.00     0.219 HD
ENDBRANCH  20  23
ENDBRANCH  14  18
TORSDOF 2
ENDMDL
