MODEL 1
REMARK VINA RESULT:      -7.5      0.000      0.000
REMARK  6 active torsions:
REMARK  status: ('A' for Active; 'I' for Inactive)
REMARK    1  A    between atoms: C2_2  and  N1_3 
REMARK    2  A    between atoms: N1_3  and  P1_4 
REMARK    3  A    between atoms: N1_3  and  C13_19 
REMARK    4  A    between atoms: P1_4  and  C3_5 
REMARK    5  A    between atoms: C7_11  and  O1_12 
REMARK    6  A    between atoms: C9_14  and  O2_15 
ROOT
HETATM    1  C3  UNL     1      23.231   1.911  52.415  1.00  0.00     0.092 A 
HETATM    2  N2  UNL     1      22.191   1.066  52.214  1.00  0.00    -0.239 NA
HETATM    3  C4  UNL     1      22.217  -0.220  52.618  1.00  0.00     0.234 A 
HETATM    4  N3  UNL     1      23.281  -0.778  53.258  1.00  0.00    -0.241 NA
HETATM    5  C5  UNL     1      24.347   0.011  53.489  1.00  0.00     0.073 A 
HETATM    6  C6  UNL     1      25.465  -0.479  54.132  1.00  0.00     0.072 A 
HETATM    7  C7  UNL     1      26.579   0.298  54.388  1.00  0.00     0.103 A 
HETATM    8  C9  UNL     1      26.545   1.611  53.971  1.00  0.00     0.102 A 
HETATM    9  C11 UNL     1      25.412   2.097  53.322  1.00  0.00     0.055 A 
HETATM   10  C12 UNL     1      24.303   1.331  53.066  1.00  0.00     0.026 A 
ENDROOT
BRANCH   1  11
HETATM   11  P1  UNL     1      23.186   3.633  51.869  1.00  0.00     0.028 P 
HETATM   12  H6  UNL     1      22.103   4.392  52.464  1.00  0.00     0.087 HD
BRANCH  11  13
HETATM   13  N1  UNL     1      23.244   3.835  50.096  1.00  0.00    -0.356 N 
BRANCH  13  14
HETATM   14  C2  UNL     1      22.485   3.847  48.874  1.00  0.00     0.123 C 
HETATM   15  C1  UNL     1      22.532   2.492  48.175  1.00  0.00     0.027 C 
ENDBRANCH  13  14
BRANCH  13  16
HETATM   16  C13 UNL     1      24.605   4.090  49.744  1.00  0.00     0.014 A 
HETATM   17  C14 UNL     1      25.651   3.285  49.894  1.00  0.00     0.025 A 
HETATM   18  C15 UNL     1      26.859   3.956  49.394  1.00  0.00    -0.002 A 
HETATM   19  C16 UNL     1      26.485   5.155  48.958  1.00  0.00    -0.021 A 
HETATM   20  C17 UNL     1      25.023   5.385  49.124  1.00  0.00     0.084 A 
ENDBRANCH  13  16
ENDBRANCH  11  13
ENDBRANCH   1  11
BRANCH   8  21
HETATM   21  O2  UNL     1      27.648   2.401  54.217  1.00  0.00    -0.353 OA
HETATM   22  C10 UNL     1      28.680   2.614  53.281  1.00  0.00     0.210 C 
ENDBRANCH   8  21
BRANCH   7  23
HETATM   23  O1  UNL     1      27.710  -0.180  55.033  1.00  0.00    -0.353 OA
HETATM   24  C8  UNL     1      28.784  -0.702  54.277  1.00  0.00     0.210 C 
ENDBRANCH   7  23
TORSDOF 6
ENDMDL
MODEL 2
REMARK VINA RESULT:      -7.4      1.766      4.788
REMARK  6 active torsions:
REMARK  status: ('A' for Active; 'I' for Inactive)
REMARK    1  A    between atoms: C2_2  and  N1_3 
REMARK    2  A    between atoms: N1_3  and  P1_4 
REMARK    3  A    between atoms: N1_3  and  C13_19 
REMARK    4  A    between atoms: P1_4  and  C3_5 
REMARK    5  A    between atoms: C7_11  and  O1_12 
REMARK    6  A    between atoms: C9_14  and  O2_15 
ROOT
HETATM    1  C3  UNL     1      24.507   2.413  52.007  1.00  0.00     0.092 A 
HETATM    2  N2  UNL     1      24.816   3.203  50.950  1.00  0.00    -0.239 NA
HETATM    3  C4  UNL     1      26.082   3.369  50.517  1.00  0.00     0.234 A 
HETATM    4  N3  UNL     1      27.153   2.761  51.098  1.00  0.00    -0.241 NA
HETATM    5  C5  UNL     1      26.912   1.962  52.155  1.00  0.00     0.073 A 
HETATM    6  C6  UNL     1      27.943   1.311  52.800  1.00  0.00     0.072 A 
HETATM    7  C7  UNL     1      27.738   0.482  53.886  1.00  0.00     0.103 A 
HETATM    8  C9  UNL     1      26.441   0.318  54.323  1.00  0.00     0.102 A 
HETATM    9  C11 UNL     1      25.406   0.980  53.666  1.00  0.00     0.055 A 
HETATM   10  C12 UNL     1      25.604   1.804  52.587  1.00  0.00     0.026 A 
ENDROOT
BRANCH   1  11
HETATM   11  P1  UNL     1      22.807   2.199  52.579  1.00  0.00     0.028 P 
HETATM   12  H6  UNL     1      22.706   2.030  54.016  1.00  0.00     0.087 HD
BRANCH  11  13
HETATM   13  N1  UNL     1      21.895   0.943  51.696  1.00  0.00    -0.356 N 
BRANCH  13  14
HETATM   14  C2  UNL     1      21.365   0.531  50.424  1.00  0.00     0.123 C 
HETATM   15  C1  UNL     1      21.883   1.411  49.292  1.00  0.00     0.027 C 
ENDBRANCH  13  14
BRANCH  13  16
HETATM   16  C13 UNL     1      21.550  -0.071  52.641  1.00  0.00     0.014 A 
HETATM   17  C14 UNL     1      22.357  -0.946  53.230  1.00  0.00     0.025 A 
HETATM   18  C15 UNL     1      21.574  -1.804  54.130  1.00  0.00    -0.002 A 
HETATM   19  C16 UNL     1      20.309  -1.405  54.043  1.00  0.00    -0.021 A 
HETATM   20  C17 UNL     1      20.140  -0.267  53.097  1.00  0.00     0.084 A 
ENDBRANCH  13  16
ENDBRANCH  11  13
ENDBRANCH   1  11
BRANCH   8  21
HETATM   21  O2  UNL     1      26.218  -0.505  55.407  1.00  0.00    -0.353 OA
HETATM   22  C10 UNL     1      24.947  -1.005  55.758  1.00  0.00     0.210 C 
ENDBRANCH   8  21
BRANCH   7  23
HETATM   23  O1  UNL     1      28.764  -0.180  54.545  1.00  0.00    -0.353 OA
HETATM   24  C8  UNL     1      29.721  -0.910  53.802  1.00  0.00     0.210 C 
ENDBRANCH   7  23
TORSDOF 6
ENDMDL
MODEL 3
REMARK VINA RESULT:      -7.2      0.671      2.008
REMARK  6 active torsions:
REMARK  status: ('A' for Active; 'I' for Inactive)
REMARK    1  A    between atoms: C2_2  and  N1_3 
REMARK    2  A    between atoms: N1_3  and  P1_4 
REMARK    3  A    between atoms: N1_3  and  C13_19 
REMARK    4  A    between atoms: P1_4  and  C3_5 
REMARK    5  A    between atoms: C7_11  and  O1_12 
REMARK    6  A    between atoms: C9_14  and  O2_15 
ROOT
HETATM    1  C3  UNL     1      23.150   1.914  52.447  1.00  0.00     0.092 A 
HETATM    2  N2  UNL     1      22.125   1.056  52.221  1.00  0.00    -0.239 NA
HETATM    3  C4  UNL     1      22.180  -0.244  52.571  1.00  0.00     0.234 A 
HETATM    4  N3  UNL     1      23.261  -0.807  53.178  1.00  0.00    -0.241 NA
HETATM    5  C5  UNL     1      24.314  -0.006  53.430  1.00  0.00     0.073 A 
HETATM    6  C6  UNL     1      25.448  -0.500  54.042  1.00  0.00     0.072 A 
HETATM    7  C7  UNL     1      26.549   0.287  54.318  1.00  0.00     0.103 A 
HETATM    8  C9  UNL     1      26.486   1.616  53.957  1.00  0.00     0.102 A 
HETATM    9  C11 UNL     1      25.336   2.105  53.339  1.00  0.00     0.055 A 
HETATM   10  C12 UNL     1      24.240   1.329  53.062  1.00  0.00     0.026 A 
ENDROOT
BRANCH   1  11
HETATM   11  P1  UNL     1      23.066   3.655  51.972  1.00  0.00     0.028 P 
HETATM   12  H6  UNL     1      21.709   4.128  51.776  1.00  0.00     0.087 HD
BRANCH  11  13
HETATM   13  N1  UNL     1      24.125   4.086  50.601  1.00  0.00    -0.356 N 
BRANCH  13  14
HETATM   14  C2  UNL     1      25.417   4.577  50.203  1.00  0.00     0.123 C 
HETATM   15  C1  UNL     1      26.403   3.435  49.981  1.00  0.00     0.027 C 
ENDBRANCH  13  14
BRANCH  13  16
HETATM   16  C13 UNL     1      23.384   3.844  49.403  1.00  0.00     0.014 A 
HETATM   17  C14 UNL     1      22.931   2.683  48.945  1.00  0.00     0.025 A 
HETATM   18  C15 UNL     1      22.222   2.901  47.676  1.00  0.00    -0.002 A 
HETATM   19  C16 UNL     1      22.280   4.205  47.419  1.00  0.00    -0.021 A 
HETATM   20  C17 UNL     1      23.017   4.956  48.473  1.00  0.00     0.084 A 
ENDBRANCH  13  16
ENDBRANCH  11  13
ENDBRANCH   1  11
BRANCH   8  21
HETATM   21  O2  UNL     1      27.576   2.417  54.224  1.00  0.00    -0.353 OA
HETATM   22  C10 UNL     1      28.646   2.602  53.326  1.00  0.00     0.210 C 
ENDBRANCH   8  21
BRANCH   7  23
HETATM   23  O1  UNL     1      27.696  -0.193  54.933  1.00  0.00    -0.353 OA
HETATM   24  C8  UNL     1      28.725  -0.767  54.151  1.00  0.00     0.210 C 
ENDBRANCH   7  23
TORSDOF 6
ENDMDL
MODEL 4
REMARK VINA RESULT:      -7.1      2.684      5.688
REMARK  6 active torsions:
REMARK  status: ('A' for Active; 'I' for Inactive)
REMARK    1  A    between atoms: C2_2  and  N1_3 
REMARK    2  A    between atoms: N1_3  and  P1_4 
REMARK    3  A    between atoms: N1_3  and  C13_19 
REMARK    4  A    between atoms: P1_4  and  C3_5 
REMARK    5  A    between atoms: C7_11  and  O1_12 
REMARK    6  A    between atoms: C9_14  and  O2_15 
ROOT
HETATM    1  C3  UNL     1      22.615   1.732  52.198  1.00  0.00     0.092 A 
HETATM    2  N2  UNL     1      22.179   3.008  52.065  1.00  0.00    -0.239 NA
HETATM    3  C4  UNL     1      22.909   4.067  52.470  1.00  0.00     0.234 A 
HETATM    4  N3  UNL     1      24.137   3.949  53.044  1.00  0.00    -0.241 NA
HETATM    5  C5  UNL     1      24.627   2.705  53.205  1.00  0.00     0.073 A 
HETATM    6  C6  UNL     1      25.865   2.500  53.779  1.00  0.00     0.072 A 
HETATM    7  C7  UNL     1      26.403   1.241  53.962  1.00  0.00     0.103 A 
HETATM    8  C9  UNL     1      25.651   0.163  53.546  1.00  0.00     0.102 A 
HETATM    9  C11 UNL     1      24.402   0.380  52.967  1.00  0.00     0.055 A 
HETATM   10  C12 UNL     1      23.863   1.628  52.783  1.00  0.00     0.026 A 
ENDROOT
BRANCH   1  11
HETATM   11  P1  UNL     1      21.629   0.320  51.653  1.00  0.00     0.028 P 
HETATM   12  H6  UNL     1      20.876   0.584  50.441  1.00  0.00     0.087 HD
BRANCH  11  13
HETATM   13  N1  UNL     1      20.603  -0.388  52.931  1.00  0.00    -0.356 N 
BRANCH  13  14
HETATM   14  C2  UNL     1      20.569  -0.945  54.257  1.00  0.00     0.123 C 
HETATM   15  C1  UNL     1      21.904  -1.583  54.628  1.00  0.00     0.027 C 
ENDBRANCH  13  14
BRANCH  13  16
HETATM   16  C13 UNL     1      19.264  -0.410  52.435  1.00  0.00     0.014 A 
HETATM   17  C14 UNL     1      18.783   0.199  51.357  1.00  0.00     0.025 A 
HETATM   18  C15 UNL     1      17.351  -0.100  51.225  1.00  0.00    -0.002 A 
HETATM   19  C16 UNL     1      17.023  -0.888  52.245  1.00  0.00    -0.021 A 
HETATM   20  C17 UNL     1      18.186  -1.179  53.129  1.00  0.00     0.084 A 
ENDBRANCH  13  16
ENDBRANCH  11  13
ENDBRANCH   1  11
BRANCH   8  21
HETATM   21  O2  UNL     1      26.172  -1.102  53.720  1.00  0.00    -0.353 OA
HETATM   22  C10 UNL     1      26.791  -1.839  52.691  1.00  0.00     0.210 C 
ENDBRANCH   8  21
BRANCH   7  23
HETATM   23  O1  UNL     1      27.646   1.018  54.537  1.00  0.00    -0.353 OA
HETATM   24  C8  UNL     1      28.821   1.274  53.793  1.00  0.00     0.210 C 
ENDBRANCH   7  23
TORSDOF 6
ENDMDL
MODEL 5
REMARK VINA RESULT:      -6.9      2.580      4.989
REMARK  6 active torsions:
REMARK  status: ('A' for Active; 'I' for Inactive)
REMARK    1  A    between atoms: C2_2  and  N1_3 
REMARK    2  A    between atoms: N1_3  and  P1_4 
REMARK    3  A    between atoms: N1_3  and  C13_19 
REMARK    4  A    between atoms: P1_4  and  C3_5 
REMARK    5  A    between atoms: C7_11  and  O1_12 
REMARK    6  A    between atoms: C9_14  and  O2_15 
ROOT
HETATM    1  C3  UNL     1      22.648   2.160  51.699  1.00  0.00     0.092 A 
HETATM    2  N2  UNL     1      22.278   3.464  51.669  1.00  0.00    -0.239 NA
HETATM    3  C4  UNL     1      22.969   4.426  52.312  1.00  0.00     0.234 A 
HETATM    4  N3  UNL     1      24.090   4.176  53.043  1.00  0.00    -0.241 NA
HETATM    5  C5  UNL     1      24.510   2.898  53.112  1.00  0.00     0.073 A 
HETATM    6  C6  UNL     1      25.637   2.561  53.833  1.00  0.00     0.072 A 
HETATM    7  C7  UNL     1      26.101   1.263  53.929  1.00  0.00     0.103 A 
HETATM    8  C9  UNL     1      25.389   0.285  53.269  1.00  0.00     0.102 A 
HETATM    9  C11 UNL     1      24.252   0.634  52.544  1.00  0.00     0.055 A 
HETATM   10  C12 UNL     1      23.786   1.921  52.445  1.00  0.00     0.026 A 
ENDROOT
BRANCH   1  11
HETATM   11  P1  UNL     1      21.714   0.879  50.834  1.00  0.00     0.028 P 
HETATM   12  H6  UNL     1      21.296   1.277  49.503  1.00  0.00     0.087 HD
BRANCH  11  13
HETATM   13  N1  UNL     1      20.360   0.202  51.780  1.00  0.00    -0.356 N 
BRANCH  13  14
HETATM   14  C2  UNL     1      18.953  -0.097  51.798  1.00  0.00     0.123 C 
HETATM   15  C1  UNL     1      18.256   0.425  50.547  1.00  0.00     0.027 C 
ENDBRANCH  13  14
BRANCH  13  16
HETATM   16  C13 UNL     1      20.891  -0.217  53.038  1.00  0.00     0.014 A 
HETATM   17  C14 UNL     1      20.787   0.395  54.212  1.00  0.00     0.025 A 
HETATM   18  C15 UNL     1      21.486  -0.392  55.238  1.00  0.00    -0.002 A 
HETATM   19  C16 UNL     1      21.991  -1.461  54.629  1.00  0.00    -0.021 A 
HETATM   20  C17 UNL     1      21.679  -1.481  53.173  1.00  0.00     0.084 A 
ENDBRANCH  13  16
ENDBRANCH  11  13
ENDBRANCH   1  11
BRANCH   8  21
HETATM   21  O2  UNL     1      25.836  -1.016  53.354  1.00  0.00    -0.353 OA
HETATM   22  C10 UNL     1      26.684  -1.614  52.399  1.00  0.00     0.210 C 
ENDBRANCH   8  21
BRANCH   7  23
HETATM   23  O1  UNL     1      27.232   0.909  54.649  1.00  0.00    -0.353 OA
HETATM   24  C8  UNL     1      28.516   1.177  54.120  1.00  0.00     0.210 C 
ENDBRANCH   7  23
TORSDOF 6
ENDMDL
MODEL 6
REMARK VINA RESULT:      -6.8      2.982      5.500
REMARK  6 active torsions:
REMARK  status: ('A' for Active; 'I' for Inactive)
REMARK    1  A    between atoms: C2_2  and  N1_3 
REMARK    2  A    between atoms: N1_3  and  P1_4 
REMARK    3  A    between atoms: N1_3  and  C13_19 
REMARK    4  A    between atoms: P1_4  and  C3_5 
REMARK    5  A    between atoms: C7_11  and  O1_12 
REMARK    6  A    between atoms: C9_14  and  O2_15 
ROOT
HETATM    1  C3  UNL     1      23.013   2.408  52.248  1.00  0.00     0.092 A 
HETATM    2  N2  UNL     1      22.634   3.267  51.272  1.00  0.00    -0.239 NA
HETATM    3  C4  UNL     1      21.421   3.207  50.686  1.00  0.00     0.234 A 
HETATM    4  N3  UNL     1      20.478   2.284  51.020  1.00  0.00    -0.241 NA
HETATM    5  C5  UNL     1      20.794   1.400  51.985  1.00  0.00     0.073 A 
HETATM    6  C6  UNL     1      19.893   0.432  52.382  1.00  0.00     0.072 A 
HETATM    7  C7  UNL     1      20.178  -0.493  53.367  1.00  0.00     0.103 A 
HETATM    8  C9  UNL     1      21.420  -0.425  53.962  1.00  0.00     0.102 A 
HETATM    9  C11 UNL     1      22.323   0.555  53.555  1.00  0.00     0.055 A 
HETATM   10  C12 UNL     1      22.046   1.477  52.577  1.00  0.00     0.026 A 
ENDROOT
BRANCH   1  11
HETATM   11  P1  UNL     1      24.641   2.498  53.027  1.00  0.00     0.028 P 
HETATM   12  H6  UNL     1      24.797   3.651  53.892  1.00  0.00     0.087 HD
BRANCH  11  13
HETATM   13  N1  UNL     1      26.003   2.335  51.884  1.00  0.00    -0.356 N 
BRANCH  13  14
HETATM   14  C2  UNL     1      26.499   2.651  50.571  1.00  0.00     0.123 C 
HETATM   15  C1  UNL     1      26.030   4.028  50.115  1.00  0.00     0.027 C 
ENDBRANCH  13  14
BRANCH  13  16
HETATM   16  C13 UNL     1      27.021   1.581  52.544  1.00  0.00     0.014 A 
HETATM   17  C14 UNL     1      27.153   0.261  52.597  1.00  0.00     0.025 A 
HETATM   18  C15 UNL     1      28.346  -0.080  53.384  1.00  0.00    -0.002 A 
HETATM   19  C16 UNL     1      28.890   1.068  53.780  1.00  0.00    -0.021 A 
HETATM   20  C17 UNL     1      28.124   2.251  53.300  1.00  0.00     0.084 A 
ENDBRANCH  13  16
ENDBRANCH  11  13
ENDBRANCH   1  11
BRANCH   8  21
HETATM   21  O2  UNL     1      21.722  -1.341  54.947  1.00  0.00    -0.353 OA
HETATM   22  C10 UNL     1      23.011  -1.501  55.495  1.00  0.00     0.210 C 
ENDBRANCH   8  21
BRANCH   7  23
HETATM   23  O1  UNL     1      19.284  -1.471  53.777  1.00  0.00    -0.353 OA
HETATM   24  C8  UNL     1      17.956  -1.458  53.290  1.00  0.00     0.210 C 
ENDBRANCH   7  23
TORSDOF 6
ENDMDL
MODEL 7
REMARK VINA RESULT:      -6.8      2.871      4.362
REMARK  6 active torsions:
REMARK  status: ('A' for Active; 'I' for Inactive)
REMARK    1  A    between atoms: C2_2  and  N1_3 
REMARK    2  A    between atoms: N1_3  and  P1_4 
REMARK    3  A    between atoms: N1_3  and  C13_19 
REMARK    4  A    between atoms: P1_4  and  C3_5 
REMARK    5  A    between atoms: C7_11  and  O1_12 
REMARK    6  A    between atoms: C9_14  and  O2_15 
ROOT
HETATM    1  C3  UNL     1      25.952   2.456  51.147  1.00  0.00     0.092 A 
HETATM    2  N2  UNL     1      27.183   2.495  51.711  1.00  0.00    -0.239 NA
HETATM    3  C4  UNL     1      27.495   1.792  52.818  1.00  0.00     0.234 A 
HETATM    4  N3  UNL     1      26.606   0.986  53.461  1.00  0.00    -0.241 NA
HETATM    5  C5  UNL     1      25.363   0.903  52.950  1.00  0.00     0.073 A 
HETATM    6  C6  UNL     1      24.404   0.109  53.544  1.00  0.00     0.072 A 
HETATM    7  C7  UNL     1      23.118  -0.003  53.051  1.00  0.00     0.103 A 
HETATM    8  C9  UNL     1      22.808   0.720  51.919  1.00  0.00     0.102 A 
HETATM    9  C11 UNL     1      23.783   1.519  51.326  1.00  0.00     0.055 A 
HETATM   10  C12 UNL     1      25.061   1.635  51.811  1.00  0.00     0.026 A 
ENDROOT
BRANCH   1  11
HETATM   11  P1  UNL     1      25.546   3.404  49.663  1.00  0.00     0.028 P 
HETATM   12  H6  UNL     1      26.373   3.060  48.522  1.00  0.00     0.087 HD
BRANCH  11  13
HETATM   13  N1  UNL     1      25.475   5.169  49.925  1.00  0.00    -0.356 N 
BRANCH  13  14
HETATM   14  C2  UNL     1      24.774   6.250  50.564  1.00  0.00     0.123 C 
HETATM   15  C1  UNL     1      23.674   5.733  51.485  1.00  0.00     0.027 C 
ENDBRANCH  13  14
BRANCH  13  16
HETATM   16  C13 UNL     1      26.564   5.747  49.203  1.00  0.00     0.014 A 
HETATM   17  C14 UNL     1      26.758   7.027  48.908  1.00  0.00     0.025 A 
HETATM   18  C15 UNL     1      28.011   7.170  48.152  1.00  0.00    -0.002 A 
HETATM   19  C16 UNL     1      28.526   5.950  48.021  1.00  0.00    -0.021 A 
HETATM   20  C17 UNL     1      27.679   4.908  48.666  1.00  0.00     0.084 A 
ENDBRANCH  13  16
ENDBRANCH  11  13
ENDBRANCH   1  11
BRANCH   8  21
HETATM   21  O2  UNL     1      21.529   0.620  51.412  1.00  0.00    -0.353 OA
HETATM   22  C10 UNL     1      20.556   1.631  51.549  1.00  0.00     0.210 C 
ENDBRANCH   8  21
BRANCH   7  23
HETATM   23  O1  UNL     1      22.143  -0.798  53.636  1.00  0.00    -0.353 OA
HETATM   24  C8  UNL     1      21.471  -0.347  54.795  1.00  0.00     0.210 C 
ENDBRANCH   7  23
TORSDOF 6
ENDMDL
MODEL 8
REMARK VINA RESULT:      -6.8      1.665      2.138
REMARK  6 active torsions:
REMARK  status: ('A' for Active; 'I' for Inactive)
REMARK    1  A    between atoms: C2_2  and  N1_3 
REMARK    2  A    between atoms: N1_3  and  P1_4 
REMARK    3  A    between atoms: N1_3  and  C13_19 
REMARK    4  A    between atoms: P1_4  and  C3_5 
REMARK    5  A    between atoms: C7_11  and  O1_12 
REMARK    6  A    between atoms: C9_14  and  O2_15 
ROOT
HETATM    1  C3  UNL     1      22.614   2.064  50.631  1.00  0.00     0.092 A 
HETATM    2  N2  UNL     1      21.277   1.873  50.736  1.00  0.00    -0.239 NA
HETATM    3  C4  UNL     1      20.734   1.041  51.648  1.00  0.00     0.234 A 
HETATM    4  N3  UNL     1      21.476   0.326  52.537  1.00  0.00    -0.241 NA
HETATM    5  C5  UNL     1      22.814   0.472  52.484  1.00  0.00     0.073 A 
HETATM    6  C6  UNL     1      23.636  -0.219  53.351  1.00  0.00     0.072 A 
HETATM    7  C7  UNL     1      25.013  -0.097  53.329  1.00  0.00     0.103 A 
HETATM    8  C9  UNL     1      25.559   0.755  52.394  1.00  0.00     0.102 A 
HETATM    9  C11 UNL     1      24.721   1.448  51.523  1.00  0.00     0.055 A 
HETATM   10  C12 UNL     1      23.354   1.331  51.539  1.00  0.00     0.026 A 
ENDROOT
BRANCH   1  11
HETATM   11  P1  UNL     1      23.330   3.181  49.405  1.00  0.00     0.028 P 
HETATM   12  H6  UNL     1      24.272   2.526  48.518  1.00  0.00     0.087 HD
BRANCH  11  13
HETATM   13  N1  UNL     1      24.003   4.684  50.096  1.00  0.00    -0.356 N 
BRANCH  13  14
HETATM   14  C2  UNL     1      23.770   5.797  50.976  1.00  0.00     0.123 C 
HETATM   15  C1  UNL     1      22.288   5.951  51.300  1.00  0.00     0.027 C 
ENDBRANCH  13  14
BRANCH  13  16
HETATM   16  C13 UNL     1      25.313   4.850  49.551  1.00  0.00     0.014 A 
HETATM   17  C14 UNL     1      26.279   3.944  49.460  1.00  0.00     0.025 A 
HETATM   18  C15 UNL     1      27.460   4.550  48.829  1.00  0.00    -0.002 A 
HETATM   19  C16 UNL     1      27.152   5.816  48.565  1.00  0.00    -0.021 A 
HETATM   20  C17 UNL     1      25.765   6.158  48.985  1.00  0.00     0.084 A 
ENDBRANCH  13  16
ENDBRANCH  11  13
ENDBRANCH   1  11
BRANCH   8  21
HETATM   21  O2  UNL     1      26.931   0.889  52.358  1.00  0.00    -0.353 OA
HETATM   22  C10 UNL     1      27.610   2.065  52.736  1.00  0.00     0.210 C 
ENDBRANCH   8  21
BRANCH   7  23
HETATM   23  O1  UNL     1      25.853  -0.784  54.193  1.00  0.00    -0.353 OA
HETATM   24  C8  UNL     1      26.228  -0.196  55.424  1.00  0.00     0.210 C 
ENDBRANCH   7  23
TORSDOF 6
ENDMDL
MODEL 9
REMARK VINA RESULT:      -6.7      2.851      4.500
REMARK  6 active torsions:
REMARK  status: ('A' for Active; 'I' for Inactive)
REMARK    1  A    between atoms: C2_2  and  N1_3 
REMARK    2  A    between atoms: N1_3  and  P1_4 
REMARK    3  A    between atoms: N1_3  and  C13_19 
REMARK    4  A    between atoms: P1_4  and  C3_5 
REMARK    5  A    between atoms: C7_11  and  O1_12 
REMARK    6  A    between atoms: C9_14  and  O2_15 
ROOT
HETATM    1  C3  UNL     1      26.263   2.404  51.398  1.00  0.00     0.092 A 
HETATM    2  N2  UNL     1      27.481   2.471  51.988  1.00  0.00    -0.239 NA
HETATM    3  C4  UNL     1      27.787   1.772  53.099  1.00  0.00     0.234 A 
HETATM    4  N3  UNL     1      26.905   0.942  53.722  1.00  0.00    -0.241 NA
HETATM    5  C5  UNL     1      25.675   0.832  53.184  1.00  0.00     0.073 A 
HETATM    6  C6  UNL     1      24.724   0.012  53.756  1.00  0.00     0.072 A 
HETATM    7  C7  UNL     1      23.452  -0.130  53.236  1.00  0.00     0.103 A 
HETATM    8  C9  UNL     1      23.147   0.589  52.100  1.00  0.00     0.102 A 
HETATM    9  C11 UNL     1      24.114   1.414  51.530  1.00  0.00     0.055 A 
HETATM   10  C12 UNL     1      25.379   1.559  52.042  1.00  0.00     0.026 A 
ENDROOT
BRANCH   1  11
HETATM   11  P1  UNL     1      25.865   3.347  49.910  1.00  0.00     0.028 P 
HETATM   12  H6  UNL     1      26.935   3.345  48.930  1.00  0.00     0.087 HD
BRANCH  11  13
HETATM   13  N1  UNL     1      25.263   4.996  50.233  1.00  0.00    -0.356 N 
BRANCH  13  14
HETATM   14  C2  UNL     1      25.539   6.404  50.134  1.00  0.00     0.123 C 
HETATM   15  C1  UNL     1      26.501   6.705  48.989  1.00  0.00     0.027 C 
ENDBRANCH  13  14
BRANCH  13  16
HETATM   16  C13 UNL     1      23.977   4.865  50.840  1.00  0.00     0.014 A 
HETATM   17  C14 UNL     1      23.658   5.029  52.119  1.00  0.00     0.025 A 
HETATM   18  C15 UNL     1      22.218   4.796  52.298  1.00  0.00    -0.002 A 
HETATM   19  C16 UNL     1      21.722   4.497  51.101  1.00  0.00    -0.021 A 
HETATM   20  C17 UNL     1      22.767   4.504  50.039  1.00  0.00     0.084 A 
ENDBRANCH  13  16
ENDBRANCH  11  13
ENDBRANCH   1  11
BRANCH   8  21
HETATM   21  O2  UNL     1      21.882   0.461  51.567  1.00  0.00    -0.353 OA
HETATM   22  C10 UNL     1      21.546   0.848  50.254  1.00  0.00     0.210 C 
ENDBRANCH   8  21
BRANCH   7  23
HETATM   23  O1  UNL     1      22.484  -0.949  53.798  1.00  0.00    -0.353 OA
HETATM   24  C8  UNL     1      21.656  -0.453  54.832  1.00  0.00     0.210 C 
ENDBRANCH   7  23
TORSDOF 6
ENDMDL
