MODEL 1
REMARK VINA RESULT:      -7.6      0.000      0.000
REMARK  6 active torsions:
REMARK  status: ('A' for Active; 'I' for Inactive)
REMARK    1  A    between atoms: C2_2  and  N1_3 
REMARK    2  A    between atoms: N1_3  and  C3_4 
REMARK    3  A    between atoms: N1_3  and  C5_6 
REMARK    4  A    between atoms: C5_6  and  C6_7 
REMARK    5  A    between atoms: C10_13  and  N4_14 
REMARK    6  A    between atoms: N4_14  and  C11_15 
REMARK       I    between atoms: N6_25  and  C18_26 
ROOT
HETATM    1  C6  UNL     1      20.971   1.693  51.409  1.00  0.00     0.158 C 
HETATM    2  C7  UNL     1      21.132   0.698  52.560  1.00  0.00     0.058 A 
HETATM    3  C8  UNL     1      20.087  -0.213  52.773  1.00  0.00     0.138 A 
HETATM    4  N2  UNL     1      20.130  -1.142  53.773  1.00  0.00    -0.224 NA
HETATM    5  C9  UNL     1      21.208  -1.173  54.566  1.00  0.00     0.237 A 
HETATM    6  N3  UNL     1      22.184  -0.305  54.348  1.00  0.00    -0.224 NA
HETATM    7  C10 UNL     1      22.233   0.635  53.400  1.00  0.00     0.141 A 
HETATM    8  N5  UNL     1      18.921  -0.192  51.919  1.00  0.00    -0.358 N 
HETATM    9  C17 UNL     1      18.473   1.140  51.505  1.00  0.00     0.251 C 
HETATM   10  N6  UNL     1      19.599   2.040  51.426  1.00  0.00    -0.325 N 
HETATM   11  C18 UNL     1      19.175   3.422  51.406  1.00  0.00     0.217 C 
HETATM   12  C19 UNL     1      17.770   3.898  51.457  1.00  0.00     0.117 C 
HETATM   13  O1  UNL     1      20.088   4.307  51.339  1.00  0.00    -0.274 OA
HETATM   14  H19 UNL     1      18.481  -1.104  51.656  1.00  0.00     0.162 HD
ENDROOT
BRANCH   7  15
HETATM   15  N4  UNL     1      23.307   1.533  53.188  1.00  0.00    -0.340 N 
HETATM   16  H15 UNL     1      23.130   2.532  53.009  1.00  0.00     0.167 HD
BRANCH  15  17
HETATM   17  C11 UNL     1      24.692   1.241  53.184  1.00  0.00     0.035 A 
HETATM   18  C12 UNL     1      25.668   2.156  53.491  1.00  0.00     0.032 A 
HETATM   19  C13 UNL     1      27.020   1.903  53.505  1.00  0.00     0.046 A 
HETATM   20  C14 UNL     1      27.461   0.638  53.191  1.00  0.00     0.138 A 
HETATM   21  F1  UNL     1      28.778   0.319  53.187  1.00  0.00    -0.204 F 
HETATM   22  C15 UNL     1      26.532  -0.327  52.875  1.00  0.00     0.074 A 
HETATM   23 CL1  UNL     1      27.012  -1.965  52.464  1.00  0.00    -0.081 Cl
HETATM   24  C16 UNL     1      25.197  -0.005  52.880  1.00  0.00     0.056 A 
ENDBRANCH  15  17
ENDBRANCH   7  15
BRANCH   1  25
HETATM   25  C5  UNL     1      21.574   1.016  50.247  1.00  0.00     0.302 C 
BRANCH  25  26
HETATM   26  N1  UNL     1      22.340   1.736  49.300  1.00  0.00     0.090 N 
BRANCH  26  27
HETATM   27  C2  UNL     1      21.438   2.008  48.168  1.00  0.00     0.268 C 
HETATM   28  C1  UNL     1      21.965   2.997  47.199  1.00  0.00     0.037 C 
ENDBRANCH  26  27
BRANCH  26  29
HETATM   29  C3  UNL     1      22.866   2.970  49.799  1.00  0.00     0.268 C 
HETATM   30  C4  UNL     1      24.359   3.004  49.979  1.00  0.00     0.037 C 
ENDBRANCH  26  29
ENDBRANCH  25  26
ENDBRANCH   1  25
TORSDOF 6
ENDMDL
MODEL 2
REMARK VINA RESULT:      -7.5      2.889      5.531
REMARK  6 active torsions:
REMARK  status: ('A' for Active; 'I' for Inactive)
REMARK    1  A    between atoms: C2_2  and  N1_3 
REMARK    2  A    between atoms: N1_3  and  C3_4 
REMARK    3  A    between atoms: N1_3  and  C5_6 
REMARK    4  A    between atoms: C5_6  and  C6_7 
REMARK    5  A    between atoms: C10_13  and  N4_14 
REMARK    6  A    between atoms: N4_14  and  C11_15 
REMARK       I    between atoms: N6_25  and  C18_26 
ROOT
HETATM    1  C6  UNL     1      23.934   4.064  49.995  1.00  0.00     0.158 C 
HETATM    2  C7  UNL     1      25.346   4.395  49.509  1.00  0.00     0.058 A 
HETATM    3  C8  UNL     1      25.565   5.683  48.999  1.00  0.00     0.138 A 
HETATM    4  N2  UNL     1      26.788   6.080  48.538  1.00  0.00    -0.224 NA
HETATM    5  C9  UNL     1      27.799   5.205  48.583  1.00  0.00     0.237 A 
HETATM    6  N3  UNL     1      27.572   3.994  49.069  1.00  0.00    -0.224 NA
HETATM    7  C10 UNL     1      26.417   3.516  49.541  1.00  0.00     0.141 A 
HETATM    8  N5  UNL     1      24.482   6.639  48.952  1.00  0.00    -0.358 N 
HETATM    9  C17 UNL     1      23.170   6.080  48.615  1.00  0.00     0.251 C 
HETATM   10  N6  UNL     1      23.078   4.715  49.075  1.00  0.00    -0.325 N 
HETATM   11  C18 UNL     1      21.986   4.012  48.439  1.00  0.00     0.217 C 
HETATM   12  C19 UNL     1      21.053   4.585  47.437  1.00  0.00     0.117 C 
HETATM   13  O1  UNL     1      21.811   2.795  48.770  1.00  0.00    -0.274 OA
HETATM   14  H19 UNL     1      24.695   7.642  49.158  1.00  0.00     0.162 HD
ENDROOT
BRANCH   7  15
HETATM   15  N4  UNL     1      26.221   2.218  50.070  1.00  0.00    -0.340 N 
HETATM   16  H15 UNL     1      25.671   1.516  49.555  1.00  0.00     0.167 HD
BRANCH  15  17
HETATM   17  C11 UNL     1      26.703   1.701  51.297  1.00  0.00     0.035 A 
HETATM   18  C12 UNL     1      27.168   2.482  52.327  1.00  0.00     0.032 A 
HETATM   19  C13 UNL     1      27.634   2.014  53.533  1.00  0.00     0.046 A 
HETATM   20  C14 UNL     1      27.646   0.656  53.757  1.00  0.00     0.138 A 
HETATM   21  F1  UNL     1      28.089   0.126  54.922  1.00  0.00    -0.204 F 
HETATM   22  C15 UNL     1      27.193  -0.182  52.764  1.00  0.00     0.074 A 
HETATM   23 CL1  UNL     1      27.175  -1.926  52.971  1.00  0.00    -0.081 Cl
HETATM   24  C16 UNL     1      26.742   0.354  51.583  1.00  0.00     0.056 A 
ENDBRANCH  15  17
ENDBRANCH   7  15
BRANCH   1  25
HETATM   25  C5  UNL     1      23.938   4.427  51.424  1.00  0.00     0.302 C 
BRANCH  25  26
HETATM   26  N1  UNL     1      23.131   3.733  52.355  1.00  0.00     0.090 N 
BRANCH  26  27
HETATM   27  C2  UNL     1      21.818   4.399  52.332  1.00  0.00     0.268 C 
HETATM   28  C1  UNL     1      20.691   3.503  51.983  1.00  0.00     0.037 C 
ENDBRANCH  26  27
BRANCH  26  29
HETATM   29  C3  UNL     1      22.966   2.343  52.055  1.00  0.00     0.268 C 
HETATM   30  C4  UNL     1      23.532   1.396  53.078  1.00  0.00     0.037 C 
ENDBRANCH  26  29
ENDBRANCH  25  26
ENDBRANCH   1  25
TORSDOF 6
ENDMDL
MODEL 3
REMARK VINA RESULT:      -7.3      2.620      4.963
REMARK  6 active torsions:
REMARK  status: ('A' for Active; 'I' for Inactive)
REMARK    1  A    between atoms: C2_2  and  N1_3 
REMARK    2  A    between atoms: N1_3  and  C3_4 
REMARK    3  A    between atoms: N1_3  and  C5_6 
REMARK    4  A    between atoms: C5_6  and  C6_7 
REMARK    5  A    between atoms: C10_13  and  N4_14 
REMARK    6  A    between atoms: N4_14  and  C11_15 
REMARK       I    between atoms: N6_25  and  C18_26 
ROOT
HETATM    1  C6  UNL     1      23.477   3.800  50.709  1.00  0.00     0.158 C 
HETATM    2  C7  UNL     1      22.289   2.974  50.211  1.00  0.00     0.058 A 
HETATM    3  C8  UNL     1      22.045   2.965  48.830  1.00  0.00     0.138 A 
HETATM    4  N2  UNL     1      21.011   2.261  48.283  1.00  0.00    -0.224 NA
HETATM    5  C9  UNL     1      20.215   1.562  49.100  1.00  0.00     0.237 A 
HETATM    6  N3  UNL     1      20.463   1.582  50.401  1.00  0.00    -0.224 NA
HETATM    7  C10 UNL     1      21.445   2.237  51.027  1.00  0.00     0.141 A 
HETATM    8  N5  UNL     1      22.902   3.712  47.938  1.00  0.00    -0.358 N 
HETATM    9  C17 UNL     1      23.366   5.003  48.452  1.00  0.00     0.251 C 
HETATM   10  N6  UNL     1      23.475   4.955  49.890  1.00  0.00    -0.325 N 
HETATM   11  C18 UNL     1      23.548   6.280  50.463  1.00  0.00     0.217 C 
HETATM   12  C19 UNL     1      23.519   7.555  49.704  1.00  0.00     0.117 C 
HETATM   13  O1  UNL     1      23.646   6.358  51.731  1.00  0.00    -0.274 OA
HETATM   14  H19 UNL     1      23.132   3.296  47.006  1.00  0.00     0.162 HD
ENDROOT
BRANCH   7  15
HETATM   15  N4  UNL     1      21.686   2.216  52.421  1.00  0.00    -0.340 N 
HETATM   16  H15 UNL     1      21.640   3.083  52.976  1.00  0.00     0.167 HD
BRANCH  15  17
HETATM   17  C11 UNL     1      22.009   1.098  53.228  1.00  0.00     0.035 A 
HETATM   18  C12 UNL     1      21.086   0.387  53.955  1.00  0.00     0.032 A 
HETATM   19  C13 UNL     1      21.365  -0.707  54.740  1.00  0.00     0.046 A 
HETATM   20  C14 UNL     1      22.665  -1.150  54.823  1.00  0.00     0.138 A 
HETATM   21  F1  UNL     1      23.010  -2.222  55.577  1.00  0.00    -0.204 F 
HETATM   22  C15 UNL     1      23.638  -0.480  54.118  1.00  0.00     0.074 A 
HETATM   23 CL1  UNL     1      25.321  -0.981  54.171  1.00  0.00    -0.081 Cl
HETATM   24  C16 UNL     1      23.290   0.606  53.354  1.00  0.00     0.056 A 
ENDBRANCH  15  17
ENDBRANCH   7  15
BRANCH   1  25
HETATM   25  C5  UNL     1      24.611   2.859  50.703  1.00  0.00     0.302 C 
BRANCH  25  26
HETATM   26  N1  UNL     1      25.945   3.325  50.764  1.00  0.00     0.090 N 
BRANCH  26  27
HETATM   27  C2  UNL     1      26.628   2.477  51.755  1.00  0.00     0.268 C 
HETATM   28  C1  UNL     1      26.501   1.023  51.496  1.00  0.00     0.037 C 
ENDBRANCH  26  27
BRANCH  26  29
HETATM   29  C3  UNL     1      26.640   3.255  49.515  1.00  0.00     0.268 C 
HETATM   30  C4  UNL     1      27.081   4.578  48.951  1.00  0.00     0.037 C 
ENDBRANCH  26  29
ENDBRANCH  25  26
ENDBRANCH   1  25
TORSDOF 6
ENDMDL
MODEL 4
REMARK VINA RESULT:      -7.1      1.914      2.528
REMARK  6 active torsions:
REMARK  status: ('A' for Active; 'I' for Inactive)
REMARK    1  A    between atoms: C2_2  and  N1_3 
REMARK    2  A    between atoms: N1_3  and  C3_4 
REMARK    3  A    between atoms: N1_3  and  C5_6 
REMARK    4  A    between atoms: C5_6  and  C6_7 
REMARK    5  A    between atoms: C10_13  and  N4_14 
REMARK    6  A    between atoms: N4_14  and  C11_15 
REMARK       I    between atoms: N6_25  and  C18_26 
ROOT
HETATM    1  C6  UNL     1      22.494   1.884  51.285  1.00  0.00     0.158 C 
HETATM    2  C7  UNL     1      22.471   0.994  52.529  1.00  0.00     0.058 A 
HETATM    3  C8  UNL     1      21.314   1.023  53.320  1.00  0.00     0.138 A 
HETATM    4  N2  UNL     1      21.191   0.268  54.451  1.00  0.00    -0.224 NA
HETATM    5  C9  UNL     1      22.214  -0.521  54.803  1.00  0.00     0.237 A 
HETATM    6  N3  UNL     1      23.298  -0.534  54.043  1.00  0.00    -0.224 NA
HETATM    7  C10 UNL     1      23.510   0.165  52.924  1.00  0.00     0.141 A 
HETATM    8  N5  UNL     1      20.200   1.866  52.946  1.00  0.00    -0.358 N 
HETATM    9  C17 UNL     1      20.565   3.166  52.376  1.00  0.00     0.251 C 
HETATM   10  N6  UNL     1      21.826   3.067  51.681  1.00  0.00    -0.325 N 
HETATM   11  C18 UNL     1      22.406   4.370  51.446  1.00  0.00     0.217 C 
HETATM   12  C19 UNL     1      21.812   5.669  51.849  1.00  0.00     0.117 C 
HETATM   13  O1  UNL     1      23.525   4.405  50.838  1.00  0.00    -0.274 OA
HETATM   14  H19 UNL     1      19.230   1.505  53.099  1.00  0.00     0.162 HD
ENDROOT
BRANCH   7  15
HETATM   15  N4  UNL     1      24.679   0.106  52.129  1.00  0.00    -0.340 N 
HETATM   16  H15 UNL     1      24.617   0.124  51.100  1.00  0.00     0.167 HD
BRANCH  15  17
HETATM   17  C11 UNL     1      26.022   0.016  52.568  1.00  0.00     0.035 A 
HETATM   18  C12 UNL     1      26.711  -1.166  52.685  1.00  0.00     0.032 A 
HETATM   19  C13 UNL     1      28.017  -1.287  53.099  1.00  0.00     0.046 A 
HETATM   20  C14 UNL     1      28.717  -0.149  53.428  1.00  0.00     0.138 A 
HETATM   21  F1  UNL     1      30.006  -0.195  53.841  1.00  0.00    -0.204 F 
HETATM   22  C15 UNL     1      28.083   1.068  53.331  1.00  0.00     0.074 A 
HETATM   23 CL1  UNL     1      28.905   2.568  53.732  1.00  0.00    -0.081 Cl
HETATM   24  C16 UNL     1      26.776   1.117  52.911  1.00  0.00     0.056 A 
ENDBRANCH  15  17
ENDBRANCH   7  15
BRANCH   1  25
HETATM   25  C5  UNL     1      21.962   1.030  50.208  1.00  0.00     0.302 C 
BRANCH  25  26
HETATM   26  N1  UNL     1      21.933   1.480  48.867  1.00  0.00     0.090 N 
BRANCH  26  27
HETATM   27  C2  UNL     1      20.579   2.013  48.646  1.00  0.00     0.268 C 
HETATM   28  C1  UNL     1      19.526   1.340  49.442  1.00  0.00     0.037 C 
ENDBRANCH  26  27
BRANCH  26  29
HETATM   29  C3  UNL     1      22.900   2.495  48.577  1.00  0.00     0.268 C 
HETATM   30  C4  UNL     1      22.399   3.632  47.729  1.00  0.00     0.037 C 
ENDBRANCH  26  29
ENDBRANCH  25  26
ENDBRANCH   1  25
TORSDOF 6
ENDMDL
MODEL 5
REMARK VINA RESULT:      -7.0      2.208      4.114
REMARK  6 active torsions:
REMARK  status: ('A' for Active; 'I' for Inactive)
REMARK    1  A    between atoms: C2_2  and  N1_3 
REMARK    2  A    between atoms: N1_3  and  C3_4 
REMARK    3  A    between atoms: N1_3  and  C5_6 
REMARK    4  A    between atoms: C5_6  and  C6_7 
REMARK    5  A    between atoms: C10_13  and  N4_14 
REMARK    6  A    between atoms: N4_14  and  C11_15 
REMARK       I    between atoms: N6_25  and  C18_26 
ROOT
HETATM    1  C6  UNL     1      22.236   1.764  50.061  1.00  0.00     0.158 C 
HETATM    2  C7  UNL     1      22.771   2.676  51.166  1.00  0.00     0.058 A 
HETATM    3  C8  UNL     1      21.960   3.750  51.562  1.00  0.00     0.138 A 
HETATM    4  N2  UNL     1      22.342   4.624  52.538  1.00  0.00    -0.224 NA
HETATM    5  C9  UNL     1      23.529   4.439  53.128  1.00  0.00     0.237 A 
HETATM    6  N3  UNL     1      24.280   3.419  52.740  1.00  0.00    -0.224 NA
HETATM    7  C10 UNL     1      23.993   2.515  51.799  1.00  0.00     0.141 A 
HETATM    8  N5  UNL     1      20.673   3.956  50.936  1.00  0.00    -0.358 N 
HETATM    9  C17 UNL     1      20.623   3.671  49.500  1.00  0.00     0.251 C 
HETATM   10  N6  UNL     1      21.574   2.637  49.166  1.00  0.00    -0.325 N 
HETATM   11  C18 UNL     1      21.838   2.597  47.745  1.00  0.00     0.217 C 
HETATM   12  C19 UNL     1      21.229   3.486  46.725  1.00  0.00     0.117 C 
HETATM   13  O1  UNL     1      22.666   1.720  47.334  1.00  0.00    -0.274 OA
HETATM   14  H19 UNL     1      19.878   4.285  51.531  1.00  0.00     0.162 HD
ENDROOT
BRANCH   7  15
HETATM   15  N4  UNL     1      24.818   1.427  51.428  1.00  0.00    -0.340 N 
HETATM   16  H15 UNL     1      24.623   0.886  50.573  1.00  0.00     0.167 HD
BRANCH  15  17
HETATM   17  C11 UNL     1      25.955   0.929  52.110  1.00  0.00     0.035 A 
HETATM   18  C12 UNL     1      26.217  -0.407  52.286  1.00  0.00     0.032 A 
HETATM   19  C13 UNL     1      27.315  -0.923  52.934  1.00  0.00     0.046 A 
HETATM   20  C14 UNL     1      28.245  -0.054  53.458  1.00  0.00     0.138 A 
HETATM   21  F1  UNL     1      29.350  -0.494  54.107  1.00  0.00    -0.204 F 
HETATM   22  C15 UNL     1      28.040   1.299  53.315  1.00  0.00     0.074 A 
HETATM   23 CL1  UNL     1      29.179   2.474  53.955  1.00  0.00    -0.081 Cl
HETATM   24  C16 UNL     1      26.921   1.746  52.656  1.00  0.00     0.056 A 
ENDBRANCH  15  17
ENDBRANCH   7  15
BRANCH   1  25
HETATM   25  C5  UNL     1      21.505   0.703  50.777  1.00  0.00     0.302 C 
BRANCH  25  26
HETATM   26  N1  UNL     1      21.452   0.681  52.190  1.00  0.00     0.090 N 
BRANCH  26  27
HETATM   27  C2  UNL     1      20.029   0.809  52.546  1.00  0.00     0.268 C 
HETATM   28  C1  UNL     1      19.412  -0.449  53.032  1.00  0.00     0.037 C 
ENDBRANCH  26  27
BRANCH  26  29
HETATM   29  C3  UNL     1      21.984  -0.515  52.770  1.00  0.00     0.268 C 
HETATM   30  C4  UNL     1      22.908  -0.303  53.939  1.00  0.00     0.037 C 
ENDBRANCH  26  29
ENDBRANCH  25  26
ENDBRANCH   1  25
TORSDOF 6
ENDMDL
MODEL 6
REMARK VINA RESULT:      -6.9      3.040      4.976
REMARK  6 active torsions:
REMARK  status: ('A' for Active; 'I' for Inactive)
REMARK    1  A    between atoms: C2_2  and  N1_3 
REMARK    2  A    between atoms: N1_3  and  C3_4 
REMARK    3  A    between atoms: N1_3  and  C5_6 
REMARK    4  A    between atoms: C5_6  and  C6_7 
REMARK    5  A    between atoms: C10_13  and  N4_14 
REMARK    6  A    between atoms: N4_14  and  C11_15 
REMARK       I    between atoms: N6_25  and  C18_26 
ROOT
HETATM    1  C6  UNL     1      24.398   3.607  49.367  1.00  0.00     0.158 C 
HETATM    2  C7  UNL     1      23.472   3.966  50.531  1.00  0.00     0.058 A 
HETATM    3  C8  UNL     1      22.852   5.223  50.495  1.00  0.00     0.138 A 
HETATM    4  N2  UNL     1      22.008   5.641  51.484  1.00  0.00    -0.224 NA
HETATM    5  C9  UNL     1      21.774   4.816  52.511  1.00  0.00     0.237 A 
HETATM    6  N3  UNL     1      22.369   3.633  52.526  1.00  0.00    -0.224 NA
HETATM    7  C10 UNL     1      23.206   3.138  51.610  1.00  0.00     0.141 A 
HETATM    8  N5  UNL     1      23.092   6.119  49.387  1.00  0.00    -0.358 N 
HETATM    9  C17 UNL     1      24.463   6.117  48.868  1.00  0.00     0.251 C 
HETATM   10  N6  UNL     1      25.062   4.817  49.053  1.00  0.00    -0.325 N 
HETATM   11  C18 UNL     1      26.501   4.871  48.922  1.00  0.00     0.217 C 
HETATM   12  C19 UNL     1      27.299   6.088  48.631  1.00  0.00     0.117 C 
HETATM   13  O1  UNL     1      27.137   3.777  49.068  1.00  0.00    -0.274 OA
HETATM   14  H19 UNL     1      22.295   6.697  49.033  1.00  0.00     0.162 HD
ENDROOT
BRANCH   7  15
HETATM   15  N4  UNL     1      23.806   1.857  51.655  1.00  0.00    -0.340 N 
HETATM   16  H15 UNL     1      23.532   1.123  50.986  1.00  0.00     0.167 HD
BRANCH  15  17
HETATM   17  C11 UNL     1      24.800   1.397  52.552  1.00  0.00     0.035 A 
HETATM   18  C12 UNL     1      24.656   0.290  53.352  1.00  0.00     0.032 A 
HETATM   19  C13 UNL     1      25.604  -0.188  54.226  1.00  0.00     0.046 A 
HETATM   20  C14 UNL     1      26.806   0.475  54.329  1.00  0.00     0.138 A 
HETATM   21  F1  UNL     1      27.784   0.057  55.168  1.00  0.00    -0.204 F 
HETATM   22  C15 UNL     1      27.014   1.592  53.554  1.00  0.00     0.074 A 
HETATM   23 CL1  UNL     1      28.519   2.494  53.625  1.00  0.00    -0.081 Cl
HETATM   24  C16 UNL     1      26.023   2.015  52.701  1.00  0.00     0.056 A 
ENDBRANCH  15  17
ENDBRANCH   7  15
BRANCH   1  25
HETATM   25  C5  UNL     1      23.522   2.939  48.388  1.00  0.00     0.302 C 
BRANCH  25  26
HETATM   26  N1  UNL     1      22.150   2.729  48.662  1.00  0.00     0.090 N 
BRANCH  26  27
HETATM   27  C2  UNL     1      21.410   3.476  47.631  1.00  0.00     0.268 C 
HETATM   28  C1  UNL     1      22.109   3.560  46.327  1.00  0.00     0.037 C 
ENDBRANCH  26  27
BRANCH  26  29
HETATM   29  C3  UNL     1      21.757   1.353  48.628  1.00  0.00     0.268 C 
HETATM   30  C4  UNL     1      20.877   0.910  49.764  1.00  0.00     0.037 C 
ENDBRANCH  26  29
ENDBRANCH  25  26
ENDBRANCH   1  25
TORSDOF 6
ENDMDL
MODEL 7
REMARK VINA RESULT:      -6.9      2.481      3.786
REMARK  6 active torsions:
REMARK  status: ('A' for Active; 'I' for Inactive)
REMARK    1  A    between atoms: C2_2  and  N1_3 
REMARK    2  A    between atoms: N1_3  and  C3_4 
REMARK    3  A    between atoms: N1_3  and  C5_6 
REMARK    4  A    between atoms: C5_6  and  C6_7 
REMARK    5  A    between atoms: C10_13  and  N4_14 
REMARK    6  A    between atoms: N4_14  and  C11_15 
REMARK       I    between atoms: N6_25  and  C18_26 
ROOT
HETATM    1  C6  UNL     1      23.025   3.962  50.147  1.00  0.00     0.158 C 
HETATM    2  C7  UNL     1      22.156   3.235  51.175  1.00  0.00     0.058 A 
HETATM    3  C8  UNL     1      20.906   3.797  51.473  1.00  0.00     0.138 A 
HETATM    4  N2  UNL     1      20.054   3.229  52.375  1.00  0.00    -0.224 NA
HETATM    5  C9  UNL     1      20.435   2.100  52.986  1.00  0.00     0.237 A 
HETATM    6  N3  UNL     1      21.619   1.585  52.690  1.00  0.00    -0.224 NA
HETATM    7  C10 UNL     1      22.517   2.066  51.826  1.00  0.00     0.141 A 
HETATM    8  N5  UNL     1      20.482   5.012  50.815  1.00  0.00    -0.358 N 
HETATM    9  C17 UNL     1      21.539   6.000  50.584  1.00  0.00     0.251 C 
HETATM   10  N6  UNL     1      22.809   5.337  50.405  1.00  0.00    -0.325 N 
HETATM   11  C18 UNL     1      23.915   6.254  50.564  1.00  0.00     0.217 C 
HETATM   12  C19 UNL     1      23.803   7.702  50.870  1.00  0.00     0.117 C 
HETATM   13  O1  UNL     1      25.088   5.776  50.427  1.00  0.00    -0.274 OA
HETATM   14  H19 UNL     1      19.475   5.108  50.549  1.00  0.00     0.162 HD
ENDROOT
BRANCH   7  15
HETATM   15  N4  UNL     1      23.765   1.472  51.524  1.00  0.00    -0.340 N 
HETATM   16  H15 UNL     1      24.028   1.263  50.550  1.00  0.00     0.167 HD
BRANCH  15  17
HETATM   17  C11 UNL     1      24.784   1.088  52.430  1.00  0.00     0.035 A 
HETATM   18  C12 UNL     1      24.723  -0.034  53.220  1.00  0.00     0.032 A 
HETATM   19  C13 UNL     1      25.697  -0.439  54.102  1.00  0.00     0.046 A 
HETATM   20  C14 UNL     1      26.838   0.320  54.224  1.00  0.00     0.138 A 
HETATM   21  F1  UNL     1      27.838  -0.022  55.072  1.00  0.00    -0.204 F 
HETATM   22  C15 UNL     1      26.961   1.457  53.459  1.00  0.00     0.074 A 
HETATM   23 CL1  UNL     1      28.386   2.480  53.556  1.00  0.00    -0.081 Cl
HETATM   24  C16 UNL     1      25.949   1.804  52.598  1.00  0.00     0.056 A 
ENDBRANCH  15  17
ENDBRANCH   7  15
BRANCH   1  25
HETATM   25  C5  UNL     1      22.655   3.359  48.855  1.00  0.00     0.302 C 
BRANCH  25  26
HETATM   26  N1  UNL     1      21.546   3.838  48.117  1.00  0.00     0.090 N 
BRANCH  26  27
HETATM   27  C2  UNL     1      22.104   4.494  46.923  1.00  0.00     0.268 C 
HETATM   28  C1  UNL     1      21.937   3.717  45.672  1.00  0.00     0.037 C 
ENDBRANCH  26  27
BRANCH  26  29
HETATM   29  C3  UNL     1      20.632   2.812  47.715  1.00  0.00     0.268 C 
HETATM   30  C4  UNL     1      19.193   3.061  48.074  1.00  0.00     0.037 C 
ENDBRANCH  26  29
ENDBRANCH  25  26
ENDBRANCH   1  25
TORSDOF 6
ENDMDL
MODEL 8
REMARK VINA RESULT:      -6.9      2.181      3.201
REMARK  6 active torsions:
REMARK  status: ('A' for Active; 'I' for Inactive)
REMARK    1  A    between atoms: C2_2  and  N1_3 
REMARK    2  A    between atoms: N1_3  and  C3_4 
REMARK    3  A    between atoms: N1_3  and  C5_6 
REMARK    4  A    between atoms: C5_6  and  C6_7 
REMARK    5  A    between atoms: C10_13  and  N4_14 
REMARK    6  A    between atoms: N4_14  and  C11_15 
REMARK       I    between atoms: N6_25  and  C18_26 
ROOT
HETATM    1  C6  UNL     1      18.427   1.331  51.410  1.00  0.00     0.158 C 
HETATM    2  C7  UNL     1      18.292   0.033  52.209  1.00  0.00     0.058 A 
HETATM    3  C8  UNL     1      17.207  -0.800  51.904  1.00  0.00     0.138 A 
HETATM    4  N2  UNL     1      16.994  -1.980  52.558  1.00  0.00    -0.224 NA
HETATM    5  C9  UNL     1      17.857  -2.340  53.516  1.00  0.00     0.237 A 
HETATM    6  N3  UNL     1      18.876  -1.540  53.789  1.00  0.00    -0.224 NA
HETATM    7  C10 UNL     1      19.165  -0.373  53.206  1.00  0.00     0.141 A 
HETATM    8  N5  UNL     1      16.273  -0.424  50.867  1.00  0.00    -0.358 N 
HETATM    9  C17 UNL     1      15.964   1.006  50.792  1.00  0.00     0.251 C 
HETATM   10  N6  UNL     1      17.097   1.783  51.237  1.00  0.00    -0.325 N 
HETATM   11  C18 UNL     1      16.720   3.143  51.548  1.00  0.00     0.217 C 
HETATM   12  C19 UNL     1      15.354   3.711  51.437  1.00  0.00     0.117 C 
HETATM   13  O1  UNL     1      17.644   3.922  51.952  1.00  0.00    -0.274 OA
HETATM   14  H19 UNL     1      15.886  -1.175  50.249  1.00  0.00     0.162 HD
ENDROOT
BRANCH   7  15
HETATM   15  N4  UNL     1      20.279   0.444  53.516  1.00  0.00    -0.340 N 
HETATM   16  H15 UNL     1      20.185   1.470  53.554  1.00  0.00     0.167 HD
BRANCH  15  17
HETATM   17  C11 UNL     1      21.604   0.033  53.799  1.00  0.00     0.035 A 
HETATM   18  C12 UNL     1      21.939  -0.810  54.830  1.00  0.00     0.032 A 
HETATM   19  C13 UNL     1      23.213  -1.235  55.126  1.00  0.00     0.046 A 
HETATM   20  C14 UNL     1      24.257  -0.799  54.343  1.00  0.00     0.138 A 
HETATM   21  F1  UNL     1      25.536  -1.180  54.577  1.00  0.00    -0.204 F 
HETATM   22  C15 UNL     1      23.987   0.047  53.293  1.00  0.00     0.074 A 
HETATM   23 CL1  UNL     1      25.263   0.649  52.246  1.00  0.00    -0.081 Cl
HETATM   24  C16 UNL     1      22.691   0.434  53.054  1.00  0.00     0.056 A 
ENDBRANCH  15  17
ENDBRANCH   7  15
BRANCH   1  25
HETATM   25  C5  UNL     1      19.269   0.970  50.256  1.00  0.00     0.302 C 
BRANCH  25  26
HETATM   26  N1  UNL     1      20.287   1.838  49.796  1.00  0.00     0.090 N 
BRANCH  26  27
HETATM   27  C2  UNL     1      20.648   2.687  50.943  1.00  0.00     0.268 C 
HETATM   28  C1  UNL     1      20.861   4.112  50.597  1.00  0.00     0.037 C 
ENDBRANCH  26  27
BRANCH  26  29
HETATM   29  C3  UNL     1      21.453   1.160  49.317  1.00  0.00     0.268 C 
HETATM   30  C4  UNL     1      22.063   1.737  48.069  1.00  0.00     0.037 C 
ENDBRANCH  26  29
ENDBRANCH  25  26
ENDBRANCH   1  25
TORSDOF 6
ENDMDL
MODEL 9
REMARK VINA RESULT:      -6.8      4.098      5.745
REMARK  6 active torsions:
REMARK  status: ('A' for Active; 'I' for Inactive)
REMARK    1  A    between atoms: C2_2  and  N1_3 
REMARK    2  A    between atoms: N1_3  and  C3_4 
REMARK    3  A    between atoms: N1_3  and  C5_6 
REMARK    4  A    between atoms: C5_6  and  C6_7 
REMARK    5  A    between atoms: C10_13  and  N4_14 
REMARK    6  A    between atoms: N4_14  and  C11_15 
REMARK       I    between atoms: N6_25  and  C18_26 
ROOT
HETATM    1  C6  UNL     1      23.647   4.001  49.832  1.00  0.00     0.158 C 
HETATM    2  C7  UNL     1      24.662   3.385  50.797  1.00  0.00     0.058 A 
HETATM    3  C8  UNL     1      24.192   2.988  52.057  1.00  0.00     0.138 A 
HETATM    4  N2  UNL     1      25.015   2.429  52.992  1.00  0.00    -0.224 NA
HETATM    5  C9  UNL     1      26.306   2.259  52.683  1.00  0.00     0.237 A 
HETATM    6  N3  UNL     1      26.730   2.640  51.488  1.00  0.00    -0.224 NA
HETATM    7  C10 UNL     1      26.005   3.193  50.511  1.00  0.00     0.141 A 
HETATM    8  N5  UNL     1      22.798   3.161  52.399  1.00  0.00    -0.358 N 
HETATM    9  C17 UNL     1      22.178   4.388  51.892  1.00  0.00     0.251 C 
HETATM   10  N6  UNL     1      22.804   4.786  50.654  1.00  0.00    -0.325 N 
HETATM   11  C18 UNL     1      22.507   6.162  50.326  1.00  0.00     0.217 C 
HETATM   12  C19 UNL     1      21.667   7.083  51.132  1.00  0.00     0.117 C 
HETATM   13  O1  UNL     1      23.010   6.623  49.250  1.00  0.00    -0.274 OA
HETATM   14  H19 UNL     1      22.331   2.420  52.970  1.00  0.00     0.162 HD
ENDROOT
BRANCH   7  15
HETATM   15  N4  UNL     1      26.495   3.568  49.238  1.00  0.00    -0.340 N 
HETATM   16  H15 UNL     1      26.461   2.910  48.446  1.00  0.00     0.167 HD
BRANCH  15  17
HETATM   17  C11 UNL     1      27.071   4.805  48.861  1.00  0.00     0.035 A 
HETATM   18  C12 UNL     1      26.396   6.001  48.880  1.00  0.00     0.032 A 
HETATM   19  C13 UNL     1      26.928   7.220  48.529  1.00  0.00     0.046 A 
HETATM   20  C14 UNL     1      28.243   7.278  48.125  1.00  0.00     0.138 A 
HETATM   21  F1  UNL     1      28.831   8.445  47.768  1.00  0.00    -0.204 F 
HETATM   22  C15 UNL     1      28.975   6.114  48.085  1.00  0.00     0.074 A 
HETATM   23 CL1  UNL     1      30.657   6.103  47.581  1.00  0.00    -0.081 Cl
HETATM   24  C16 UNL     1      28.380   4.931  48.448  1.00  0.00     0.056 A 
ENDBRANCH  15  17
ENDBRANCH   7  15
BRANCH   1  25
HETATM   25  C5  UNL     1      23.120   2.856  49.067  1.00  0.00     0.302 C 
BRANCH  25  26
HETATM   26  N1  UNL     1      21.734   2.577  49.035  1.00  0.00     0.090 N 
BRANCH  26  27
HETATM   27  C2  UNL     1      21.216   3.224  47.819  1.00  0.00     0.268 C 
HETATM   28  C1  UNL     1      22.118   3.119  46.647  1.00  0.00     0.037 C 
ENDBRANCH  26  27
BRANCH  26  29
HETATM   29  C3  UNL     1      21.426   1.179  49.001  1.00  0.00     0.268 C 
HETATM   30  C4  UNL     1      21.354   0.506  50.344  1.00  0.00     0.037 C 
ENDBRANCH  26  29
ENDBRANCH  25  26
ENDBRANCH   1  25
TORSDOF 6
ENDMDL
