MODEL 1
REMARK VINA RESULT:      -7.7      0.000      0.000
REMARK  6 active torsions:
REMARK  status: ('A' for Active; 'I' for Inactive)
REMARK    1  A    between atoms: C2_2  and  C3_3 
REMARK    2  A    between atoms: C3_3  and  C4_4 
REMARK    3  A    between atoms: C4_4  and  N1_5 
REMARK    4  A    between atoms: C8_9  and  S1_10 
REMARK    5  A    between atoms: S1_10  and  C9_11 
REMARK    6  A    between atoms: C13_16  and  O1_17 
ROOT
HETATM    1  N1  UNL     1      20.776   1.626  52.707  1.00  0.00    -0.324 N 
HETATM    2  C5  UNL     1      21.045   0.725  53.742  1.00  0.00     0.170 C 
HETATM    3  C6  UNL     1      22.163  -0.219  53.511  1.00  0.00    -0.004 C 
HETATM    4  C7  UNL     1      23.365   0.201  53.048  1.00  0.00     0.018 C 
HETATM    5  C8  UNL     1      23.934   1.524  52.663  1.00  0.00     0.028 C 
HETATM    6  C15 UNL     1      23.034   2.460  52.439  1.00  0.00     0.038 C 
HETATM    7  C16 UNL     1      23.890   3.629  52.086  1.00  0.00     0.071 C 
HETATM    8  N2  UNL     1      21.632   2.633  52.446  1.00  0.00    -0.306 N 
HETATM    9  H23 UNL     1      21.408   3.631  52.223  1.00  0.00     0.186 HD
ENDROOT
BRANCH   5  10
HETATM   10  S1  UNL     1      25.641   1.372  52.636  1.00  0.00    -0.091 SA
BRANCH  10  11
HETATM   11  C9  UNL     1      26.380  -0.226  52.658  1.00  0.00     0.012 A 
HETATM   12  C10 UNL     1      27.579   0.203  53.095  1.00  0.00     0.055 A 
HETATM   13 CL1  UNL     1      28.095   1.859  53.478  1.00  0.00    -0.083 Cl
HETATM   14  C11 UNL     1      28.610  -0.834  53.280  1.00  0.00    -0.010 A 
HETATM   15  C12 UNL     1      30.031  -0.979  53.707  1.00  0.00     0.052 C 
HETATM   16  C13 UNL     1      27.985  -1.926  52.934  1.00  0.00     0.055 A 
HETATM   17  C14 UNL     1      26.602  -1.698  52.530  1.00  0.00     0.113 A 
BRANCH  16  18
HETATM   18  O1  UNL     1      28.385  -3.275  52.877  1.00  0.00    -0.364 OA
HETATM   19  H17 UNL     1      27.621  -3.948  52.928  1.00  0.00     0.217 HD
ENDBRANCH  16  18
ENDBRANCH  10  11
ENDBRANCH   5  10
BRANCH   1  20
HETATM   20  C4  UNL     1      19.551   1.544  52.014  1.00  0.00     0.143 C 
BRANCH  20  21
HETATM   21  C3  UNL     1      19.287   0.142  51.451  1.00  0.00     0.021 C 
BRANCH  21  22
HETATM   22  C2  UNL     1      17.915  -0.344  51.840  1.00  0.00    -0.003 C 
HETATM   23  C1  UNL     1      17.909  -1.197  53.090  1.00  0.00     0.005 C 
ENDBRANCH  21  22
ENDBRANCH  20  21
ENDBRANCH   1  20
TORSDOF 6
ENDMDL
MODEL 2
REMARK VINA RESULT:      -7.2      2.487      3.077
REMARK  6 active torsions:
REMARK  status: ('A' for Active; 'I' for Inactive)
REMARK    1  A    between atoms: C2_2  and  C3_3 
REMARK    2  A    between atoms: C3_3  and  C4_4 
REMARK    3  A    between atoms: C4_4  and  N1_5 
REMARK    4  A    between atoms: C8_9  and  S1_10 
REMARK    5  A    between atoms: S1_10  and  C9_11 
REMARK    6  A    between atoms: C13_16  and  O1_17 
ROOT
HETATM    1  N1  UNL     1      22.954   4.052  49.778  1.00  0.00    -0.324 N 
HETATM    2  C5  UNL     1      22.460   4.606  50.963  1.00  0.00     0.170 C 
HETATM    3  C6  UNL     1      22.434   3.708  52.141  1.00  0.00    -0.004 C 
HETATM    4  C7  UNL     1      23.508   2.959  52.489  1.00  0.00     0.018 C 
HETATM    5  C8  UNL     1      24.879   2.775  51.933  1.00  0.00     0.028 C 
HETATM    6  C15 UNL     1      25.024   3.186  50.690  1.00  0.00     0.038 C 
HETATM    7  C16 UNL     1      26.459   2.877  50.430  1.00  0.00     0.071 C 
HETATM    8  N2  UNL     1      24.267   3.777  49.653  1.00  0.00    -0.306 N 
HETATM    9  H23 UNL     1      24.888   3.948  48.829  1.00  0.00     0.186 HD
ENDROOT
BRANCH   5  10
HETATM   10  S1  UNL     1      25.845   2.055  53.153  1.00  0.00    -0.091 SA
BRANCH  10  11
HETATM   11  C9  UNL     1      26.329   0.368  53.008  1.00  0.00     0.012 A 
HETATM   12  C10 UNL     1      27.622   0.588  53.311  1.00  0.00     0.055 A 
HETATM   13 CL1  UNL     1      28.426   2.122  53.704  1.00  0.00    -0.083 Cl
HETATM   14  C11 UNL     1      28.496  -0.598  53.317  1.00  0.00    -0.010 A 
HETATM   15  C12 UNL     1      29.919  -0.977  53.557  1.00  0.00     0.052 C 
HETATM   16  C13 UNL     1      27.675  -1.563  53.002  1.00  0.00     0.055 A 
HETATM   17  C14 UNL     1      26.306  -1.110  52.785  1.00  0.00     0.113 A 
BRANCH  16  18
HETATM   18  O1  UNL     1      27.855  -2.949  52.832  1.00  0.00    -0.364 OA
HETATM   19  H17 UNL     1      27.047  -3.517  53.082  1.00  0.00     0.217 HD
ENDBRANCH  16  18
ENDBRANCH  10  11
ENDBRANCH   5  10
BRANCH   1  20
HETATM   20  C4  UNL     1      22.092   3.887  48.674  1.00  0.00     0.143 C 
BRANCH  20  21
HETATM   21  C3  UNL     1      20.870   3.021  49.005  1.00  0.00     0.021 C 
BRANCH  21  22
HETATM   22  C2  UNL     1      21.147   1.569  48.719  1.00  0.00    -0.003 C 
HETATM   23  C1  UNL     1      21.478   0.762  49.956  1.00  0.00     0.005 C 
ENDBRANCH  21  22
ENDBRANCH  20  21
ENDBRANCH   1  20
TORSDOF 6
ENDMDL
MODEL 3
REMARK VINA RESULT:      -7.1      1.867      2.191
REMARK  6 active torsions:
REMARK  status: ('A' for Active; 'I' for Inactive)
REMARK    1  A    between atoms: C2_2  and  C3_3 
REMARK    2  A    between atoms: C3_3  and  C4_4 
REMARK    3  A    between atoms: C4_4  and  N1_5 
REMARK    4  A    between atoms: C8_9  and  S1_10 
REMARK    5  A    between atoms: S1_10  and  C9_11 
REMARK    6  A    between atoms: C13_16  and  O1_17 
ROOT
HETATM    1  N1  UNL     1      20.539   1.127  52.955  1.00  0.00    -0.324 N 
HETATM    2  C5  UNL     1      20.618   0.585  54.242  1.00  0.00     0.170 C 
HETATM    3  C6  UNL     1      21.393  -0.670  54.374  1.00  0.00    -0.004 C 
HETATM    4  C7  UNL     1      22.624  -0.807  53.825  1.00  0.00     0.018 C 
HETATM    5  C8  UNL     1      23.518   0.079  53.026  1.00  0.00     0.028 C 
HETATM    6  C15 UNL     1      22.912   1.111  52.475  1.00  0.00     0.038 C 
HETATM    7  C16 UNL     1      24.038   1.784  51.765  1.00  0.00     0.071 C 
HETATM    8  N2  UNL     1      21.624   1.686  52.387  1.00  0.00    -0.306 N 
HETATM    9  H23 UNL     1      21.681   2.572  51.833  1.00  0.00     0.186 HD
ENDROOT
BRANCH   5  10
HETATM   10  S1  UNL     1      25.101  -0.575  53.095  1.00  0.00    -0.091 SA
BRANCH  10  11
HETATM   11  C9  UNL     1      26.450   0.441  53.590  1.00  0.00     0.012 A 
HETATM   12  C10 UNL     1      27.396  -0.484  53.339  1.00  0.00     0.055 A 
HETATM   13 CL1  UNL     1      27.197  -2.135  52.717  1.00  0.00    -0.083 Cl
HETATM   14  C11 UNL     1      28.786  -0.081  53.617  1.00  0.00    -0.010 A 
HETATM   15  C12 UNL     1      30.174  -0.621  53.551  1.00  0.00     0.052 C 
HETATM   16  C13 UNL     1      28.650   1.141  54.054  1.00  0.00     0.055 A 
HETATM   17  C14 UNL     1      27.263   1.592  54.088  1.00  0.00     0.113 A 
BRANCH  16  18
HETATM   18  O1  UNL     1      29.578   2.104  54.496  1.00  0.00    -0.364 OA
HETATM   19  H17 UNL     1      30.356   1.729  55.035  1.00  0.00     0.217 HD
ENDBRANCH  16  18
ENDBRANCH  10  11
ENDBRANCH   5  10
BRANCH   1  20
HETATM   20  C4  UNL     1      19.291   1.188  52.302  1.00  0.00     0.143 C 
BRANCH  20  21
HETATM   21  C3  UNL     1      18.887  -0.153  51.677  1.00  0.00     0.021 C 
BRANCH  21  22
HETATM   22  C2  UNL     1      17.736  -0.771  52.426  1.00  0.00    -0.003 C 
HETATM   23  C1  UNL     1      16.493  -0.951  51.582  1.00  0.00     0.005 C 
ENDBRANCH  21  22
ENDBRANCH  20  21
ENDBRANCH   1  20
TORSDOF 6
ENDMDL
MODEL 4
REMARK VINA RESULT:      -7.1      3.834      7.656
REMARK  6 active torsions:
REMARK  status: ('A' for Active; 'I' for Inactive)
REMARK    1  A    between atoms: C2_2  and  C3_3 
REMARK    2  A    between atoms: C3_3  and  C4_4 
REMARK    3  A    between atoms: C4_4  and  N1_5 
REMARK    4  A    between atoms: C8_9  and  S1_10 
REMARK    5  A    between atoms: S1_10  and  C9_11 
REMARK    6  A    between atoms: C13_16  and  O1_17 
ROOT
HETATM    1  N1  UNL     1      28.095   1.029  54.018  1.00  0.00    -0.324 N 
HETATM    2  C5  UNL     1      27.520   1.942  53.128  1.00  0.00     0.170 C 
HETATM    3  C6  UNL     1      26.572   1.380  52.138  1.00  0.00    -0.004 C 
HETATM    4  C7  UNL     1      25.584   0.528  52.503  1.00  0.00     0.018 C 
HETATM    5  C8  UNL     1      25.140  -0.068  53.796  1.00  0.00     0.028 C 
HETATM    6  C15 UNL     1      26.036  -0.007  54.761  1.00  0.00     0.038 C 
HETATM    7  C16 UNL     1      25.315  -0.663  55.889  1.00  0.00     0.071 C 
HETATM    8  N2  UNL     1      27.349   0.464  54.986  1.00  0.00    -0.306 N 
HETATM    9  H23 UNL     1      27.606   0.298  55.987  1.00  0.00     0.186 HD
ENDROOT
BRANCH   5  10
HETATM   10  S1  UNL     1      23.546  -0.661  53.579  1.00  0.00    -0.091 SA
BRANCH  10  11
HETATM   11  C9  UNL     1      22.477   0.104  52.408  1.00  0.00     0.012 A 
HETATM   12  C10 UNL     1      21.344  -0.388  52.941  1.00  0.00     0.055 A 
HETATM   13 CL1  UNL     1      21.148  -1.444  54.356  1.00  0.00    -0.083 Cl
HETATM   14  C11 UNL     1      20.091  -0.007  52.265  1.00  0.00    -0.010 A 
HETATM   15  C12 UNL     1      18.618  -0.218  52.368  1.00  0.00     0.052 C 
HETATM   16  C13 UNL     1      20.511   0.746  51.285  1.00  0.00     0.055 A 
HETATM   17  C14 UNL     1      21.960   0.902  51.255  1.00  0.00     0.113 A 
BRANCH  16  18
HETATM   18  O1  UNL     1      19.838   1.435  50.257  1.00  0.00    -0.364 OA
HETATM   19  H17 UNL     1      18.873   1.144  50.110  1.00  0.00     0.217 HD
ENDBRANCH  16  18
ENDBRANCH  10  11
ENDBRANCH   5  10
BRANCH   1  20
HETATM   20  C4  UNL     1      29.484   0.789  53.967  1.00  0.00     0.143 C 
BRANCH  20  21
HETATM   21  C3  UNL     1      29.824  -0.706  53.989  1.00  0.00     0.021 C 
BRANCH  21  22
HETATM   22  C2  UNL     1      29.134  -1.431  52.864  1.00  0.00    -0.003 C 
HETATM   23  C1  UNL     1      28.726  -2.845  53.219  1.00  0.00     0.005 C 
ENDBRANCH  21  22
ENDBRANCH  20  21
ENDBRANCH   1  20
TORSDOF 6
ENDMDL
MODEL 5
REMARK VINA RESULT:      -7.0      3.685      7.726
REMARK  6 active torsions:
REMARK  status: ('A' for Active; 'I' for Inactive)
REMARK    1  A    between atoms: C2_2  and  C3_3 
REMARK    2  A    between atoms: C3_3  and  C4_4 
REMARK    3  A    between atoms: C4_4  and  N1_5 
REMARK    4  A    between atoms: C8_9  and  S1_10 
REMARK    5  A    between atoms: S1_10  and  C9_11 
REMARK    6  A    between atoms: C13_16  and  O1_17 
ROOT
HETATM    1  N1  UNL     1      26.394   0.828  52.598  1.00  0.00    -0.324 N 
HETATM    2  C5  UNL     1      25.901  -0.458  52.839  1.00  0.00     0.170 C 
HETATM    3  C6  UNL     1      24.570  -0.536  53.485  1.00  0.00    -0.004 C 
HETATM    4  C7  UNL     1      23.521   0.199  53.044  1.00  0.00     0.018 C 
HETATM    5  C8  UNL     1      23.324   1.187  51.946  1.00  0.00     0.028 C 
HETATM    6  C15 UNL     1      24.439   1.692  51.460  1.00  0.00     0.038 C 
HETATM    7  C16 UNL     1      23.924   2.617  50.410  1.00  0.00     0.071 C 
HETATM    8  N2  UNL     1      25.837   1.601  51.646  1.00  0.00    -0.306 N 
HETATM    9  H23 UNL     1      26.318   2.210  50.944  1.00  0.00     0.186 HD
ENDROOT
BRANCH   5  10
HETATM   10  S1  UNL     1      21.637   1.341  51.677  1.00  0.00    -0.091 SA
BRANCH  10  11
HETATM   11  C9  UNL     1      20.509   0.335  52.579  1.00  0.00     0.012 A 
HETATM   12  C10 UNL     1      19.535   0.385  51.651  1.00  0.00     0.055 A 
HETATM   13 CL1  UNL     1      19.533   1.225  50.087  1.00  0.00    -0.083 Cl
HETATM   14  C11 UNL     1      18.300  -0.353  51.969  1.00  0.00    -0.010 A 
HETATM   15  C12 UNL     1      16.959  -0.654  51.389  1.00  0.00     0.052 C 
HETATM   16  C13 UNL     1      18.561  -0.860  53.143  1.00  0.00     0.055 A 
HETATM   17  C14 UNL     1      19.889  -0.519  53.638  1.00  0.00     0.113 A 
BRANCH  16  18
HETATM   18  O1  UNL     1      17.813  -1.671  54.018  1.00  0.00    -0.364 OA
HETATM   19  H17 UNL     1      18.026  -2.666  53.964  1.00  0.00     0.217 HD
ENDBRANCH  16  18
ENDBRANCH  10  11
ENDBRANCH   5  10
BRANCH   1  20
HETATM   20  C4  UNL     1      27.548   1.269  53.279  1.00  0.00     0.143 C 
BRANCH  20  21
HETATM   21  C3  UNL     1      28.029   0.266  54.334  1.00  0.00     0.021 C 
BRANCH  21  22
HETATM   22  C2  UNL     1      29.413  -0.231  54.013  1.00  0.00    -0.003 C 
HETATM   23  C1  UNL     1      29.428  -1.594  53.357  1.00  0.00     0.005 C 
ENDBRANCH  21  22
ENDBRANCH  20  21
ENDBRANCH   1  20
TORSDOF 6
ENDMDL
MODEL 6
REMARK VINA RESULT:      -6.9      2.365      3.926
REMARK  6 active torsions:
REMARK  status: ('A' for Active; 'I' for Inactive)
REMARK    1  A    between atoms: C2_2  and  C3_3 
REMARK    2  A    between atoms: C3_3  and  C4_4 
REMARK    3  A    between atoms: C4_4  and  N1_5 
REMARK    4  A    between atoms: C8_9  and  S1_10 
REMARK    5  A    between atoms: S1_10  and  C9_11 
REMARK    6  A    between atoms: C13_16  and  O1_17 
ROOT
HETATM    1  N1  UNL     1      22.627   3.275  49.765  1.00  0.00    -0.324 N 
HETATM    2  C5  UNL     1      23.795   3.249  48.996  1.00  0.00     0.170 C 
HETATM    3  C6  UNL     1      25.043   3.637  49.692  1.00  0.00    -0.004 C 
HETATM    4  C7  UNL     1      25.372   3.126  50.902  1.00  0.00     0.018 C 
HETATM    5  C8  UNL     1      24.734   2.155  51.836  1.00  0.00     0.028 C 
HETATM    6  C15 UNL     1      23.453   1.944  51.612  1.00  0.00     0.038 C 
HETATM    7  C16 UNL     1      23.114   0.957  52.677  1.00  0.00     0.071 C 
HETATM    8  N2  UNL     1      22.429   2.356  50.729  1.00  0.00    -0.306 N 
HETATM    9  H23 UNL     1      21.549   1.837  50.957  1.00  0.00     0.186 HD
ENDROOT
BRANCH   5  10
HETATM   10  S1  UNL     1      25.934   1.622  52.938  1.00  0.00    -0.091 SA
BRANCH  10  11
HETATM   11  C9  UNL     1      26.541  -0.028  52.844  1.00  0.00     0.012 A 
HETATM   12  C10 UNL     1      27.786   0.278  53.255  1.00  0.00     0.055 A 
HETATM   13 CL1  UNL     1      28.448   1.863  53.707  1.00  0.00    -0.083 Cl
HETATM   14  C11 UNL     1      28.734  -0.846  53.342  1.00  0.00    -0.010 A 
HETATM   15  C12 UNL     1      30.153  -1.128  53.704  1.00  0.00     0.052 C 
HETATM   16  C13 UNL     1      28.010  -1.863  52.963  1.00  0.00     0.055 A 
HETATM   17  C14 UNL     1      26.637  -1.504  52.628  1.00  0.00     0.113 A 
BRANCH  16  18
HETATM   18  O1  UNL     1      28.296  -3.235  52.817  1.00  0.00    -0.364 OA
HETATM   19  H17 UNL     1      27.478  -3.829  52.689  1.00  0.00     0.217 HD
ENDBRANCH  16  18
ENDBRANCH  10  11
ENDBRANCH   5  10
BRANCH   1  20
HETATM   20  C4  UNL     1      21.609   4.199  49.452  1.00  0.00     0.143 C 
BRANCH  20  21
HETATM   21  C3  UNL     1      21.186   5.042  50.661  1.00  0.00     0.021 C 
BRANCH  21  22
HETATM   22  C2  UNL     1      22.343   5.855  51.181  1.00  0.00    -0.003 C 
HETATM   23  C1  UNL     1      22.364   7.276  50.660  1.00  0.00     0.005 C 
ENDBRANCH  21  22
ENDBRANCH  20  21
ENDBRANCH   1  20
TORSDOF 6
ENDMDL
MODEL 7
REMARK VINA RESULT:      -6.9      4.130      8.321
REMARK  6 active torsions:
REMARK  status: ('A' for Active; 'I' for Inactive)
REMARK    1  A    between atoms: C2_2  and  C3_3 
REMARK    2  A    between atoms: C3_3  and  C4_4 
REMARK    3  A    between atoms: C4_4  and  N1_5 
REMARK    4  A    between atoms: C8_9  and  S1_10 
REMARK    5  A    between atoms: S1_10  and  C9_11 
REMARK    6  A    between atoms: C13_16  and  O1_17 
ROOT
HETATM    1  N1  UNL     1      25.369   0.163  53.026  1.00  0.00    -0.324 N 
HETATM    2  C5  UNL     1      24.971   1.419  52.558  1.00  0.00     0.170 C 
HETATM    3  C6  UNL     1      23.773   1.440  51.686  1.00  0.00    -0.004 C 
HETATM    4  C7  UNL     1      22.639   0.779  52.019  1.00  0.00     0.018 C 
HETATM    5  C8  UNL     1      22.222  -0.068  53.173  1.00  0.00     0.028 C 
HETATM    6  C15 UNL     1      23.219  -0.529  53.900  1.00  0.00     0.038 C 
HETATM    7  C16 UNL     1      22.500  -1.315  54.944  1.00  0.00     0.071 C 
HETATM    8  N2  UNL     1      24.631  -0.482  53.950  1.00  0.00    -0.306 N 
HETATM    9  H23 UNL     1      24.963  -1.010  54.790  1.00  0.00     0.186 HD
ENDROOT
BRANCH   5  10
HETATM   10  S1  UNL     1      20.510  -0.163  53.161  1.00  0.00    -0.091 SA
BRANCH  10  11
HETATM   11  C9  UNL     1      19.613   0.341  51.733  1.00  0.00     0.012 A 
HETATM   12  C10 UNL     1      18.511  -0.376  52.024  1.00  0.00     0.055 A 
HETATM   13 CL1  UNL     1      18.209  -1.432  53.420  1.00  0.00    -0.083 Cl
HETATM   14  C11 UNL     1      17.402  -0.280  51.058  1.00  0.00    -0.010 A 
HETATM   15  C12 UNL     1      16.022  -0.800  50.837  1.00  0.00     0.052 C 
HETATM   16  C13 UNL     1      17.877   0.533  50.155  1.00  0.00     0.055 A 
HETATM   17  C14 UNL     1      19.229   0.995  50.445  1.00  0.00     0.113 A 
BRANCH  16  18
HETATM   18  O1  UNL     1      17.338   1.050  48.960  1.00  0.00    -0.364 OA
HETATM   19  H17 UNL     1      17.303   0.387  48.188  1.00  0.00     0.217 HD
ENDBRANCH  16  18
ENDBRANCH  10  11
ENDBRANCH   5  10
BRANCH   1  20
HETATM   20  C4  UNL     1      26.606  -0.374  52.612  1.00  0.00     0.143 C 
BRANCH  20  21
HETATM   21  C3  UNL     1      27.799   0.475  53.069  1.00  0.00     0.021 C 
BRANCH  21  22
HETATM   22  C2  UNL     1      28.618  -0.259  54.097  1.00  0.00    -0.003 C 
HETATM   23  C1  UNL     1      29.743  -1.076  53.501  1.00  0.00     0.005 C 
ENDBRANCH  21  22
ENDBRANCH  20  21
ENDBRANCH   1  20
TORSDOF 6
ENDMDL
MODEL 8
REMARK VINA RESULT:      -6.9      2.617      4.240
REMARK  6 active torsions:
REMARK  status: ('A' for Active; 'I' for Inactive)
REMARK    1  A    between atoms: C2_2  and  C3_3 
REMARK    2  A    between atoms: C3_3  and  C4_4 
REMARK    3  A    between atoms: C4_4  and  N1_5 
REMARK    4  A    between atoms: C8_9  and  S1_10 
REMARK    5  A    between atoms: S1_10  and  C9_11 
REMARK    6  A    between atoms: C13_16  and  O1_17 
ROOT
HETATM    1  N1  UNL     1      22.199   3.171  49.699  1.00  0.00    -0.324 N 
HETATM    2  C5  UNL     1      23.437   3.170  49.050  1.00  0.00     0.170 C 
HETATM    3  C6  UNL     1      24.631   3.274  49.921  1.00  0.00    -0.004 C 
HETATM    4  C7  UNL     1      24.777   2.501  51.024  1.00  0.00     0.018 C 
HETATM    5  C8  UNL     1      23.955   1.440  51.674  1.00  0.00     0.028 C 
HETATM    6  C15 UNL     1      22.693   1.419  51.296  1.00  0.00     0.038 C 
HETATM    7  C16 UNL     1      22.152   0.284  52.098  1.00  0.00     0.071 C 
HETATM    8  N2  UNL     1      21.814   2.107  50.429  1.00  0.00    -0.306 N 
HETATM    9  H23 UNL     1      20.872   1.653  50.465  1.00  0.00     0.186 HD
ENDROOT
BRANCH   5  10
HETATM   10  S1  UNL     1      24.974   0.572  52.745  1.00  0.00    -0.091 SA
BRANCH  10  11
HETATM   11  C9  UNL     1      26.507   1.270  53.257  1.00  0.00     0.012 A 
HETATM   12  C10 UNL     1      27.204   0.123  53.145  1.00  0.00     0.055 A 
HETATM   13 CL1  UNL     1      26.633  -1.480  52.638  1.00  0.00    -0.083 Cl
HETATM   14  C11 UNL     1      28.634   0.199  53.491  1.00  0.00    -0.010 A 
HETATM   15  C12 UNL     1      29.847  -0.667  53.566  1.00  0.00     0.052 C 
HETATM   16  C13 UNL     1      28.785   1.452  53.823  1.00  0.00     0.055 A 
HETATM   17  C14 UNL     1      27.554   2.229  53.723  1.00  0.00     0.113 A 
BRANCH  16  18
HETATM   18  O1  UNL     1      29.899   2.196  54.257  1.00  0.00    -0.364 OA
HETATM   19  H17 UNL     1      30.316   2.792  53.544  1.00  0.00     0.217 HD
ENDBRANCH  16  18
ENDBRANCH  10  11
ENDBRANCH   5  10
BRANCH   1  20
HETATM   20  C4  UNL     1      21.307   4.244  49.494  1.00  0.00     0.143 C 
BRANCH  20  21
HETATM   21  C3  UNL     1      20.825   4.869  50.810  1.00  0.00     0.021 C 
BRANCH  21  22
HETATM   22  C2  UNL     1      21.964   5.525  51.543  1.00  0.00    -0.003 C 
HETATM   23  C1  UNL     1      22.620   6.643  50.762  1.00  0.00     0.005 C 
ENDBRANCH  21  22
ENDBRANCH  20  21
ENDBRANCH   1  20
TORSDOF 6
ENDMDL
MODEL 9
REMARK VINA RESULT:      -6.7      4.606      6.723
REMARK  6 active torsions:
REMARK  status: ('A' for Active; 'I' for Inactive)
REMARK    1  A    between atoms: C2_2  and  C3_3 
REMARK    2  A    between atoms: C3_3  and  C4_4 
REMARK    3  A    between atoms: C4_4  and  N1_5 
REMARK    4  A    between atoms: C8_9  and  S1_10 
REMARK    5  A    between atoms: S1_10  and  C9_11 
REMARK    6  A    between atoms: C13_16  and  O1_17 
ROOT
HETATM    1  N1  UNL     1      25.124   1.109  53.380  1.00  0.00    -0.324 N 
HETATM    2  C5  UNL     1      26.455   1.538  53.386  1.00  0.00     0.170 C 
HETATM    3  C6  UNL     1      27.068   1.780  52.059  1.00  0.00    -0.004 C 
HETATM    4  C7  UNL     1      26.437   2.507  51.106  1.00  0.00     0.018 C 
HETATM    5  C8  UNL     1      25.128   3.217  51.026  1.00  0.00     0.028 C 
HETATM    6  C15 UNL     1      24.253   2.851  51.940  1.00  0.00     0.038 C 
HETATM    7  C16 UNL     1      23.084   3.714  51.606  1.00  0.00     0.071 C 
HETATM    8  N2  UNL     1      24.139   1.959  53.030  1.00  0.00    -0.306 N 
HETATM    9  H23 UNL     1      23.203   2.085  53.481  1.00  0.00     0.186 HD
ENDROOT
BRANCH   5  10
HETATM   10  S1  UNL     1      25.208   4.315  49.711  1.00  0.00    -0.091 SA
BRANCH  10  11
HETATM   11  C9  UNL     1      25.329   6.044  50.019  1.00  0.00     0.012 A 
HETATM   12  C10 UNL     1      26.499   6.199  49.371  1.00  0.00     0.055 A 
HETATM   13 CL1  UNL     1      27.477   4.975  48.535  1.00  0.00    -0.083 Cl
HETATM   14  C11 UNL     1      27.051   7.565  49.351  1.00  0.00    -0.010 A 
HETATM   15  C12 UNL     1      28.228   8.322  48.835  1.00  0.00     0.052 C 
HETATM   16  C13 UNL     1      26.162   8.245  50.021  1.00  0.00     0.055 A 
HETATM   17  C14 UNL     1      25.045   7.434  50.489  1.00  0.00     0.113 A 
BRANCH  16  18
HETATM   18  O1  UNL     1      26.071   9.606  50.376  1.00  0.00    -0.364 OA
HETATM   19  H17 UNL     1      25.519  10.176  49.737  1.00  0.00     0.217 HD
ENDBRANCH  16  18
ENDBRANCH  10  11
ENDBRANCH   5  10
BRANCH   1  20
HETATM   20  C4  UNL     1      24.806  -0.182  53.849  1.00  0.00     0.143 C 
BRANCH  20  21
HETATM   21  C3  UNL     1      23.448  -0.677  53.338  1.00  0.00     0.021 C 
BRANCH  21  22
HETATM   22  C2  UNL     1      22.534  -1.020  54.485  1.00  0.00    -0.003 C 
HETATM   23  C1  UNL     1      21.294  -0.155  54.547  1.00  0.00     0.005 C 
ENDBRANCH  21  22
ENDBRANCH  20  21
ENDBRANCH   1  20
TORSDOF 6
ENDMDL
