MODEL 1
REMARK VINA RESULT:      -7.3      0.000      0.000
REMARK  5 active torsions:
REMARK  status: ('A' for Active; 'I' for Inactive)
REMARK    1  A    between atoms: C2_2  and  O1_3 
REMARK    2  A    between atoms: O1_3  and  C3_4 
REMARK    3  A    between atoms: C8_10  and  C9_11 
REMARK    4  A    between atoms: C9_11  and  C10_12 
REMARK    5  A    between atoms: C11_13  and  C12_15 
ROOT
HETATM    1  C3  UNL     1      21.253   0.491  53.528  1.00  0.00     0.180 A 
HETATM    2  C4  UNL     1      21.512  -0.551  54.567  1.00  0.00     0.108 A 
HETATM    3  C5  UNL     1      22.951  -0.884  54.584  1.00  0.00     0.097 A 
HETATM    4  F1  UNL     1      23.102  -1.852  55.549  1.00  0.00    -0.211 F 
HETATM    5  C6  UNL     1      24.045  -0.511  53.948  1.00  0.00     0.053 A 
HETATM    6  C7  UNL     1      23.806   0.513  52.942  1.00  0.00     0.019 A 
HETATM    7  C8  UNL     1      24.818   1.036  52.193  1.00  0.00     0.051 A 
HETATM    8  N1  UNL     1      24.520   2.006  51.283  1.00  0.00    -0.245 NA
HETATM    9  C13 UNL     1      23.215   2.376  51.198  1.00  0.00     0.233 A 
HETATM   10  N2  UNL     1      22.203   1.852  51.948  1.00  0.00    -0.243 NA
HETATM   11  C14 UNL     1      22.487   0.890  52.854  1.00  0.00     0.077 A 
ENDROOT
BRANCH   7  12
HETATM   12  C9  UNL     1      26.191   0.553  52.347  1.00  0.00     0.090 C 
BRANCH  12  13
HETATM   13  C10 UNL     1      27.198   1.591  52.664  1.00  0.00     0.018 C 
HETATM   14  C11 UNL     1      28.304   1.782  53.425  1.00  0.00     0.104 C 
HETATM   15  F2  UNL     1      29.041   2.952  53.480  1.00  0.00    -0.210 F 
BRANCH  14  16
HETATM   16  C12 UNL     1      29.031   0.879  54.362  1.00  0.00     0.184 C 
HETATM   17 CL1  UNL     1      29.937  -0.400  53.534  1.00  0.00    -0.123 Cl
ENDBRANCH  14  16
ENDBRANCH  12  13
ENDBRANCH   7  12
BRANCH   1  18
HETATM   18  O1  UNL     1      20.246   0.120  52.635  1.00  0.00    -0.380 OA
BRANCH  18  19
HETATM   19  C2  UNL     1      19.349  -0.683  53.369  1.00  0.00     0.164 C 
HETATM   20  C1  UNL     1      18.041  -0.883  52.675  1.00  0.00     0.033 C 
ENDBRANCH  18  19
ENDBRANCH   1  18
TORSDOF 5
ENDMDL
MODEL 2
REMARK VINA RESULT:      -7.2      3.567      6.596
REMARK  5 active torsions:
REMARK  status: ('A' for Active; 'I' for Inactive)
REMARK    1  A    between atoms: C2_2  and  O1_3 
REMARK    2  A    between atoms: O1_3  and  C3_4 
REMARK    3  A    between atoms: C8_10  and  C9_11 
REMARK    4  A    between atoms: C9_11  and  C10_12 
REMARK    5  A    between atoms: C11_13  and  C12_15 
ROOT
HETATM    1  C3  UNL     1      27.275   0.450  54.513  1.00  0.00     0.180 A 
HETATM    2  C4  UNL     1      27.606   1.183  53.254  1.00  0.00     0.108 A 
HETATM    3  C5  UNL     1      26.438   1.162  52.349  1.00  0.00     0.097 A 
HETATM    4  F1  UNL     1      26.827   1.840  51.217  1.00  0.00    -0.211 F 
HETATM    5  C6  UNL     1      25.207   0.687  52.357  1.00  0.00     0.053 A 
HETATM    6  C7  UNL     1      24.871  -0.019  53.585  1.00  0.00     0.019 A 
HETATM    7  C8  UNL     1      23.638  -0.567  53.785  1.00  0.00     0.051 A 
HETATM    8  N1  UNL     1      23.390  -1.197  54.968  1.00  0.00    -0.245 NA
HETATM    9  C13 UNL     1      24.412  -1.226  55.864  1.00  0.00     0.233 A 
HETATM   10  N2  UNL     1      25.645  -0.677  55.663  1.00  0.00    -0.243 NA
HETATM   11  C14 UNL     1      25.902  -0.050  54.494  1.00  0.00     0.077 A 
ENDROOT
BRANCH   7  12
HETATM   12  C9  UNL     1      22.610  -0.498  52.745  1.00  0.00     0.090 C 
BRANCH  12  13
HETATM   13  C10 UNL     1      21.562   0.525  52.956  1.00  0.00     0.018 C 
HETATM   14  C11 UNL     1      21.265   1.806  52.624  1.00  0.00     0.104 C 
HETATM   15  F2  UNL     1      20.128   2.489  53.021  1.00  0.00    -0.210 F 
BRANCH  14  16
HETATM   16  C12 UNL     1      21.991   2.811  51.797  1.00  0.00     0.184 C 
HETATM   17 CL1  UNL     1      23.349   3.565  52.652  1.00  0.00    -0.123 Cl
ENDBRANCH  14  16
ENDBRANCH  12  13
ENDBRANCH   7  12
BRANCH   1  18
HETATM   18  O1  UNL     1      28.207  -0.545  54.816  1.00  0.00    -0.380 OA
BRANCH  18  19
HETATM   19  C2  UNL     1      29.218  -0.443  53.838  1.00  0.00     0.164 C 
HETATM   20  C1  UNL     1      29.739  -1.771  53.395  1.00  0.00     0.033 C 
ENDBRANCH  18  19
ENDBRANCH   1  18
TORSDOF 5
ENDMDL
MODEL 3
REMARK VINA RESULT:      -7.0      3.854      7.314
REMARK  5 active torsions:
REMARK  status: ('A' for Active; 'I' for Inactive)
REMARK    1  A    between atoms: C2_2  and  O1_3 
REMARK    2  A    between atoms: O1_3  and  C3_4 
REMARK    3  A    between atoms: C8_10  and  C9_11 
REMARK    4  A    between atoms: C9_11  and  C10_12 
REMARK    5  A    between atoms: C11_13  and  C12_15 
ROOT
HETATM    1  C3  UNL     1      26.585   0.097  54.033  1.00  0.00     0.180 A 
HETATM    2  C4  UNL     1      26.820   0.971  52.845  1.00  0.00     0.108 A 
HETATM    3  C5  UNL     1      25.543   1.193  52.135  1.00  0.00     0.097 A 
HETATM    4  F1  UNL     1      25.847   1.989  51.055  1.00  0.00    -0.211 F 
HETATM    5  C6  UNL     1      24.279   0.840  52.270  1.00  0.00     0.053 A 
HETATM    6  C7  UNL     1      24.037  -0.002  53.432  1.00  0.00     0.019 A 
HETATM    7  C8  UNL     1      22.790  -0.455  53.745  1.00  0.00     0.051 A 
HETATM    8  N1  UNL     1      22.638  -1.224  54.861  1.00  0.00    -0.245 NA
HETATM    9  C13 UNL     1      23.764  -1.480  55.577  1.00  0.00     0.233 A 
HETATM   10  N2  UNL     1      25.012  -1.027  55.263  1.00  0.00    -0.243 NA
HETATM   11  C14 UNL     1      25.174  -0.263  54.160  1.00  0.00     0.077 A 
ENDROOT
BRANCH   7  12
HETATM   12  C9  UNL     1      21.642  -0.138  52.894  1.00  0.00     0.090 C 
BRANCH  12  13
HETATM   13  C10 UNL     1      20.325  -0.563  53.419  1.00  0.00     0.018 C 
HETATM   14  C11 UNL     1      19.026  -0.658  53.041  1.00  0.00     0.104 C 
HETATM   15  F2  UNL     1      17.997  -1.129  53.838  1.00  0.00    -0.210 F 
BRANCH  14  16
HETATM   16  C12 UNL     1      18.338  -0.324  51.762  1.00  0.00     0.184 C 
HETATM   17 CL1  UNL     1      18.947   1.163  51.013  1.00  0.00    -0.123 Cl
ENDBRANCH  14  16
ENDBRANCH  12  13
ENDBRANCH   7  12
BRANCH   1  18
HETATM   18  O1  UNL     1      27.429  -1.015  54.057  1.00  0.00    -0.380 OA
BRANCH  18  19
HETATM   19  C2  UNL     1      28.509  -0.704  53.205  1.00  0.00     0.164 C 
HETATM   20  C1  UNL     1      29.807  -1.276  53.672  1.00  0.00     0.033 C 
ENDBRANCH  18  19
ENDBRANCH   1  18
TORSDOF 5
ENDMDL
MODEL 4
REMARK VINA RESULT:      -6.8      3.739      6.303
REMARK  5 active torsions:
REMARK  status: ('A' for Active; 'I' for Inactive)
REMARK    1  A    between atoms: C2_2  and  O1_3 
REMARK    2  A    between atoms: O1_3  and  C3_4 
REMARK    3  A    between atoms: C8_10  and  C9_11 
REMARK    4  A    between atoms: C9_11  and  C10_12 
REMARK    5  A    between atoms: C11_13  and  C12_15 
ROOT
HETATM    1  C3  UNL     1      26.869   0.366  53.561  1.00  0.00     0.180 A 
HETATM    2  C4  UNL     1      25.860  -0.474  54.273  1.00  0.00     0.108 A 
HETATM    3  C5  UNL     1      24.502  -0.100  53.824  1.00  0.00     0.097 A 
HETATM    4  F1  UNL     1      23.638  -0.903  54.532  1.00  0.00    -0.211 F 
HETATM    5  C6  UNL     1      23.955   0.751  52.978  1.00  0.00     0.053 A 
HETATM    6  C7  UNL     1      24.932   1.566  52.269  1.00  0.00     0.019 A 
HETATM    7  C8  UNL     1      24.557   2.493  51.342  1.00  0.00     0.051 A 
HETATM    8  N1  UNL     1      25.530   3.206  50.705  1.00  0.00    -0.245 NA
HETATM    9  C13 UNL     1      26.813   2.928  51.057  1.00  0.00     0.233 A 
HETATM   10  N2  UNL     1      27.186   2.000  51.985  1.00  0.00    -0.243 NA
HETATM   11  C14 UNL     1      26.231   1.287  52.622  1.00  0.00     0.077 A 
ENDROOT
BRANCH   7  12
HETATM   12  C9  UNL     1      23.143   2.732  51.049  1.00  0.00     0.090 C 
BRANCH  12  13
HETATM   13  C10 UNL     1      22.623   2.058  49.838  1.00  0.00     0.018 C 
HETATM   14  C11 UNL     1      21.525   1.396  49.397  1.00  0.00     0.104 C 
HETATM   15  F2  UNL     1      21.370   0.869  48.127  1.00  0.00    -0.210 F 
BRANCH  14  16
HETATM   16  C12 UNL     1      20.239   1.051  50.065  1.00  0.00     0.184 C 
HETATM   17 CL1  UNL     1      20.462   0.222  51.616  1.00  0.00    -0.123 Cl
ENDBRANCH  14  16
ENDBRANCH  12  13
ENDBRANCH   7  12
BRANCH   1  18
HETATM   18  O1  UNL     1      27.745   1.011  54.436  1.00  0.00    -0.380 OA
BRANCH  18  19
HETATM   19  C2  UNL     1      28.721   0.054  54.786  1.00  0.00     0.164 C 
HETATM   20  C1  UNL     1      29.621  -0.306  53.650  1.00  0.00     0.033 C 
ENDBRANCH  18  19
ENDBRANCH   1  18
TORSDOF 5
ENDMDL
MODEL 5
REMARK VINA RESULT:      -6.7      3.879      6.199
REMARK  5 active torsions:
REMARK  status: ('A' for Active; 'I' for Inactive)
REMARK    1  A    between atoms: C2_2  and  O1_3 
REMARK    2  A    between atoms: O1_3  and  C3_4 
REMARK    3  A    between atoms: C8_10  and  C9_11 
REMARK    4  A    between atoms: C9_11  and  C10_12 
REMARK    5  A    between atoms: C11_13  and  C12_15 
ROOT
HETATM    1  C3  UNL     1      26.652   0.296  53.609  1.00  0.00     0.180 A 
HETATM    2  C4  UNL     1      25.645  -0.574  54.286  1.00  0.00     0.108 A 
HETATM    3  C5  UNL     1      24.304  -0.305  53.724  1.00  0.00     0.097 A 
HETATM    4  F1  UNL     1      23.439  -1.129  54.405  1.00  0.00    -0.211 F 
HETATM    5  C6  UNL     1      23.773   0.474  52.802  1.00  0.00     0.053 A 
HETATM    6  C7  UNL     1      24.749   1.317  52.128  1.00  0.00     0.019 A 
HETATM    7  C8  UNL     1      24.391   2.178  51.133  1.00  0.00     0.051 A 
HETATM    8  N1  UNL     1      25.364   2.922  50.535  1.00  0.00    -0.245 NA
HETATM    9  C13 UNL     1      26.632   2.740  50.991  1.00  0.00     0.233 A 
HETATM   10  N2  UNL     1      26.989   1.877  51.986  1.00  0.00    -0.243 NA
HETATM   11  C14 UNL     1      26.033   1.134  52.585  1.00  0.00     0.077 A 
ENDROOT
BRANCH   7  12
HETATM   12  C9  UNL     1      22.991   2.316  50.729  1.00  0.00     0.090 C 
BRANCH  12  13
HETATM   13  C10 UNL     1      22.752   2.351  49.269  1.00  0.00     0.018 C 
HETATM   14  C11 UNL     1      22.549   3.234  48.260  1.00  0.00     0.104 C 
HETATM   15  F2  UNL     1      22.348   2.896  46.933  1.00  0.00    -0.210 F 
BRANCH  14  16
HETATM   16  C12 UNL     1      22.485   4.723  48.243  1.00  0.00     0.184 C 
HETATM   17 CL1  UNL     1      24.063   5.490  48.490  1.00  0.00    -0.123 Cl
ENDBRANCH  14  16
ENDBRANCH  12  13
ENDBRANCH   7  12
BRANCH   1  18
HETATM   18  O1  UNL     1      27.422   1.030  54.514  1.00  0.00    -0.380 OA
BRANCH  18  19
HETATM   19  C2  UNL     1      28.494   0.192  54.885  1.00  0.00     0.164 C 
HETATM   20  C1  UNL     1      29.404  -0.132  53.746  1.00  0.00     0.033 C 
ENDBRANCH  18  19
ENDBRANCH   1  18
TORSDOF 5
ENDMDL
MODEL 6
REMARK VINA RESULT:      -6.7      3.529      5.450
REMARK  5 active torsions:
REMARK  status: ('A' for Active; 'I' for Inactive)
REMARK    1  A    between atoms: C2_2  and  O1_3 
REMARK    2  A    between atoms: O1_3  and  C3_4 
REMARK    3  A    between atoms: C8_10  and  C9_11 
REMARK    4  A    between atoms: C9_11  and  C10_12 
REMARK    5  A    between atoms: C11_13  and  C12_15 
ROOT
HETATM    1  C3  UNL     1      24.418   4.951  50.290  1.00  0.00     0.180 A 
HETATM    2  C4  UNL     1      25.561   5.130  49.347  1.00  0.00     0.108 A 
HETATM    3  C5  UNL     1      26.520   4.018  49.516  1.00  0.00     0.097 A 
HETATM    4  F1  UNL     1      27.542   4.264  48.629  1.00  0.00    -0.211 F 
HETATM    5  C6  UNL     1      26.630   2.930  50.253  1.00  0.00     0.053 A 
HETATM    6  C7  UNL     1      25.513   2.739  51.167  1.00  0.00     0.019 A 
HETATM    7  C8  UNL     1      25.441   1.662  52.001  1.00  0.00     0.051 A 
HETATM    8  N1  UNL     1      24.355   1.541  52.815  1.00  0.00    -0.245 NA
HETATM    9  C13 UNL     1      23.420   2.523  52.727  1.00  0.00     0.233 A 
HETATM   10  N2  UNL     1      23.492   3.600  51.893  1.00  0.00    -0.243 NA
HETATM   11  C14 UNL     1      24.564   3.730  51.080  1.00  0.00     0.077 A 
ENDROOT
BRANCH   7  12
HETATM   12  C9  UNL     1      26.515   0.668  52.034  1.00  0.00     0.090 C 
BRANCH  12  13
HETATM   13  C10 UNL     1      27.147   0.460  53.357  1.00  0.00     0.018 C 
HETATM   14  C11 UNL     1      28.242  -0.109  53.918  1.00  0.00     0.104 C 
HETATM   15  F2  UNL     1      28.532  -0.115  55.271  1.00  0.00    -0.210 F 
BRANCH  14  16
HETATM   16  C12 UNL     1      29.393  -0.845  53.322  1.00  0.00     0.184 C 
HETATM   17 CL1  UNL     1      29.137  -2.597  53.250  1.00  0.00    -0.123 Cl
ENDBRANCH  14  16
ENDBRANCH  12  13
ENDBRANCH   7  12
BRANCH   1  18
HETATM   18  O1  UNL     1      24.189   6.080  51.078  1.00  0.00    -0.380 OA
BRANCH  18  19
HETATM   19  C2  UNL     1      23.291   6.888  50.352  1.00  0.00     0.164 C 
HETATM   20  C1  UNL     1      21.886   6.799  50.853  1.00  0.00     0.033 C 
ENDBRANCH  18  19
ENDBRANCH   1  18
TORSDOF 5
ENDMDL
MODEL 7
REMARK VINA RESULT:      -6.3      3.896      6.685
REMARK  5 active torsions:
REMARK  status: ('A' for Active; 'I' for Inactive)
REMARK    1  A    between atoms: C2_2  and  O1_3 
REMARK    2  A    between atoms: O1_3  and  C3_4 
REMARK    3  A    between atoms: C8_10  and  C9_11 
REMARK    4  A    between atoms: C9_11  and  C10_12 
REMARK    5  A    between atoms: C11_13  and  C12_15 
ROOT
HETATM    1  C3  UNL     1      26.850   0.617  53.456  1.00  0.00     0.180 A 
HETATM    2  C4  UNL     1      27.318   1.705  52.546  1.00  0.00     0.108 A 
HETATM    3  C5  UNL     1      26.155   2.321  51.875  1.00  0.00     0.097 A 
HETATM    4  F1  UNL     1      26.668   3.296  51.051  1.00  0.00    -0.211 F 
HETATM    5  C6  UNL     1      24.843   2.177  51.870  1.00  0.00     0.053 A 
HETATM    6  C7  UNL     1      24.376   1.127  52.763  1.00  0.00     0.019 A 
HETATM    7  C8  UNL     1      23.050   0.841  52.905  1.00  0.00     0.051 A 
HETATM    8  N1  UNL     1      22.687  -0.144  53.775  1.00  0.00    -0.245 NA
HETATM    9  C13 UNL     1      23.696  -0.769  54.438  1.00  0.00     0.233 A 
HETATM   10  N2  UNL     1      25.022  -0.481  54.295  1.00  0.00    -0.243 NA
HETATM   11  C14 UNL     1      25.394   0.494  53.436  1.00  0.00     0.077 A 
ENDROOT
BRANCH   7  12
HETATM   12  C9  UNL     1      22.041   1.560  52.127  1.00  0.00     0.090 C 
BRANCH  12  13
HETATM   13  C10 UNL     1      21.764   1.008  50.782  1.00  0.00     0.018 C 
HETATM   14  C11 UNL     1      21.956   1.294  49.470  1.00  0.00     0.104 C 
HETATM   15  F2  UNL     1      21.539   0.505  48.413  1.00  0.00    -0.210 F 
BRANCH  14  16
HETATM   16  C12 UNL     1      22.622   2.443  48.793  1.00  0.00     0.184 C 
HETATM   17 CL1  UNL     1      21.884   4.005  49.187  1.00  0.00    -0.123 Cl
ENDBRANCH  14  16
ENDBRANCH  12  13
ENDBRANCH   7  12
BRANCH   1  18
HETATM   18  O1  UNL     1      27.497  -0.598  53.218  1.00  0.00    -0.380 OA
BRANCH  18  19
HETATM   19  C2  UNL     1      28.719  -0.533  53.919  1.00  0.00     0.164 C 
HETATM   20  C1  UNL     1      29.749  -1.474  53.386  1.00  0.00     0.033 C 
ENDBRANCH  18  19
ENDBRANCH   1  18
TORSDOF 5
ENDMDL
MODEL 8
REMARK VINA RESULT:      -6.1      5.041      7.849
REMARK  5 active torsions:
REMARK  status: ('A' for Active; 'I' for Inactive)
REMARK    1  A    between atoms: C2_2  and  O1_3 
REMARK    2  A    between atoms: O1_3  and  C3_4 
REMARK    3  A    between atoms: C8_10  and  C9_11 
REMARK    4  A    between atoms: C9_11  and  C10_12 
REMARK    5  A    between atoms: C11_13  and  C12_15 
ROOT
HETATM    1  C3  UNL     1      25.745   6.782  49.491  1.00  0.00     0.180 A 
HETATM    2  C4  UNL     1      26.895   6.184  48.750  1.00  0.00     0.108 A 
HETATM    3  C5  UNL     1      26.946   4.730  49.009  1.00  0.00     0.097 A 
HETATM    4  F1  UNL     1      28.032   4.260  48.308  1.00  0.00    -0.211 F 
HETATM    5  C6  UNL     1      26.259   3.838  49.697  1.00  0.00     0.053 A 
HETATM    6  C7  UNL     1      25.129   4.410  50.414  1.00  0.00     0.019 A 
HETATM    7  C8  UNL     1      24.292   3.642  51.169  1.00  0.00     0.051 A 
HETATM    8  N1  UNL     1      23.243   4.245  51.796  1.00  0.00    -0.245 NA
HETATM    9  C13 UNL     1      23.119   5.586  51.613  1.00  0.00     0.233 A 
HETATM   10  N2  UNL     1      23.956   6.354  50.858  1.00  0.00    -0.243 NA
HETATM   11  C14 UNL     1      25.000   5.766  50.231  1.00  0.00     0.077 A 
ENDROOT
BRANCH   7  12
HETATM   12  C9  UNL     1      24.526   2.205  51.318  1.00  0.00     0.090 C 
BRANCH  12  13
HETATM   13  C10 UNL     1      23.321   1.351  51.213  1.00  0.00     0.018 C 
HETATM   14  C11 UNL     1      22.427   0.697  51.995  1.00  0.00     0.104 C 
HETATM   15  F2  UNL     1      21.359  -0.050  51.531  1.00  0.00    -0.210 F 
BRANCH  14  16
HETATM   16  C12 UNL     1      22.303   0.580  53.475  1.00  0.00     0.184 C 
HETATM   17 CL1  UNL     1      22.236  -1.100  54.037  1.00  0.00    -0.123 Cl
ENDBRANCH  14  16
ENDBRANCH  12  13
ENDBRANCH   7  12
BRANCH   1  18
HETATM   18  O1  UNL     1      26.126   7.861  50.292  1.00  0.00    -0.380 OA
BRANCH  18  19
HETATM   19  C2  UNL     1      27.119   8.554  49.568  1.00  0.00     0.164 C 
HETATM   20  C1  UNL     1      26.671   9.900  49.101  1.00  0.00     0.033 C 
ENDBRANCH  18  19
ENDBRANCH   1  18
TORSDOF 5
ENDMDL
MODEL 9
REMARK VINA RESULT:      -6.0      3.855      6.564
REMARK  5 active torsions:
REMARK  status: ('A' for Active; 'I' for Inactive)
REMARK    1  A    between atoms: C2_2  and  O1_3 
REMARK    2  A    between atoms: O1_3  and  C3_4 
REMARK    3  A    between atoms: C8_10  and  C9_11 
REMARK    4  A    between atoms: C9_11  and  C10_12 
REMARK    5  A    between atoms: C11_13  and  C12_15 
ROOT
HETATM    1  C3  UNL     1      26.439   1.011  53.234  1.00  0.00     0.180 A 
HETATM    2  C4  UNL     1      27.176   1.987  52.378  1.00  0.00     0.108 A 
HETATM    3  C5  UNL     1      26.268   2.517  51.339  1.00  0.00     0.097 A 
HETATM    4  F1  UNL     1      27.022   3.391  50.591  1.00  0.00    -0.211 F 
HETATM    5  C6  UNL     1      25.008   2.367  50.978  1.00  0.00     0.053 A 
HETATM    6  C7  UNL     1      24.277   1.426  51.814  1.00  0.00     0.019 A 
HETATM    7  C8  UNL     1      22.958   1.152  51.605  1.00  0.00     0.051 A 
HETATM    8  N1  UNL     1      22.335   0.273  52.441  1.00  0.00    -0.245 NA
HETATM    9  C13 UNL     1      23.097  -0.265  53.429  1.00  0.00     0.233 A 
HETATM   10  N2  UNL     1      24.417   0.010  53.638  1.00  0.00    -0.243 NA
HETATM   11  C14 UNL     1      25.045   0.880  52.815  1.00  0.00     0.077 A 
ENDROOT
BRANCH   7  12
HETATM   12  C9  UNL     1      22.231   1.771  50.496  1.00  0.00     0.090 C 
BRANCH  12  13
HETATM   13  C10 UNL     1      21.506   3.018  50.829  1.00  0.00     0.018 C 
HETATM   14  C11 UNL     1      21.638   4.365  50.738  1.00  0.00     0.104 C 
HETATM   15  F2  UNL     1      20.708   5.288  51.180  1.00  0.00    -0.210 F 
BRANCH  14  16
HETATM   16  C12 UNL     1      22.724   5.219  50.179  1.00  0.00     0.184 C 
HETATM   17 CL1  UNL     1      23.248   4.710  48.564  1.00  0.00    -0.123 Cl
ENDBRANCH  14  16
ENDBRANCH  12  13
ENDBRANCH   7  12
BRANCH   1  18
HETATM   18  O1  UNL     1      27.091  -0.220  53.328  1.00  0.00    -0.380 OA
BRANCH  18  19
HETATM   19  C2  UNL     1      28.452   0.075  53.549  1.00  0.00     0.164 C 
HETATM   20  C1  UNL     1      29.332  -1.130  53.475  1.00  0.00     0.033 C 
ENDBRANCH  18  19
ENDBRANCH   1  18
TORSDOF 5
ENDMDL
