MODEL 1
REMARK VINA RESULT:      -8.1      0.000      0.000
REMARK  8 active torsions:
REMARK  status: ('A' for Active; 'I' for Inactive)
REMARK    1  A    between atoms: C2_2  and  C3_3 
REMARK       I    between atoms: C3_3  and  N1_5 
REMARK    2  A    between atoms: N1_5  and  C4_6 
REMARK    3  A    between atoms: C4_6  and  C5_7 
REMARK    4  A    between atoms: C5_7  and  C6_8 
REMARK    5  A    between atoms: C6_8  and  C7_9 
REMARK    6  A    between atoms: C13_17  and  C14_18 
REMARK    7  A    between atoms: C14_18  and  C15_19 
REMARK    8  A    between atoms: C16_21  and  C17_22 
ROOT
HETATM    1  C7  UNL     1      23.545   0.770  53.191  1.00  0.00     0.110 A 
HETATM    2  O2  UNL     1      22.575   1.460  52.701  1.00  0.00    -0.320 OA
HETATM    3  C8  UNL     1      22.964   2.673  52.282  1.00  0.00     0.146 A 
HETATM    4  C9  UNL     1      24.184   2.349  52.681  1.00  0.00     0.116 A 
HETATM    5  C10 UNL     1      24.791   1.227  53.262  1.00  0.00     0.039 A 
HETATM    6  C11 UNL     1      26.245   1.542  53.457  1.00  0.00     0.133 C 
HETATM    7  N2  UNL     1      26.612   2.621  52.533  1.00  0.00    -0.399 N 
HETATM    8  C12 UNL     1      26.474   2.671  51.114  1.00  0.00     0.155 C 
HETATM    9  C13 UNL     1      25.942   3.543  50.236  1.00  0.00     0.066 C 
HETATM   10  N3  UNL     1      25.163   4.420  51.190  1.00  0.00    -0.392 N 
HETATM   11  C19 UNL     1      23.813   4.835  51.569  1.00  0.00     0.268 C 
HETATM   12  N4  UNL     1      22.895   3.806  51.789  1.00  0.00    -0.251 NA
HETATM   13  H11 UNL     1      27.048   3.570  52.502  1.00  0.00     0.158 HD
HETATM   14  H19 UNL     1      25.893   4.982  51.779  1.00  0.00     0.155 HD
ENDROOT
BRANCH   1  15
HETATM   15  C6  UNL     1      23.545  -0.457  53.707  1.00  0.00     0.014 C 
BRANCH  15  16
HETATM   16  C5  UNL     1      22.596  -1.194  54.442  1.00  0.00     0.016 C 
BRANCH  16  17
HETATM   17  C4  UNL     1      21.329  -1.225  54.610  1.00  0.00     0.091 C 
BRANCH  17  18
HETATM   18  N1  UNL     1      20.021  -1.398  54.148  1.00  0.00    -0.334 N 
HETATM   19  C3  UNL     1      18.956  -1.091  53.310  1.00  0.00     0.241 C 
HETATM   20  O1  UNL     1      19.317  -0.120  52.554  1.00  0.00    -0.269 OA
HETATM   21  H4  UNL     1      19.968  -2.137  54.923  1.00  0.00     0.168 HD
BRANCH  19  22
HETATM   22  C2  UNL     1      17.696  -1.857  53.387  1.00  0.00     0.048 C 
HETATM   23  C1  UNL     1      17.457  -3.186  53.597  1.00  0.00     0.037 C 
ENDBRANCH  19  22
ENDBRANCH  17  18
ENDBRANCH  16  17
ENDBRANCH  15  16
ENDBRANCH   1  15
BRANCH   9  24
HETATM   24  C14 UNL     1      25.330   4.561  49.320  1.00  0.00     0.019 C 
BRANCH  24  25
HETATM   25  C15 UNL     1      26.272   5.367  48.888  1.00  0.00    -0.008 A 
HETATM   26 BR1  UNL     1      25.728   7.076  48.218  1.00  0.00    -0.122 Br
HETATM   27  C16 UNL     1      27.487   5.789  48.495  1.00  0.00     0.095 A 
BRANCH  27  28
HETATM   28  C17 UNL     1      28.696   6.386  48.065  1.00  0.00     0.005 C 
HETATM   29  C18 UNL     1      29.827   5.397  48.023  1.00  0.00     0.012 C 
ENDBRANCH  27  28
ENDBRANCH  24  25
ENDBRANCH   9  24
TORSDOF 8
ENDMDL
MODEL 2
REMARK VINA RESULT:      -7.8      3.024      4.688
REMARK  8 active torsions:
REMARK  status: ('A' for Active; 'I' for Inactive)
REMARK    1  A    between atoms: C2_2  and  C3_3 
REMARK       I    between atoms: C3_3  and  N1_5 
REMARK    2  A    between atoms: N1_5  and  C4_6 
REMARK    3  A    between atoms: C4_6  and  C5_7 
REMARK    4  A    between atoms: C5_7  and  C6_8 
REMARK    5  A    between atoms: C6_8  and  C7_9 
REMARK    6  A    between atoms: C13_17  and  C14_18 
REMARK    7  A    between atoms: C14_18  and  C15_19 
REMARK    8  A    between atoms: C16_21  and  C17_22 
ROOT
HETATM    1  C7  UNL     1      23.769   1.927  52.422  1.00  0.00     0.110 A 
HETATM    2  O2  UNL     1      22.852   2.830  52.420  1.00  0.00    -0.320 OA
HETATM    3  C8  UNL     1      23.319   4.039  52.077  1.00  0.00     0.146 A 
HETATM    4  C9  UNL     1      24.511   3.475  51.959  1.00  0.00     0.116 A 
HETATM    5  C10 UNL     1      25.036   2.184  52.110  1.00  0.00     0.039 A 
HETATM    6  C11 UNL     1      26.505   2.249  51.817  1.00  0.00     0.133 C 
HETATM    7  N2  UNL     1      26.761   3.438  50.996  1.00  0.00    -0.399 N 
HETATM    8  C12 UNL     1      26.181   3.803  49.745  1.00  0.00     0.155 C 
HETATM    9  C13 UNL     1      25.579   4.904  49.256  1.00  0.00     0.066 C 
HETATM   10  N3  UNL     1      25.347   5.659  50.545  1.00  0.00    -0.392 N 
HETATM   11  C19 UNL     1      24.307   6.166  51.439  1.00  0.00     0.268 C 
HETATM   12  N4  UNL     1      23.323   5.249  51.816  1.00  0.00    -0.251 NA
HETATM   13  H11 UNL     1      27.345   4.303  50.954  1.00  0.00     0.158 HD
HETATM   14  H19 UNL     1      26.327   5.979  50.911  1.00  0.00     0.155 HD
ENDROOT
BRANCH   1  15
HETATM   15  C6  UNL     1      23.690   0.630  52.714  1.00  0.00     0.014 C 
BRANCH  15  16
HETATM   16  C5  UNL     1      24.307  -0.178  53.689  1.00  0.00     0.016 C 
BRANCH  16  17
HETATM   17  C4  UNL     1      25.458  -0.681  53.927  1.00  0.00     0.091 C 
BRANCH  17  18
HETATM   18  N1  UNL     1      26.854  -0.625  53.952  1.00  0.00    -0.334 N 
HETATM   19  C3  UNL     1      28.061  -0.051  54.333  1.00  0.00     0.241 C 
HETATM   20  O1  UNL     1      27.798   1.012  55.000  1.00  0.00    -0.269 OA
HETATM   21  H4  UNL     1      26.786  -1.496  53.330  1.00  0.00     0.168 HD
BRANCH  19  22
HETATM   22  C2  UNL     1      29.343  -0.686  53.966  1.00  0.00     0.048 C 
HETATM   23  C1  UNL     1      29.621  -1.892  53.388  1.00  0.00     0.037 C 
ENDBRANCH  19  22
ENDBRANCH  17  18
ENDBRANCH  16  17
ENDBRANCH  15  16
ENDBRANCH   1  15
BRANCH   9  24
HETATM   24  C14 UNL     1      24.921   6.165  48.783  1.00  0.00     0.019 C 
BRANCH  24  25
HETATM   25  C15 UNL     1      25.809   6.899  48.151  1.00  0.00    -0.008 A 
HETATM   26 BR1  UNL     1      25.156   8.367  47.110  1.00  0.00    -0.122 Br
HETATM   27  C16 UNL     1      26.992   7.285  47.642  1.00  0.00     0.095 A 
BRANCH  27  28
HETATM   28  C17 UNL     1      28.159   7.831  47.055  1.00  0.00     0.005 C 
HETATM   29  C18 UNL     1      29.401   7.112  47.502  1.00  0.00     0.012 C 
ENDBRANCH  27  28
ENDBRANCH  24  25
ENDBRANCH   9  24
TORSDOF 8
ENDMDL
MODEL 3
REMARK VINA RESULT:      -7.6      3.254      5.313
REMARK  8 active torsions:
REMARK  status: ('A' for Active; 'I' for Inactive)
REMARK    1  A    between atoms: C2_2  and  C3_3 
REMARK       I    between atoms: C3_3  and  N1_5 
REMARK    2  A    between atoms: N1_5  and  C4_6 
REMARK    3  A    between atoms: C4_6  and  C5_7 
REMARK    4  A    between atoms: C5_7  and  C6_8 
REMARK    5  A    between atoms: C6_8  and  C7_9 
REMARK    6  A    between atoms: C13_17  and  C14_18 
REMARK    7  A    between atoms: C14_18  and  C15_19 
REMARK    8  A    between atoms: C16_21  and  C17_22 
ROOT
HETATM    1  C7  UNL     1      23.767   1.769  52.524  1.00  0.00     0.110 A 
HETATM    2  O2  UNL     1      22.804   2.623  52.539  1.00  0.00    -0.320 OA
HETATM    3  C8  UNL     1      23.201   3.855  52.191  1.00  0.00     0.146 A 
HETATM    4  C9  UNL     1      24.420   3.355  52.053  1.00  0.00     0.116 A 
HETATM    5  C10 UNL     1      25.013   2.093  52.192  1.00  0.00     0.039 A 
HETATM    6  C11 UNL     1      26.473   2.236  51.876  1.00  0.00     0.133 C 
HETATM    7  N2  UNL     1      26.652   3.437  51.053  1.00  0.00    -0.399 N 
HETATM    8  C12 UNL     1      26.034   3.773  49.812  1.00  0.00     0.155 C 
HETATM    9  C13 UNL     1      25.367   4.842  49.336  1.00  0.00     0.066 C 
HETATM   10  N3  UNL     1      25.116   5.582  50.630  1.00  0.00    -0.392 N 
HETATM   11  C19 UNL     1      24.065   6.032  51.542  1.00  0.00     0.268 C 
HETATM   12  N4  UNL     1      23.137   5.064  51.933  1.00  0.00    -0.251 NA
HETATM   13  H11 UNL     1      27.189   4.332  51.004  1.00  0.00     0.158 HD
HETATM   14  H19 UNL     1      26.083   5.953  50.982  1.00  0.00     0.155 HD
ENDROOT
BRANCH   1  15
HETATM   15  C6  UNL     1      23.762   0.469  52.814  1.00  0.00     0.014 C 
BRANCH  15  16
HETATM   16  C5  UNL     1      24.368  -0.294  53.831  1.00  0.00     0.016 C 
BRANCH  16  17
HETATM   17  C4  UNL     1      25.539  -0.673  54.175  1.00  0.00     0.091 C 
BRANCH  17  18
HETATM   18  N1  UNL     1      26.933  -0.638  54.073  1.00  0.00    -0.334 N 
HETATM   19  C3  UNL     1      28.178  -0.082  54.341  1.00  0.00     0.241 C 
HETATM   20  O1  UNL     1      27.992   0.986  55.028  1.00  0.00    -0.269 OA
HETATM   21  H4  UNL     1      26.795  -1.508  53.462  1.00  0.00     0.168 HD
BRANCH  19  22
HETATM   22  C2  UNL     1      29.412  -0.737  53.862  1.00  0.00     0.048 C 
HETATM   23  C1  UNL     1      29.634  -1.988  53.359  1.00  0.00     0.037 C 
ENDBRANCH  19  22
ENDBRANCH  17  18
ENDBRANCH  16  17
ENDBRANCH  15  16
ENDBRANCH   1  15
BRANCH   9  24
HETATM   24  C14 UNL     1      24.636   6.068  48.876  1.00  0.00     0.019 C 
BRANCH  24  25
HETATM   25  C15 UNL     1      23.632   5.704  48.112  1.00  0.00    -0.008 A 
HETATM   26 BR1  UNL     1      23.004   6.972  46.822  1.00  0.00    -0.122 Br
HETATM   27  C16 UNL     1      22.599   4.978  47.649  1.00  0.00     0.095 A 
BRANCH  27  28
HETATM   28  C17 UNL     1      21.503   4.325  47.036  1.00  0.00     0.005 C 
HETATM   29  C18 UNL     1      21.492   2.851  47.327  1.00  0.00     0.012 C 
ENDBRANCH  27  28
ENDBRANCH  24  25
ENDBRANCH   9  24
TORSDOF 8
ENDMDL
MODEL 4
REMARK VINA RESULT:      -7.5      5.449      7.617
REMARK  8 active torsions:
REMARK  status: ('A' for Active; 'I' for Inactive)
REMARK    1  A    between atoms: C2_2  and  C3_3 
REMARK       I    between atoms: C3_3  and  N1_5 
REMARK    2  A    between atoms: N1_5  and  C4_6 
REMARK    3  A    between atoms: C4_6  and  C5_7 
REMARK    4  A    between atoms: C5_7  and  C6_8 
REMARK    5  A    between atoms: C6_8  and  C7_9 
REMARK    6  A    between atoms: C13_17  and  C14_18 
REMARK    7  A    between atoms: C14_18  and  C15_19 
REMARK    8  A    between atoms: C16_21  and  C17_22 
ROOT
HETATM    1  C7  UNL     1      26.781   4.367  49.165  1.00  0.00     0.110 A 
HETATM    2  O2  UNL     1      28.015   4.318  48.799  1.00  0.00    -0.320 OA
HETATM    3  C8  UNL     1      28.440   5.470  48.261  1.00  0.00     0.146 A 
HETATM    4  C9  UNL     1      27.220   5.943  48.467  1.00  0.00     0.116 A 
HETATM    5  C10 UNL     1      26.029   5.454  49.019  1.00  0.00     0.039 A 
HETATM    6  C11 UNL     1      25.003   6.545  48.935  1.00  0.00     0.133 C 
HETATM    7  N2  UNL     1      25.703   7.830  48.822  1.00  0.00    -0.399 N 
HETATM    8  C12 UNL     1      26.683   8.395  49.691  1.00  0.00     0.155 C 
HETATM    9  C13 UNL     1      27.912   8.923  49.529  1.00  0.00     0.066 C 
HETATM   10  N3  UNL     1      28.199   8.470  48.116  1.00  0.00    -0.392 N 
HETATM   11  C19 UNL     1      29.069   7.616  47.309  1.00  0.00     0.268 C 
HETATM   12  N4  UNL     1      29.204   6.295  47.744  1.00  0.00    -0.251 NA
HETATM   13  H11 UNL     1      25.762   8.689  48.231  1.00  0.00     0.158 HD
HETATM   14  H19 UNL     1      27.532   9.032  47.456  1.00  0.00     0.155 HD
ENDROOT
BRANCH   1  15
HETATM   15  C6  UNL     1      26.017   3.431  49.723  1.00  0.00     0.014 C 
BRANCH  15  16
HETATM   16  C5  UNL     1      26.150   2.644  50.885  1.00  0.00     0.016 C 
BRANCH  16  17
HETATM   17  C4  UNL     1      27.006   2.446  51.813  1.00  0.00     0.091 C 
BRANCH  17  18
HETATM   18  N1  UNL     1      27.744   1.617  52.662  1.00  0.00    -0.334 N 
HETATM   19  C3  UNL     1      28.543   1.386  53.776  1.00  0.00     0.241 C 
HETATM   20  O1  UNL     1      28.763   2.514  54.344  1.00  0.00    -0.269 OA
HETATM   21  H4  UNL     1      27.459   0.848  51.972  1.00  0.00     0.168 HD
BRANCH  19  22
HETATM   22  C2  UNL     1      28.970   0.015  54.122  1.00  0.00     0.048 C 
HETATM   23  C1  UNL     1      29.917  -0.802  53.572  1.00  0.00     0.037 C 
ENDBRANCH  19  22
ENDBRANCH  17  18
ENDBRANCH  16  17
ENDBRANCH  15  16
ENDBRANCH   1  15
BRANCH   9  24
HETATM   24  C14 UNL     1      29.272   9.498  49.271  1.00  0.00     0.019 C 
BRANCH  24  25
HETATM   25  C15 UNL     1      29.151  10.777  49.002  1.00  0.00    -0.008 A 
HETATM   26 BR1  UNL     1      30.735  11.721  48.485  1.00  0.00    -0.122 Br
HETATM   27  C16 UNL     1      28.600  12.002  48.922  1.00  0.00     0.095 A 
BRANCH  27  28
HETATM   28  C17 UNL     1      28.162  13.337  48.759  1.00  0.00     0.005 C 
HETATM   29  C18 UNL     1      27.568  13.573  47.399  1.00  0.00     0.012 C 
ENDBRANCH  27  28
ENDBRANCH  24  25
ENDBRANCH   9  24
TORSDOF 8
ENDMDL
MODEL 5
REMARK VINA RESULT:      -7.5      3.091      4.881
REMARK  8 active torsions:
REMARK  status: ('A' for Active; 'I' for Inactive)
REMARK    1  A    between atoms: C2_2  and  C3_3 
REMARK       I    between atoms: C3_3  and  N1_5 
REMARK    2  A    between atoms: N1_5  and  C4_6 
REMARK    3  A    between atoms: C4_6  and  C5_7 
REMARK    4  A    between atoms: C5_7  and  C6_8 
REMARK    5  A    between atoms: C6_8  and  C7_9 
REMARK    6  A    between atoms: C13_17  and  C14_18 
REMARK    7  A    between atoms: C14_18  and  C15_19 
REMARK    8  A    between atoms: C16_21  and  C17_22 
ROOT
HETATM    1  C7  UNL     1      22.871   2.051  51.741  1.00  0.00     0.110 A 
HETATM    2  O2  UNL     1      23.114   1.695  50.528  1.00  0.00    -0.320 OA
HETATM    3  C8  UNL     1      23.091   2.728  49.673  1.00  0.00     0.146 A 
HETATM    4  C9  UNL     1      22.805   3.499  50.712  1.00  0.00     0.116 A 
HETATM    5  C10 UNL     1      22.629   3.311  52.089  1.00  0.00     0.039 A 
HETATM    6  C11 UNL     1      22.314   4.646  52.697  1.00  0.00     0.133 C 
HETATM    7  N2  UNL     1      22.812   5.692  51.797  1.00  0.00    -0.399 N 
HETATM    8  C12 UNL     1      24.132   5.887  51.293  1.00  0.00     0.155 C 
HETATM    9  C13 UNL     1      24.671   6.068  50.071  1.00  0.00     0.066 C 
HETATM   10  N3  UNL     1      23.490   5.679  49.212  1.00  0.00    -0.392 N 
HETATM   11  C19 UNL     1      23.015   4.692  48.244  1.00  0.00     0.268 C 
HETATM   12  N4  UNL     1      23.172   3.352  48.607  1.00  0.00    -0.251 NA
HETATM   13  H11 UNL     1      22.512   6.550  51.282  1.00  0.00     0.158 HD
HETATM   14  H19 UNL     1      22.733   6.459  49.334  1.00  0.00     0.155 HD
ENDROOT
BRANCH   1  15
HETATM   15  C6  UNL     1      22.801   1.316  52.850  1.00  0.00     0.014 C 
BRANCH  15  16
HETATM   16  C5  UNL     1      23.417   0.113  53.249  1.00  0.00     0.016 C 
BRANCH  16  17
HETATM   17  C4  UNL     1      24.520  -0.271  53.768  1.00  0.00     0.091 C 
BRANCH  17  18
HETATM   18  N1  UNL     1      25.904  -0.187  53.941  1.00  0.00    -0.334 N 
HETATM   19  C3  UNL     1      27.069   0.496  54.269  1.00  0.00     0.241 C 
HETATM   20  O1  UNL     1      26.751   1.707  54.545  1.00  0.00    -0.269 OA
HETATM   21  H4  UNL     1      25.892  -1.207  53.610  1.00  0.00     0.168 HD
BRANCH  19  22
HETATM   22  C2  UNL     1      28.372  -0.199  54.269  1.00  0.00     0.048 C 
HETATM   23  C1  UNL     1      29.572   0.130  53.704  1.00  0.00     0.037 C 
ENDBRANCH  19  22
ENDBRANCH  17  18
ENDBRANCH  16  17
ENDBRANCH  15  16
ENDBRANCH   1  15
BRANCH   9  24
HETATM   24  C14 UNL     1      25.198   6.265  48.682  1.00  0.00     0.019 C 
BRANCH  24  25
HETATM   25  C15 UNL     1      26.420   5.790  48.617  1.00  0.00    -0.008 A 
HETATM   26 BR1  UNL     1      26.734   4.063  49.382  1.00  0.00    -0.122 Br
HETATM   27  C16 UNL     1      27.749   5.754  48.415  1.00  0.00     0.095 A 
BRANCH  27  28
HETATM   28  C17 UNL     1      29.139   5.553  48.241  1.00  0.00     0.005 C 
HETATM   29  C18 UNL     1      29.904   6.846  48.279  1.00  0.00     0.012 C 
ENDBRANCH  27  28
ENDBRANCH  24  25
ENDBRANCH   9  24
TORSDOF 8
ENDMDL
MODEL 6
REMARK VINA RESULT:      -7.3      3.764      8.100
REMARK  8 active torsions:
REMARK  status: ('A' for Active; 'I' for Inactive)
REMARK    1  A    between atoms: C2_2  and  C3_3 
REMARK       I    between atoms: C3_3  and  N1_5 
REMARK    2  A    between atoms: N1_5  and  C4_6 
REMARK    3  A    between atoms: C4_6  and  C5_7 
REMARK    4  A    between atoms: C5_7  and  C6_8 
REMARK    5  A    between atoms: C6_8  and  C7_9 
REMARK    6  A    between atoms: C13_17  and  C14_18 
REMARK    7  A    between atoms: C14_18  and  C15_19 
REMARK    8  A    between atoms: C16_21  and  C17_22 
ROOT
HETATM    1  C7  UNL     1      23.909   3.483  50.190  1.00  0.00     0.110 A 
HETATM    2  O2  UNL     1      23.448   3.902  51.316  1.00  0.00    -0.320 OA
HETATM    3  C8  UNL     1      22.114   3.796  51.400  1.00  0.00     0.146 A 
HETATM    4  C9  UNL     1      22.140   3.295  50.174  1.00  0.00     0.116 A 
HETATM    5  C10 UNL     1      23.130   2.997  49.228  1.00  0.00     0.039 A 
HETATM    6  C11 UNL     1      22.449   2.438  48.014  1.00  0.00     0.133 C 
HETATM    7  N2  UNL     1      21.137   1.918  48.418  1.00  0.00    -0.399 N 
HETATM    8  C12 UNL     1      20.827   0.950  49.418  1.00  0.00     0.155 C 
HETATM    9  C13 UNL     1      19.984   0.896  50.467  1.00  0.00     0.066 C 
HETATM   10  N3  UNL     1      19.603   2.356  50.561  1.00  0.00    -0.392 N 
HETATM   11  C19 UNL     1      19.697   3.544  51.409  1.00  0.00     0.268 C 
HETATM   12  N4  UNL     1      20.974   3.863  51.877  1.00  0.00    -0.251 NA
HETATM   13  H11 UNL     1      20.119   1.984  48.196  1.00  0.00     0.158 HD
HETATM   14  H19 UNL     1      18.991   2.586  49.684  1.00  0.00     0.155 HD
ENDROOT
BRANCH   1  15
HETATM   15  C6  UNL     1      25.162   3.438  49.742  1.00  0.00     0.014 C 
BRANCH  15  16
HETATM   16  C5  UNL     1      26.383   3.057  50.332  1.00  0.00     0.016 C 
BRANCH  16  17
HETATM   17  C4  UNL     1      26.821   2.693  51.476  1.00  0.00     0.091 C 
BRANCH  17  18
HETATM   18  N1  UNL     1      27.515   1.818  52.317  1.00  0.00    -0.334 N 
HETATM   19  C3  UNL     1      28.300   1.535  53.428  1.00  0.00     0.241 C 
HETATM   20  O1  UNL     1      28.578   2.646  54.007  1.00  0.00    -0.269 OA
HETATM   21  H4  UNL     1      27.190   1.072  51.619  1.00  0.00     0.168 HD
BRANCH  19  22
HETATM   22  C2  UNL     1      28.655   0.141  53.761  1.00  0.00     0.048 C 
HETATM   23  C1  UNL     1      29.838  -0.536  53.673  1.00  0.00     0.037 C 
ENDBRANCH  19  22
ENDBRANCH  17  18
ENDBRANCH  16  17
ENDBRANCH  15  16
ENDBRANCH   1  15
BRANCH   9  24
HETATM   24  C14 UNL     1      19.021   0.911  51.616  1.00  0.00     0.019 C 
BRANCH  24  25
HETATM   25  C15 UNL     1      19.371  -0.017  52.478  1.00  0.00    -0.008 A 
HETATM   26 BR1  UNL     1      17.997  -1.190  53.112  1.00  0.00    -0.122 Br
HETATM   27  C16 UNL     1      20.125  -0.701  53.356  1.00  0.00     0.095 A 
BRANCH  27  28
HETATM   28  C17 UNL     1      20.791  -1.530  54.290  1.00  0.00     0.005 C 
HETATM   29  C18 UNL     1      21.974  -0.841  54.910  1.00  0.00     0.012 C 
ENDBRANCH  27  28
ENDBRANCH  24  25
ENDBRANCH   9  24
TORSDOF 8
ENDMDL
MODEL 7
REMARK VINA RESULT:      -7.2      3.754      9.686
REMARK  8 active torsions:
REMARK  status: ('A' for Active; 'I' for Inactive)
REMARK    1  A    between atoms: C2_2  and  C3_3 
REMARK       I    between atoms: C3_3  and  N1_5 
REMARK    2  A    between atoms: N1_5  and  C4_6 
REMARK    3  A    between atoms: C4_6  and  C5_7 
REMARK    4  A    between atoms: C5_7  and  C6_8 
REMARK    5  A    between atoms: C6_8  and  C7_9 
REMARK    6  A    between atoms: C13_17  and  C14_18 
REMARK    7  A    between atoms: C14_18  and  C15_19 
REMARK    8  A    between atoms: C16_21  and  C17_22 
ROOT
HETATM    1  C7  UNL     1      26.499   3.812  49.894  1.00  0.00     0.110 A 
HETATM    2  O2  UNL     1      27.137   2.964  50.621  1.00  0.00    -0.320 OA
HETATM    3  C8  UNL     1      26.415   2.530  51.664  1.00  0.00     0.146 A 
HETATM    4  C9  UNL     1      25.442   3.321  51.237  1.00  0.00     0.116 A 
HETATM    5  C10 UNL     1      25.256   4.201  50.162  1.00  0.00     0.039 A 
HETATM    6  C11 UNL     1      23.881   4.788  50.284  1.00  0.00     0.133 C 
HETATM    7  N2  UNL     1      23.065   3.889  51.108  1.00  0.00    -0.399 N 
HETATM    8  C12 UNL     1      22.792   2.502  50.917  1.00  0.00     0.155 C 
HETATM    9  C13 UNL     1      22.875   1.397  51.684  1.00  0.00     0.066 C 
HETATM   10  N3  UNL     1      23.697   1.945  52.828  1.00  0.00    -0.392 N 
HETATM   11  C19 UNL     1      24.989   1.836  53.505  1.00  0.00     0.268 C 
HETATM   12  N4  UNL     1      26.118   1.896  52.685  1.00  0.00    -0.251 NA
HETATM   13  H11 UNL     1      22.458   3.870  51.958  1.00  0.00     0.158 HD
HETATM   14  H19 UNL     1      23.063   2.651  53.371  1.00  0.00     0.155 HD
ENDROOT
BRANCH   1  15
HETATM   15  C6  UNL     1      26.886   4.459  48.796  1.00  0.00     0.014 C 
BRANCH  15  16
HETATM   16  C5  UNL     1      27.832   5.475  48.558  1.00  0.00     0.016 C 
BRANCH  16  17
HETATM   17  C4  UNL     1      29.078   5.579  48.292  1.00  0.00     0.091 C 
BRANCH  17  18
HETATM   18  N1  UNL     1      30.273   5.102  47.748  1.00  0.00    -0.334 N 
HETATM   19  C3  UNL     1      31.620   4.766  47.827  1.00  0.00     0.241 C 
HETATM   20  O1  UNL     1      32.028   5.051  49.009  1.00  0.00    -0.269 OA
HETATM   21  H4  UNL     1      29.698   5.020  46.847  1.00  0.00     0.168 HD
BRANCH  19  22
HETATM   22  C2  UNL     1      32.315   4.174  46.666  1.00  0.00     0.048 C 
HETATM   23  C1  UNL     1      33.105   3.065  46.555  1.00  0.00     0.037 C 
ENDBRANCH  19  22
ENDBRANCH  17  18
ENDBRANCH  16  17
ENDBRANCH  15  16
ENDBRANCH   1  15
BRANCH   9  24
HETATM   24  C14 UNL     1      22.994   0.215  52.598  1.00  0.00     0.019 C 
BRANCH  24  25
HETATM   25  C15 UNL     1      21.795  -0.128  53.009  1.00  0.00    -0.008 A 
HETATM   26 BR1  UNL     1      21.674  -1.090  54.660  1.00  0.00    -0.122 Br
HETATM   27  C16 UNL     1      20.466  -0.337  52.987  1.00  0.00     0.095 A 
BRANCH  27  28
HETATM   28  C17 UNL     1      19.083  -0.604  53.124  1.00  0.00     0.005 C 
HETATM   29  C18 UNL     1      18.325  -0.301  51.863  1.00  0.00     0.012 C 
ENDBRANCH  27  28
ENDBRANCH  24  25
ENDBRANCH   9  24
TORSDOF 8
ENDMDL
MODEL 8
REMARK VINA RESULT:      -7.2      3.860      5.344
REMARK  8 active torsions:
REMARK  status: ('A' for Active; 'I' for Inactive)
REMARK    1  A    between atoms: C2_2  and  C3_3 
REMARK       I    between atoms: C3_3  and  N1_5 
REMARK    2  A    between atoms: N1_5  and  C4_6 
REMARK    3  A    between atoms: C4_6  and  C5_7 
REMARK    4  A    between atoms: C5_7  and  C6_8 
REMARK    5  A    between atoms: C6_8  and  C7_9 
REMARK    6  A    between atoms: C13_17  and  C14_18 
REMARK    7  A    between atoms: C14_18  and  C15_19 
REMARK    8  A    between atoms: C16_21  and  C17_22 
ROOT
HETATM    1  C7  UNL     1      19.874   0.536  51.610  1.00  0.00     0.110 A 
HETATM    2  O2  UNL     1      20.469   1.392  50.855  1.00  0.00    -0.320 OA
HETATM    3  C8  UNL     1      21.608   1.851  51.393  1.00  0.00     0.146 A 
HETATM    4  C9  UNL     1      21.358   1.068  52.432  1.00  0.00     0.116 A 
HETATM    5  C10 UNL     1      20.356   0.157  52.790  1.00  0.00     0.039 A 
HETATM    6  C11 UNL     1      20.699  -0.393  54.143  1.00  0.00     0.133 C 
HETATM    7  N2  UNL     1      22.139  -0.219  54.361  1.00  0.00    -0.399 N 
HETATM    8  C12 UNL     1      23.228  -0.673  53.559  1.00  0.00     0.155 C 
HETATM    9  C13 UNL     1      24.321  -0.101  53.019  1.00  0.00     0.066 C 
HETATM   10  N3  UNL     1      23.963   1.356  53.207  1.00  0.00    -0.392 N 
HETATM   11  C19 UNL     1      23.646   2.590  52.490  1.00  0.00     0.268 C 
HETATM   12  N4  UNL     1      22.662   2.491  51.504  1.00  0.00    -0.251 NA
HETATM   13  H11 UNL     1      22.831   0.182  55.034  1.00  0.00     0.158 HD
HETATM   14  H19 UNL     1      24.005   1.562  54.280  1.00  0.00     0.155 HD
ENDROOT
BRANCH   1  15
HETATM   15  C6  UNL     1      18.731  -0.122  51.422  1.00  0.00     0.014 C 
BRANCH  15  16
HETATM   16  C5  UNL     1      17.569  -0.278  52.202  1.00  0.00     0.016 C 
BRANCH  16  17
HETATM   17  C4  UNL     1      16.825  -1.225  52.633  1.00  0.00     0.091 C 
BRANCH  17  18
HETATM   18  N1  UNL     1      16.617  -2.533  53.078  1.00  0.00    -0.334 N 
HETATM   19  C3  UNL     1      15.945  -3.749  53.067  1.00  0.00     0.241 C 
HETATM   20  O1  UNL     1      14.976  -3.657  52.232  1.00  0.00    -0.269 OA
HETATM   21  H4  UNL     1      17.437  -2.318  53.735  1.00  0.00     0.168 HD
BRANCH  19  22
HETATM   22  C2  UNL     1      16.402  -4.867  53.918  1.00  0.00     0.048 C 
HETATM   23  C1  UNL     1      15.717  -5.889  54.513  1.00  0.00     0.037 C 
ENDBRANCH  19  22
ENDBRANCH  17  18
ENDBRANCH  16  17
ENDBRANCH  15  16
ENDBRANCH   1  15
BRANCH   9  24
HETATM   24  C14 UNL     1      25.515   0.606  52.451  1.00  0.00     0.019 C 
BRANCH  24  25
HETATM   25  C15 UNL     1      26.606   0.044  52.919  1.00  0.00    -0.008 A 
HETATM   26 BR1  UNL     1      26.870  -1.814  52.539  1.00  0.00    -0.122 Br
HETATM   27  C16 UNL     1      27.735  -0.116  53.631  1.00  0.00     0.095 A 
BRANCH  27  28
HETATM   28  C17 UNL     1      28.940  -0.432  54.303  1.00  0.00     0.005 C 
HETATM   29  C18 UNL     1      30.146  -0.188  53.439  1.00  0.00     0.012 C 
ENDBRANCH  27  28
ENDBRANCH  24  25
ENDBRANCH   9  24
TORSDOF 8
ENDMDL
MODEL 9
REMARK VINA RESULT:      -7.0      3.200      4.863
REMARK  8 active torsions:
REMARK  status: ('A' for Active; 'I' for Inactive)
REMARK    1  A    between atoms: C2_2  and  C3_3 
REMARK       I    between atoms: C3_3  and  N1_5 
REMARK    2  A    between atoms: N1_5  and  C4_6 
REMARK    3  A    between atoms: C4_6  and  C5_7 
REMARK    4  A    between atoms: C5_7  and  C6_8 
REMARK    5  A    between atoms: C6_8  and  C7_9 
REMARK    6  A    between atoms: C13_17  and  C14_18 
REMARK    7  A    between atoms: C14_18  and  C15_19 
REMARK    8  A    between atoms: C16_21  and  C17_22 
ROOT
HETATM    1  C7  UNL     1      23.418   3.155  51.046  1.00  0.00     0.110 A 
HETATM    2  O2  UNL     1      22.751   4.255  51.066  1.00  0.00    -0.320 OA
HETATM    3  C8  UNL     1      23.539   5.338  51.006  1.00  0.00     0.146 A 
HETATM    4  C9  UNL     1      24.569   4.507  50.966  1.00  0.00     0.116 A 
HETATM    5  C10 UNL     1      24.745   3.117  50.968  1.00  0.00     0.039 A 
HETATM    6  C11 UNL     1      26.218   2.841  50.906  1.00  0.00     0.133 C 
HETATM    7  N2  UNL     1      26.886   4.021  50.345  1.00  0.00    -0.399 N 
HETATM    8  C12 UNL     1      26.644   4.682  49.105  1.00  0.00     0.155 C 
HETATM    9  C13 UNL     1      26.412   5.955  48.730  1.00  0.00     0.066 C 
HETATM   10  N3  UNL     1      26.130   6.570  50.082  1.00  0.00    -0.392 N 
HETATM   11  C19 UNL     1      25.090   7.205  50.891  1.00  0.00     0.268 C 
HETATM   12  N4  UNL     1      23.869   6.530  50.960  1.00  0.00    -0.251 NA
HETATM   13  H11 UNL     1      27.652   4.706  50.536  1.00  0.00     0.158 HD
HETATM   14  H19 UNL     1      27.073   6.578  50.635  1.00  0.00     0.155 HD
ENDROOT
BRANCH   1  15
HETATM   15  C6  UNL     1      22.990   1.895  51.097  1.00  0.00     0.014 C 
BRANCH  15  16
HETATM   16  C5  UNL     1      23.071   0.888  52.079  1.00  0.00     0.016 C 
BRANCH  16  17
HETATM   17  C4  UNL     1      23.920   0.442  52.925  1.00  0.00     0.091 C 
BRANCH  17  18
HETATM   18  N1  UNL     1      25.215   0.318  53.433  1.00  0.00    -0.334 N 
HETATM   19  C3  UNL     1      26.346   0.816  54.070  1.00  0.00     0.241 C 
HETATM   20  O1  UNL     1      26.141   2.056  54.324  1.00  0.00    -0.269 OA
HETATM   21  H4  UNL     1      25.144  -0.683  53.056  1.00  0.00     0.168 HD
BRANCH  19  22
HETATM   22  C2  UNL     1      27.499  -0.064  54.350  1.00  0.00     0.048 C 
HETATM   23  C1  UNL     1      28.747   0.208  54.834  1.00  0.00     0.037 C 
ENDBRANCH  19  22
ENDBRANCH  17  18
ENDBRANCH  16  17
ENDBRANCH  15  16
ENDBRANCH   1  15
BRANCH   9  24
HETATM   24  C14 UNL     1      26.160   7.394  48.390  1.00  0.00     0.019 C 
BRANCH  24  25
HETATM   25  C15 UNL     1      26.882   7.717  47.342  1.00  0.00    -0.008 A 
HETATM   26 BR1  UNL     1      28.751   7.309  47.401  1.00  0.00    -0.122 Br
HETATM   27  C16 UNL     1      27.215   8.277  46.165  1.00  0.00     0.095 A 
BRANCH  27  28
HETATM   28  C17 UNL     1      27.713   8.786  44.943  1.00  0.00     0.005 C 
HETATM   29  C18 UNL     1      26.712   8.656  43.830  1.00  0.00     0.012 C 
ENDBRANCH  27  28
ENDBRANCH  24  25
ENDBRANCH   9  24
TORSDOF 8
ENDMDL
