MODEL 1
REMARK VINA RESULT:      -7.9      0.000      0.000
REMARK  4 active torsions:
REMARK  status: ('A' for Active; 'I' for Inactive)
REMARK    1  A    between atoms: C2_2  and  C3_3 
REMARK    2  A    between atoms: N1_9  and  C7_10 
REMARK    3  A    between atoms: C7_10  and  C8_11 
REMARK    4  A    between atoms: C8_11  and  N2_12 
ROOT
HETATM    1  C3  UNL     1      21.474   4.783  50.560  1.00  0.00     0.155 C 
HETATM    2  C4  UNL     1      22.602   3.877  50.001  1.00  0.00     0.199 C 
HETATM    3  O1  UNL     1      23.544   3.483  50.689  1.00  0.00    -0.380 OA
HETATM    4  C5  UNL     1      24.526   3.103  51.396  1.00  0.00     0.270 C 
HETATM    5  C6  UNL     1      24.242   1.814  52.181  1.00  0.00     0.243 C 
HETATM    6  O2  UNL     1      23.202   2.272  51.929  1.00  0.00    -0.271 OA
HETATM    7  N1  UNL     1      23.984   0.636  52.898  1.00  0.00    -0.349 N 
HETATM    8  C14 UNL     1      22.758   0.272  53.560  1.00  0.00     0.129 C 
HETATM    9  C15 UNL     1      21.655  -0.353  52.829  1.00  0.00     0.066 C 
HETATM   10  C16 UNL     1      21.015   0.571  51.824  1.00  0.00     0.146 A 
HETATM   11  O3  UNL     1      20.462   1.392  51.064  1.00  0.00    -0.343 OA
HETATM   12  C17 UNL     1      20.465   1.685  52.679  1.00  0.00     0.284 A 
HETATM   13  N3  UNL     1      19.871   2.877  52.698  1.00  0.00    -0.248 NA
HETATM   14  C18 UNL     1      19.595   3.439  51.382  1.00  0.00     0.224 C 
HETATM   15  N4  UNL     1      20.798   3.944  51.544  1.00  0.00    -0.272 NA
ENDROOT
BRANCH   7  16
HETATM   16  C7  UNL     1      25.170  -0.131  53.021  1.00  0.00     0.156 C 
BRANCH  16  17
HETATM   17  C8  UNL     1      26.196   0.330  53.982  1.00  0.00     0.292 C 
BRANCH  17  18
HETATM   18  N2  UNL     1      27.338  -0.451  54.227  1.00  0.00     0.090 N 
HETATM   19  C9  UNL     1      27.824  -1.183  53.102  1.00  0.00     0.272 C 
HETATM   20  C10 UNL     1      29.253  -1.606  53.328  1.00  0.00     0.030 C 
HETATM   21  C11 UNL     1      30.197  -0.443  53.495  1.00  0.00     0.003 C 
HETATM   22  C12 UNL     1      29.412   0.797  53.879  1.00  0.00     0.030 C 
HETATM   23  C13 UNL     1      28.356   0.345  54.874  1.00  0.00     0.272 C 
ENDBRANCH  17  18
ENDBRANCH  16  17
ENDBRANCH   7  16
BRANCH   1  24
HETATM   24  C2  UNL     1      22.007   6.018  51.152  1.00  0.00    -0.008 C 
HETATM   25  C1  UNL     1      21.856   7.241  50.656  1.00  0.00     0.009 C 
ENDBRANCH   1  24
TORSDOF 4
ENDMDL
MODEL 2
REMARK VINA RESULT:      -7.6      1.483      3.540
REMARK  4 active torsions:
REMARK  status: ('A' for Active; 'I' for Inactive)
REMARK    1  A    between atoms: C2_2  and  C3_3 
REMARK    2  A    between atoms: N1_9  and  C7_10 
REMARK    3  A    between atoms: C7_10  and  C8_11 
REMARK    4  A    between atoms: C8_11  and  N2_12 
ROOT
HETATM    1  C3  UNL     1      19.830   1.267  52.701  1.00  0.00     0.155 C 
HETATM    2  C4  UNL     1      21.040   1.160  53.666  1.00  0.00     0.199 C 
HETATM    3  O1  UNL     1      22.128   0.699  53.323  1.00  0.00    -0.380 OA
HETATM    4  C5  UNL     1      23.239   0.197  52.971  1.00  0.00     0.270 C 
HETATM    5  C6  UNL     1      24.184   1.219  52.323  1.00  0.00     0.243 C 
HETATM    6  O2  UNL     1      23.113   1.660  52.216  1.00  0.00    -0.271 OA
HETATM    7  N1  UNL     1      25.049   2.152  51.731  1.00  0.00    -0.349 N 
HETATM    8  C14 UNL     1      24.697   3.205  50.815  1.00  0.00     0.129 C 
HETATM    9  C15 UNL     1      24.205   4.498  51.295  1.00  0.00     0.066 C 
HETATM   10  C16 UNL     1      22.850   4.408  51.950  1.00  0.00     0.146 A 
HETATM   11  O3  UNL     1      21.695   4.302  52.409  1.00  0.00    -0.343 OA
HETATM   12  C17 UNL     1      21.957   3.930  50.832  1.00  0.00     0.284 A 
HETATM   13  N3  UNL     1      20.739   3.514  50.488  1.00  0.00    -0.248 NA
HETATM   14  C18 UNL     1      19.786   3.451  51.588  1.00  0.00     0.224 C 
HETATM   15  N4  UNL     1      20.262   2.231  51.694  1.00  0.00    -0.272 NA
ENDROOT
BRANCH   7  16
HETATM   16  C7  UNL     1      26.396   1.837  52.045  1.00  0.00     0.156 C 
BRANCH  16  17
HETATM   17  C8  UNL     1      26.735   1.579  53.462  1.00  0.00     0.292 C 
BRANCH  17  18
HETATM   18  N2  UNL     1      27.256   0.333  53.849  1.00  0.00     0.090 N 
HETATM   19  C9  UNL     1      27.368  -0.630  52.801  1.00  0.00     0.272 C 
HETATM   20  C10 UNL     1      28.324  -1.727  53.195  1.00  0.00     0.030 C 
HETATM   21  C11 UNL     1      29.726  -1.231  53.441  1.00  0.00     0.003 C 
HETATM   22  C12 UNL     1      29.697   0.262  53.709  1.00  0.00     0.030 C 
HETATM   23  C13 UNL     1      28.484   0.516  54.589  1.00  0.00     0.272 C 
ENDBRANCH  17  18
ENDBRANCH  16  17
ENDBRANCH   7  16
BRANCH   1  24
HETATM   24  C2  UNL     1      19.482  -0.035  52.114  1.00  0.00    -0.008 C 
HETATM   25  C1  UNL     1      18.306  -0.642  52.223  1.00  0.00     0.009 C 
ENDBRANCH   1  24
TORSDOF 4
ENDMDL
MODEL 3
REMARK VINA RESULT:      -7.5      2.027      2.623
REMARK  4 active torsions:
REMARK  status: ('A' for Active; 'I' for Inactive)
REMARK    1  A    between atoms: C2_2  and  C3_3 
REMARK    2  A    between atoms: N1_9  and  C7_10 
REMARK    3  A    between atoms: C7_10  and  C8_11 
REMARK    4  A    between atoms: C8_11  and  N2_12 
ROOT
HETATM    1  C3  UNL     1      25.285   5.356  49.069  1.00  0.00     0.155 C 
HETATM    2  C4  UNL     1      26.059   4.013  49.137  1.00  0.00     0.199 C 
HETATM    3  O1  UNL     1      26.331   3.453  50.198  1.00  0.00    -0.380 OA
HETATM    4  C5  UNL     1      26.632   2.894  51.297  1.00  0.00     0.270 C 
HETATM    5  C6  UNL     1      25.522   1.977  51.831  1.00  0.00     0.243 C 
HETATM    6  O2  UNL     1      25.002   2.718  51.101  1.00  0.00    -0.271 OA
HETATM    7  N1  UNL     1      24.510   1.139  52.321  1.00  0.00    -0.349 N 
HETATM    8  C14 UNL     1      23.090   1.378  52.288  1.00  0.00     0.129 C 
HETATM    9  C15 UNL     1      22.292   1.059  51.103  1.00  0.00     0.066 C 
HETATM   10  C16 UNL     1      22.620   1.931  49.918  1.00  0.00     0.146 A 
HETATM   11  O3  UNL     1      22.864   2.727  48.988  1.00  0.00    -0.343 OA
HETATM   12  C17 UNL     1      22.254   3.314  50.394  1.00  0.00     0.284 A 
HETATM   13  N3  UNL     1      22.265   4.619  50.123  1.00  0.00    -0.248 NA
HETATM   14  C18 UNL     1      22.874   4.968  48.847  1.00  0.00     0.224 C 
HETATM   15  N4  UNL     1      23.960   5.029  49.585  1.00  0.00    -0.272 NA
ENDROOT
BRANCH   7  16
HETATM   16  C7  UNL     1      25.078   0.037  53.010  1.00  0.00     0.156 C 
BRANCH  16  17
HETATM   17  C8  UNL     1      26.037   0.323  54.100  1.00  0.00     0.292 C 
BRANCH  17  18
HETATM   18  N2  UNL     1      27.185  -0.470  54.259  1.00  0.00     0.090 N 
HETATM   19  C9  UNL     1      27.652  -1.105  53.068  1.00  0.00     0.272 C 
HETATM   20  C10 UNL     1      29.086  -1.539  53.232  1.00  0.00     0.030 C 
HETATM   21  C11 UNL     1      30.030  -0.389  53.475  1.00  0.00     0.003 C 
HETATM   22  C12 UNL     1      29.248   0.812  53.975  1.00  0.00     0.030 C 
HETATM   23  C13 UNL     1      28.214   0.274  54.950  1.00  0.00     0.272 C 
ENDBRANCH  17  18
ENDBRANCH  16  17
ENDBRANCH   7  16
BRANCH   1  24
HETATM   24  C2  UNL     1      25.945   6.409  49.853  1.00  0.00    -0.008 C 
HETATM   25  C1  UNL     1      25.729   7.713  49.733  1.00  0.00     0.009 C 
ENDBRANCH   1  24
TORSDOF 4
ENDMDL
MODEL 4
REMARK VINA RESULT:      -7.3      2.936      6.658
REMARK  4 active torsions:
REMARK  status: ('A' for Active; 'I' for Inactive)
REMARK    1  A    between atoms: C2_2  and  C3_3 
REMARK    2  A    between atoms: N1_9  and  C7_10 
REMARK    3  A    between atoms: C7_10  and  C8_11 
REMARK    4  A    between atoms: C8_11  and  N2_12 
ROOT
HETATM    1  C3  UNL     1      22.668  -0.988  54.346  1.00  0.00     0.155 C 
HETATM    2  C4  UNL     1      22.886  -0.832  52.818  1.00  0.00     0.199 C 
HETATM    3  O1  UNL     1      23.131   0.251  52.286  1.00  0.00    -0.380 OA
HETATM    4  C5  UNL     1      23.356   1.375  51.741  1.00  0.00     0.270 C 
HETATM    5  C6  UNL     1      24.844   1.750  51.725  1.00  0.00     0.243 C 
HETATM    6  O2  UNL     1      24.721   0.965  52.574  1.00  0.00    -0.271 OA
HETATM    7  N1  UNL     1      26.204   2.095  51.709  1.00  0.00    -0.349 N 
HETATM    8  C14 UNL     1      27.169   1.878  52.756  1.00  0.00     0.129 C 
HETATM    9  C15 UNL     1      27.860   0.597  52.901  1.00  0.00     0.066 C 
HETATM   10  C16 UNL     1      26.941  -0.527  53.307  1.00  0.00     0.146 A 
HETATM   11  O3  UNL     1      26.162  -1.409  53.722  1.00  0.00    -0.343 OA
HETATM   12  C17 UNL     1      26.437  -0.090  54.659  1.00  0.00     0.284 A 
HETATM   13  N3  UNL     1      25.603  -0.345  55.667  1.00  0.00    -0.248 NA
HETATM   14  C18 UNL     1      24.772  -1.528  55.482  1.00  0.00     0.224 C 
HETATM   15  N4  UNL     1      23.964  -0.653  54.927  1.00  0.00    -0.272 NA
ENDROOT
BRANCH   7  16
HETATM   16  C7  UNL     1      26.505   2.843  50.542  1.00  0.00     0.156 C 
BRANCH  16  17
HETATM   17  C8  UNL     1      25.561   3.909  50.141  1.00  0.00     0.292 C 
BRANCH  17  18
HETATM   18  N2  UNL     1      26.030   5.207  49.877  1.00  0.00     0.090 N 
HETATM   19  C9  UNL     1      26.906   5.319  48.755  1.00  0.00     0.272 C 
HETATM   20  C10 UNL     1      26.985   6.751  48.290  1.00  0.00     0.030 C 
HETATM   21  C11 UNL     1      25.658   7.297  47.826  1.00  0.00     0.003 C 
HETATM   22  C12 UNL     1      24.534   6.455  48.400  1.00  0.00     0.030 C 
HETATM   23  C13 UNL     1      24.925   6.137  49.833  1.00  0.00     0.272 C 
ENDBRANCH  17  18
ENDBRANCH  16  17
ENDBRANCH   7  16
BRANCH   1  24
HETATM   24  C2  UNL     1      21.594  -0.114  54.837  1.00  0.00    -0.008 C 
HETATM   25  C1  UNL     1      20.489   0.203  54.172  1.00  0.00     0.009 C 
ENDBRANCH   1  24
TORSDOF 4
ENDMDL
MODEL 5
REMARK VINA RESULT:      -7.2      3.119      6.416
REMARK  4 active torsions:
REMARK  status: ('A' for Active; 'I' for Inactive)
REMARK    1  A    between atoms: C2_2  and  C3_3 
REMARK    2  A    between atoms: N1_9  and  C7_10 
REMARK    3  A    between atoms: C7_10  and  C8_11 
REMARK    4  A    between atoms: C8_11  and  N2_12 
ROOT
HETATM    1  C3  UNL     1      25.861  -0.134  53.996  1.00  0.00     0.155 C 
HETATM    2  C4  UNL     1      26.160   1.368  53.747  1.00  0.00     0.199 C 
HETATM    3  O1  UNL     1      26.363   1.831  52.624  1.00  0.00    -0.380 OA
HETATM    4  C5  UNL     1      26.599   2.296  51.467  1.00  0.00     0.270 C 
HETATM    5  C6  UNL     1      25.326   2.695  50.707  1.00  0.00     0.243 C 
HETATM    6  O2  UNL     1      24.988   1.934  51.520  1.00  0.00    -0.271 OA
HETATM    7  N1  UNL     1      24.164   3.060  50.011  1.00  0.00    -0.349 N 
HETATM    8  C14 UNL     1      22.906   2.359  49.990  1.00  0.00     0.129 C 
HETATM    9  C15 UNL     1      21.909   2.553  51.044  1.00  0.00     0.066 C 
HETATM   10  C16 UNL     1      22.355   2.023  52.383  1.00  0.00     0.146 A 
HETATM   11  O3  UNL     1      22.728   1.499  53.452  1.00  0.00    -0.343 OA
HETATM   12  C17 UNL     1      22.518   0.545  52.132  1.00  0.00     0.284 A 
HETATM   13  N3  UNL     1      22.919  -0.625  52.628  1.00  0.00    -0.248 NA
HETATM   14  C18 UNL     1      23.447  -0.561  53.984  1.00  0.00     0.224 C 
HETATM   15  N4  UNL     1      24.575  -0.354  53.343  1.00  0.00    -0.272 NA
ENDROOT
BRANCH   7  16
HETATM   16  C7  UNL     1      24.424   4.179  49.179  1.00  0.00     0.156 C 
BRANCH  16  17
HETATM   17  C8  UNL     1      24.807   5.451  49.830  1.00  0.00     0.292 C 
BRANCH  17  18
HETATM   18  N2  UNL     1      26.110   5.956  49.683  1.00  0.00     0.090 N 
HETATM   19  C9  UNL     1      26.938   5.241  48.765  1.00  0.00     0.272 C 
HETATM   20  C10 UNL     1      28.110   6.090  48.343  1.00  0.00     0.030 C 
HETATM   21  C11 UNL     1      27.700   7.350  47.624  1.00  0.00     0.003 C 
HETATM   22  C12 UNL     1      26.253   7.671  47.945  1.00  0.00     0.030 C 
HETATM   23  C13 UNL     1      26.067   7.378  49.425  1.00  0.00     0.272 C 
ENDBRANCH  17  18
ENDBRANCH  16  17
ENDBRANCH   7  16
BRANCH   1  24
HETATM   24  C2  UNL     1      26.918  -0.999  53.455  1.00  0.00    -0.008 C 
HETATM   25  C1  UNL     1      26.799  -1.797  52.400  1.00  0.00     0.009 C 
ENDBRANCH   1  24
TORSDOF 4
ENDMDL
MODEL 6
REMARK VINA RESULT:      -7.2      5.287      7.497
REMARK  4 active torsions:
REMARK  status: ('A' for Active; 'I' for Inactive)
REMARK    1  A    between atoms: C2_2  and  C3_3 
REMARK    2  A    between atoms: N1_9  and  C7_10 
REMARK    3  A    between atoms: C7_10  and  C8_11 
REMARK    4  A    between atoms: C8_11  and  N2_12 
ROOT
HETATM    1  C3  UNL     1      29.509   8.141  48.267  1.00  0.00     0.155 C 
HETATM    2  C4  UNL     1      28.608   7.135  47.503  1.00  0.00     0.199 C 
HETATM    3  O1  UNL     1      28.106   6.148  48.041  1.00  0.00    -0.380 OA
HETATM    4  C5  UNL     1      27.614   5.117  48.595  1.00  0.00     0.270 C 
HETATM    5  C6  UNL     1      26.272   5.388  49.288  1.00  0.00     0.243 C 
HETATM    6  O2  UNL     1      26.800   6.421  49.199  1.00  0.00    -0.271 OA
HETATM    7  N1  UNL     1      25.044   5.634  49.923  1.00  0.00    -0.349 N 
HETATM    8  C14 UNL     1      24.677   6.799  50.686  1.00  0.00     0.129 C 
HETATM    9  C15 UNL     1      24.178   8.010  50.033  1.00  0.00     0.066 C 
HETATM   10  C16 UNL     1      25.223   8.701  49.194  1.00  0.00     0.146 A 
HETATM   11  O3  UNL     1      26.138   9.286  48.578  1.00  0.00    -0.343 OA
HETATM   12  C17 UNL     1      26.275   9.089  50.202  1.00  0.00     0.284 A 
HETATM   13  N3  UNL     1      27.487   9.608  50.395  1.00  0.00    -0.248 NA
HETATM   14  C18 UNL     1      28.184   9.992  49.175  1.00  0.00     0.224 C 
HETATM   15  N4  UNL     1      28.613   8.752  49.242  1.00  0.00    -0.272 NA
ENDROOT
BRANCH   7  16
HETATM   16  C7  UNL     1      24.213   4.488  49.840  1.00  0.00     0.156 C 
BRANCH  16  17
HETATM   17  C8  UNL     1      24.135   3.603  51.023  1.00  0.00     0.292 C 
BRANCH  17  18
HETATM   18  N2  UNL     1      24.757   2.344  51.007  1.00  0.00     0.090 N 
HETATM   19  C9  UNL     1      26.119   2.335  51.436  1.00  0.00     0.272 C 
HETATM   20  C10 UNL     1      26.544   0.938  51.811  1.00  0.00     0.030 C 
HETATM   21  C11 UNL     1      25.753   0.367  52.960  1.00  0.00     0.003 C 
HETATM   22  C12 UNL     1      24.447   1.126  53.105  1.00  0.00     0.030 C 
HETATM   23  C13 UNL     1      23.936   1.374  51.696  1.00  0.00     0.272 C 
ENDBRANCH  17  18
ENDBRANCH  16  17
ENDBRANCH   7  16
BRANCH   1  24
HETATM   24  C2  UNL     1      30.656   7.476  48.901  1.00  0.00    -0.008 C 
HETATM   25  C1  UNL     1      31.683   8.088  49.478  1.00  0.00     0.009 C 
ENDBRANCH   1  24
TORSDOF 4
ENDMDL
MODEL 7
REMARK VINA RESULT:      -6.9      2.087      4.152
REMARK  4 active torsions:
REMARK  status: ('A' for Active; 'I' for Inactive)
REMARK    1  A    between atoms: C2_2  and  C3_3 
REMARK    2  A    between atoms: N1_9  and  C7_10 
REMARK    3  A    between atoms: C7_10  and  C8_11 
REMARK    4  A    between atoms: C8_11  and  N2_12 
ROOT
HETATM    1  C3  UNL     1      19.150   1.414  51.732  1.00  0.00     0.155 C 
HETATM    2  C4  UNL     1      20.189   2.077  52.674  1.00  0.00     0.199 C 
HETATM    3  O1  UNL     1      21.373   1.743  52.701  1.00  0.00    -0.380 OA
HETATM    4  C5  UNL     1      22.587   1.374  52.744  1.00  0.00     0.270 C 
HETATM    5  C6  UNL     1      23.469   2.083  51.706  1.00  0.00     0.243 C 
HETATM    6  O2  UNL     1      22.378   2.171  51.312  1.00  0.00    -0.271 OA
HETATM    7  N1  UNL     1      24.276   2.730  50.758  1.00  0.00    -0.349 N 
HETATM    8  C14 UNL     1      23.931   3.056  49.399  1.00  0.00     0.129 C 
HETATM    9  C15 UNL     1      23.188   4.275  49.074  1.00  0.00     0.066 C 
HETATM   10  C16 UNL     1      21.772   4.258  49.590  1.00  0.00     0.146 A 
HETATM   11  O3  UNL     1      20.584   4.169  49.963  1.00  0.00    -0.343 OA
HETATM   12  C17 UNL     1      21.150   3.098  48.855  1.00  0.00     0.284 A 
HETATM   13  N3  UNL     1      20.076   2.321  48.717  1.00  0.00    -0.248 NA
HETATM   14  C18 UNL     1      18.976   2.641  49.616  1.00  0.00     0.224 C 
HETATM   15  N4  UNL     1      19.597   1.782  50.393  1.00  0.00    -0.272 NA
ENDROOT
BRANCH   7  16
HETATM   16  C7  UNL     1      25.585   2.910  51.273  1.00  0.00     0.156 C 
BRANCH  16  17
HETATM   17  C8  UNL     1      26.518   1.763  51.210  1.00  0.00     0.292 C 
BRANCH  17  18
HETATM   18  N2  UNL     1      26.961   1.146  52.391  1.00  0.00     0.090 N 
HETATM   19  C9  UNL     1      26.463   1.721  53.599  1.00  0.00     0.272 C 
HETATM   20  C10 UNL     1      26.613   0.752  54.744  1.00  0.00     0.030 C 
HETATM   21  C11 UNL     1      25.832  -0.523  54.548  1.00  0.00     0.003 C 
HETATM   22  C12 UNL     1      25.512  -0.701  53.076  1.00  0.00     0.030 C 
HETATM   23  C13 UNL     1      26.758  -0.283  52.313  1.00  0.00     0.272 C 
ENDBRANCH  17  18
ENDBRANCH  16  17
ENDBRANCH   7  16
BRANCH   1  24
HETATM   24  C2  UNL     1      19.091  -0.042  51.920  1.00  0.00    -0.008 C 
HETATM   25  C1  UNL     1      18.033  -0.725  52.343  1.00  0.00     0.009 C 
ENDBRANCH   1  24
TORSDOF 4
ENDMDL
MODEL 8
REMARK VINA RESULT:      -6.9      2.049      6.534
REMARK  4 active torsions:
REMARK  status: ('A' for Active; 'I' for Inactive)
REMARK    1  A    between atoms: C2_2  and  C3_3 
REMARK    2  A    between atoms: N1_9  and  C7_10 
REMARK    3  A    between atoms: C7_10  and  C8_11 
REMARK    4  A    between atoms: C8_11  and  N2_12 
ROOT
HETATM    1  C3  UNL     1      25.485   0.294  53.851  1.00  0.00     0.155 C 
HETATM    2  C4  UNL     1      25.283   1.781  53.459  1.00  0.00     0.199 C 
HETATM    3  O1  UNL     1      25.189   2.156  52.291  1.00  0.00    -0.380 OA
HETATM    4  C5  UNL     1      25.121   2.540  51.083  1.00  0.00     0.270 C 
HETATM    5  C6  UNL     1      23.700   2.469  50.507  1.00  0.00     0.243 C 
HETATM    6  O2  UNL     1      23.716   1.737  51.411  1.00  0.00    -0.271 OA
HETATM    7  N1  UNL     1      22.401   2.406  49.979  1.00  0.00    -0.349 N 
HETATM    8  C14 UNL     1      21.421   1.374  50.202  1.00  0.00     0.129 C 
HETATM    9  C15 UNL     1      20.558   1.387  51.384  1.00  0.00     0.066 C 
HETATM   10  C16 UNL     1      21.313   1.158  52.668  1.00  0.00     0.146 A 
HETATM   11  O3  UNL     1      21.963   0.884  53.698  1.00  0.00    -0.343 OA
HETATM   12  C17 UNL     1      21.880  -0.228  52.494  1.00  0.00     0.284 A 
HETATM   13  N3  UNL     1      22.676  -1.172  52.996  1.00  0.00    -0.248 NA
HETATM   14  C18 UNL     1      23.332  -0.810  54.246  1.00  0.00     0.224 C 
HETATM   15  N4  UNL     1      24.252  -0.358  53.424  1.00  0.00    -0.272 NA
ENDROOT
BRANCH   7  16
HETATM   16  C7  UNL     1      22.202   3.454  49.045  1.00  0.00     0.156 C 
BRANCH  16  17
HETATM   17  C8  UNL     1      23.360   4.311  48.709  1.00  0.00     0.292 C 
BRANCH  17  18
HETATM   18  N2  UNL     1      23.272   5.706  48.849  1.00  0.00     0.090 N 
HETATM   19  C9  UNL     1      22.305   6.160  49.796  1.00  0.00     0.272 C 
HETATM   20  C10 UNL     1      22.593   7.584  50.199  1.00  0.00     0.030 C 
HETATM   21  C11 UNL     1      23.931   7.751  50.873  1.00  0.00     0.003 C 
HETATM   22  C12 UNL     1      24.822   6.572  50.530  1.00  0.00     0.030 C 
HETATM   23  C13 UNL     1      24.586   6.269  49.060  1.00  0.00     0.272 C 
ENDBRANCH  17  18
ENDBRANCH  16  17
ENDBRANCH   7  16
BRANCH   1  24
HETATM   24  C2  UNL     1      26.674  -0.285  53.209  1.00  0.00    -0.008 C 
HETATM   25  C1  UNL     1      26.688  -1.369  52.443  1.00  0.00     0.009 C 
ENDBRANCH   1  24
TORSDOF 4
ENDMDL
MODEL 9
REMARK VINA RESULT:      -6.8      2.024      2.981
REMARK  4 active torsions:
REMARK  status: ('A' for Active; 'I' for Inactive)
REMARK    1  A    between atoms: C2_2  and  C3_3 
REMARK    2  A    between atoms: N1_9  and  C7_10 
REMARK    3  A    between atoms: C7_10  and  C8_11 
REMARK    4  A    between atoms: C8_11  and  N2_12 
ROOT
HETATM    1  C3  UNL     1      19.291   1.069  50.969  1.00  0.00     0.155 C 
HETATM    2  C4  UNL     1      20.551   0.951  50.071  1.00  0.00     0.199 C 
HETATM    3  O1  UNL     1      21.501   1.730  50.149  1.00  0.00    -0.380 OA
HETATM    4  C5  UNL     1      22.465   2.552  50.215  1.00  0.00     0.270 C 
HETATM    5  C6  UNL     1      23.509   2.172  51.275  1.00  0.00     0.243 C 
HETATM    6  O2  UNL     1      22.528   1.627  51.582  1.00  0.00    -0.271 OA
HETATM    7  N1  UNL     1      24.464   1.827  52.243  1.00  0.00    -0.349 N 
HETATM    8  C14 UNL     1      24.218   1.283  53.553  1.00  0.00     0.129 C 
HETATM    9  C15 UNL     1      24.014  -0.152  53.755  1.00  0.00     0.066 C 
HETATM   10  C16 UNL     1      22.735  -0.658  53.139  1.00  0.00     0.146 A 
HETATM   11  O3  UNL     1      21.630  -1.020  52.685  1.00  0.00    -0.343 OA
HETATM   12  C17 UNL     1      21.666   0.097  53.888  1.00  0.00     0.284 A 
HETATM   13  N3  UNL     1      20.366   0.369  53.990  1.00  0.00    -0.248 NA
HETATM   14  C18 UNL     1      19.529  -0.289  52.996  1.00  0.00     0.224 C 
HETATM   15  N4  UNL     1      19.788   0.804  52.315  1.00  0.00    -0.272 NA
ENDROOT
BRANCH   7  16
HETATM   16  C7  UNL     1      25.758   2.223  51.816  1.00  0.00     0.156 C 
BRANCH  16  17
HETATM   17  C8  UNL     1      26.853   2.196  52.810  1.00  0.00     0.292 C 
BRANCH  17  18
HETATM   18  N2  UNL     1      27.968   1.365  52.612  1.00  0.00     0.090 N 
HETATM   19  C9  UNL     1      28.909   1.347  53.686  1.00  0.00     0.272 C 
HETATM   20  C10 UNL     1      29.794   0.130  53.589  1.00  0.00     0.030 C 
HETATM   21  C11 UNL     1      29.033  -1.167  53.695  1.00  0.00     0.003 C 
HETATM   22  C12 UNL     1      27.569  -0.924  53.378  1.00  0.00     0.030 C 
HETATM   23  C13 UNL     1      27.539   0.045  52.207  1.00  0.00     0.272 C 
ENDBRANCH  17  18
ENDBRANCH  16  17
ENDBRANCH   7  16
BRANCH   1  24
HETATM   24  C2  UNL     1      18.661   2.392  50.857  1.00  0.00    -0.008 C 
HETATM   25  C1  UNL     1      18.050   2.868  49.778  1.00  0.00     0.009 C 
ENDBRANCH   1  24
TORSDOF 4
ENDMDL
