MODEL 1
REMARK VINA RESULT:      -9.0      0.000      0.000
REMARK  3 active torsions:
REMARK  status: ('A' for Active; 'I' for Inactive)
REMARK    1  A    between atoms: C7_10  and  N2_11 
REMARK    2  A    between atoms: N2_11  and  C8_12 
REMARK    3  A    between atoms: C8_12  and  C9_13 
ROOT
HETATM    1  C1  UNL     1      29.426   0.260  53.637  1.00  0.00    -0.002 C 
HETATM    2  C2  UNL     1      28.902  -0.980  53.561  1.00  0.00     0.002 C 
HETATM    3  C3  UNL     1      27.529  -0.817  53.081  1.00  0.00     0.238 C 
HETATM    4  O1  UNL     1      26.606  -1.245  53.986  1.00  0.00    -0.230 OA
HETATM    5  O2  UNL     1      25.745  -0.185  54.138  1.00  0.00    -0.176 OA
HETATM    6  C4  UNL     1      25.645   0.824  53.161  1.00  0.00     0.212 A 
HETATM    7  N1  UNL     1      24.398   0.536  52.760  1.00  0.00    -0.234 NA
HETATM    8  C5  UNL     1      23.719   1.205  51.788  1.00  0.00     0.122 A 
HETATM    9  C6  UNL     1      24.379   2.249  51.184  1.00  0.00     0.049 A 
HETATM   10  C7  UNL     1      25.653   2.550  51.587  1.00  0.00     0.044 A 
HETATM   11  C15 UNL     1      26.334   1.882  52.561  1.00  0.00     0.046 A 
HETATM   12  C16 UNL     1      27.725   2.237  52.955  1.00  0.00     0.018 C 
HETATM   13  C17 UNL     1      28.754   1.502  53.330  1.00  0.00     0.001 C 
ENDROOT
BRANCH  10  14
HETATM   14  N2  UNL     1      26.355   3.611  50.963  1.00  0.00    -0.385 N 
HETATM   15  H7  UNL     1      26.730   4.479  51.368  1.00  0.00     0.160 HD
BRANCH  14  16
HETATM   16  C8  UNL     1      26.626   3.525  49.549  1.00  0.00     0.158 C 
BRANCH  16  17
HETATM   17  C9  UNL     1      27.036   4.789  48.946  1.00  0.00    -0.041 A 
HETATM   18  C10 UNL     1      26.041   5.743  48.825  1.00  0.00     0.009 A 
HETATM   19  C11 UNL     1      26.299   6.988  48.268  1.00  0.00     0.001 A 
HETATM   20  C12 UNL     1      27.567   7.312  47.814  1.00  0.00     0.000 A 
HETATM   21  C13 UNL     1      28.546   6.352  47.942  1.00  0.00     0.001 A 
HETATM   22  C14 UNL     1      28.292   5.102  48.499  1.00  0.00     0.009 A 
ENDBRANCH  16  17
ENDBRANCH  14  16
ENDBRANCH  10  14
TORSDOF 3
ENDMDL
MODEL 2
REMARK VINA RESULT:      -8.8      1.121      1.574
REMARK  3 active torsions:
REMARK  status: ('A' for Active; 'I' for Inactive)
REMARK    1  A    between atoms: C7_10  and  N2_11 
REMARK    2  A    between atoms: N2_11  and  C8_12 
REMARK    3  A    between atoms: C8_12  and  C9_13 
ROOT
HETATM    1  C1  UNL     1      29.039   0.918  53.582  1.00  0.00    -0.002 C 
HETATM    2  C2  UNL     1      28.889  -0.372  53.217  1.00  0.00     0.002 C 
HETATM    3  C3  UNL     1      27.460  -0.564  52.963  1.00  0.00     0.238 C 
HETATM    4  O1  UNL     1      26.898  -1.471  53.809  1.00  0.00    -0.230 OA
HETATM    5  O2  UNL     1      25.816  -0.821  54.352  1.00  0.00    -0.176 OA
HETATM    6  C4  UNL     1      25.238   0.297  53.719  1.00  0.00     0.212 A 
HETATM    7  N1  UNL     1      24.074  -0.285  53.398  1.00  0.00    -0.234 NA
HETATM    8  C5  UNL     1      23.053   0.330  52.740  1.00  0.00     0.122 A 
HETATM    9  C6  UNL     1      23.251   1.643  52.386  1.00  0.00     0.049 A 
HETATM   10  C7  UNL     1      24.438   2.245  52.710  1.00  0.00     0.044 A 
HETATM   11  C15 UNL     1      25.462   1.632  53.370  1.00  0.00     0.046 A 
HETATM   12  C16 UNL     1      26.740   2.324  53.687  1.00  0.00     0.018 C 
HETATM   13  C17 UNL     1      27.991   1.904  53.718  1.00  0.00     0.001 C 
ENDROOT
BRANCH  10  14
HETATM   14  N2  UNL     1      24.668   3.593  52.337  1.00  0.00    -0.385 N 
HETATM   15  H7  UNL     1      25.111   4.355  52.867  1.00  0.00     0.160 HD
BRANCH  14  16
HETATM   16  C8  UNL     1      24.248   4.030  51.029  1.00  0.00     0.158 C 
BRANCH  16  17
HETATM   17  C9  UNL     1      25.338   4.506  50.183  1.00  0.00    -0.041 A 
HETATM   18  C10 UNL     1      25.268   5.838  49.811  1.00  0.00     0.009 A 
HETATM   19  C11 UNL     1      26.242   6.414  49.008  1.00  0.00     0.001 A 
HETATM   20  C12 UNL     1      27.318   5.670  48.554  1.00  0.00     0.000 A 
HETATM   21  C13 UNL     1      27.374   4.348  48.932  1.00  0.00     0.001 A 
HETATM   22  C14 UNL     1      26.400   3.764  49.737  1.00  0.00     0.009 A 
ENDBRANCH  16  17
ENDBRANCH  14  16
ENDBRANCH  10  14
TORSDOF 3
ENDMDL
MODEL 3
REMARK VINA RESULT:      -8.1      2.729      6.750
REMARK  3 active torsions:
REMARK  status: ('A' for Active; 'I' for Inactive)
REMARK    1  A    between atoms: C7_10  and  N2_11 
REMARK    2  A    between atoms: N2_11  and  C8_12 
REMARK    3  A    between atoms: C8_12  and  C9_13 
ROOT
HETATM    1  C1  UNL     1      26.819   6.144  48.456  1.00  0.00    -0.002 C 
HETATM    2  C2  UNL     1      25.649   6.801  48.586  1.00  0.00     0.002 C 
HETATM    3  C3  UNL     1      24.747   5.895  49.302  1.00  0.00     0.238 C 
HETATM    4  O1  UNL     1      23.661   5.547  48.558  1.00  0.00    -0.230 OA
HETATM    5  O2  UNL     1      23.641   4.173  48.588  1.00  0.00    -0.176 OA
HETATM    6  C4  UNL     1      24.310   3.451  49.596  1.00  0.00     0.212 A 
HETATM    7  N1  UNL     1      23.214   2.966  50.197  1.00  0.00    -0.234 NA
HETATM    8  C5  UNL     1      23.223   2.155  51.291  1.00  0.00     0.122 A 
HETATM    9  C6  UNL     1      24.455   1.823  51.801  1.00  0.00     0.049 A 
HETATM   10  C7  UNL     1      25.579   2.315  51.192  1.00  0.00     0.044 A 
HETATM   11  C15 UNL     1      25.573   3.126  50.096  1.00  0.00     0.046 A 
HETATM   12  C16 UNL     1      26.822   3.649  49.479  1.00  0.00     0.018 C 
HETATM   13  C17 UNL     1      27.113   4.803  48.910  1.00  0.00     0.001 C 
ENDROOT
BRANCH  10  14
HETATM   14  N2  UNL     1      26.858   1.999  51.715  1.00  0.00    -0.385 N 
HETATM   15  H7  UNL     1      27.789   2.126  51.297  1.00  0.00     0.160 HD
BRANCH  14  16
HETATM   16  C8  UNL     1      26.942   1.411  53.029  1.00  0.00     0.158 C 
BRANCH  16  17
HETATM   17  C9  UNL     1      27.596   0.106  53.055  1.00  0.00    -0.041 A 
HETATM   18  C10 UNL     1      26.813  -0.962  52.653  1.00  0.00     0.009 A 
HETATM   19  C11 UNL     1      27.315  -2.256  52.632  1.00  0.00     0.001 A 
HETATM   20  C12 UNL     1      28.620  -2.517  53.014  1.00  0.00     0.000 A 
HETATM   21  C13 UNL     1      29.387  -1.444  53.410  1.00  0.00     0.001 A 
HETATM   22  C14 UNL     1      28.889  -0.144  53.435  1.00  0.00     0.009 A 
ENDBRANCH  16  17
ENDBRANCH  14  16
ENDBRANCH  10  14
TORSDOF 3
ENDMDL
MODEL 4
REMARK VINA RESULT:      -8.1      2.773      6.308
REMARK  3 active torsions:
REMARK  status: ('A' for Active; 'I' for Inactive)
REMARK    1  A    between atoms: C7_10  and  N2_11 
REMARK    2  A    between atoms: N2_11  and  C8_12 
REMARK    3  A    between atoms: C8_12  and  C9_13 
ROOT
HETATM    1  C1  UNL     1      26.462   4.050  49.704  1.00  0.00    -0.002 C 
HETATM    2  C2  UNL     1      25.414   4.816  49.339  1.00  0.00     0.002 C 
HETATM    3  C3  UNL     1      24.230   4.212  49.955  1.00  0.00     0.238 C 
HETATM    4  O1  UNL     1      23.330   3.774  49.032  1.00  0.00    -0.230 OA
HETATM    5  O2  UNL     1      23.090   2.464  49.370  1.00  0.00    -0.176 OA
HETATM    6  C4  UNL     1      23.358   1.980  50.665  1.00  0.00     0.212 A 
HETATM    7  N1  UNL     1      22.084   1.766  51.023  1.00  0.00    -0.234 NA
HETATM    8  C5  UNL     1      21.687   1.276  52.230  1.00  0.00     0.122 A 
HETATM    9  C6  UNL     1      22.682   0.985  53.133  1.00  0.00     0.049 A 
HETATM   10  C7  UNL     1      23.986   1.201  52.775  1.00  0.00     0.044 A 
HETATM   11  C15 UNL     1      24.386   1.692  51.567  1.00  0.00     0.046 A 
HETATM   12  C16 UNL     1      25.817   1.923  51.230  1.00  0.00     0.018 C 
HETATM   13  C17 UNL     1      26.419   2.857  50.519  1.00  0.00     0.001 C 
ENDROOT
BRANCH  10  14
HETATM   14  N2  UNL     1      25.024   0.925  53.700  1.00  0.00    -0.385 N 
HETATM   15  H7  UNL     1      25.541   1.566  54.318  1.00  0.00     0.160 HD
BRANCH  14  16
HETATM   16  C8  UNL     1      25.470  -0.437  53.855  1.00  0.00     0.158 C 
BRANCH  16  17
HETATM   17  C9  UNL     1      26.919  -0.599  53.788  1.00  0.00    -0.041 A 
HETATM   18  C10 UNL     1      27.654   0.295  54.547  1.00  0.00     0.009 A 
HETATM   19  C11 UNL     1      29.042   0.249  54.571  1.00  0.00     0.001 A 
HETATM   20  C12 UNL     1      29.733  -0.696  53.833  1.00  0.00     0.000 A 
HETATM   21  C13 UNL     1      28.987  -1.579  53.083  1.00  0.00     0.001 A 
HETATM   22  C14 UNL     1      27.596  -1.537  53.055  1.00  0.00     0.009 A 
ENDBRANCH  16  17
ENDBRANCH  14  16
ENDBRANCH  10  14
TORSDOF 3
ENDMDL
MODEL 5
REMARK VINA RESULT:      -8.1      1.740      3.399
REMARK  3 active torsions:
REMARK  status: ('A' for Active; 'I' for Inactive)
REMARK    1  A    between atoms: C7_10  and  N2_11 
REMARK    2  A    between atoms: N2_11  and  C8_12 
REMARK    3  A    between atoms: C8_12  and  C9_13 
ROOT
HETATM    1  C1  UNL     1      22.406  -0.713  54.261  1.00  0.00    -0.002 C 
HETATM    2  C2  UNL     1      23.124  -1.169  55.308  1.00  0.00     0.002 C 
HETATM    3  C3  UNL     1      24.489  -0.673  55.118  1.00  0.00     0.238 C 
HETATM    4  O1  UNL     1      25.392  -1.681  54.964  1.00  0.00    -0.230 OA
HETATM    5  O2  UNL     1      26.060  -1.377  53.802  1.00  0.00    -0.176 OA
HETATM    6  C4  UNL     1      26.078  -0.067  53.286  1.00  0.00     0.212 A 
HETATM    7  N1  UNL     1      27.382   0.167  53.489  1.00  0.00    -0.234 NA
HETATM    8  C5  UNL     1      28.022   1.326  53.172  1.00  0.00     0.122 A 
HETATM    9  C6  UNL     1      27.257   2.317  52.605  1.00  0.00     0.049 A 
HETATM   10  C7  UNL     1      25.923   2.086  52.395  1.00  0.00     0.044 A 
HETATM   11  C15 UNL     1      25.280   0.926  52.710  1.00  0.00     0.046 A 
HETATM   12  C16 UNL     1      23.824   0.727  52.476  1.00  0.00     0.018 C 
HETATM   13  C17 UNL     1      22.897   0.084  53.160  1.00  0.00     0.001 C 
ENDROOT
BRANCH  10  14
HETATM   14  N2  UNL     1      25.114   3.103  51.829  1.00  0.00    -0.385 N 
HETATM   15  H7  UNL     1      24.583   3.853  52.291  1.00  0.00     0.160 HD
BRANCH  14  16
HETATM   16  C8  UNL     1      24.972   3.157  50.395  1.00  0.00     0.158 C 
BRANCH  16  17
HETATM   17  C9  UNL     1      25.714   4.245  49.766  1.00  0.00    -0.041 A 
HETATM   18  C10 UNL     1      26.952   3.902  49.249  1.00  0.00     0.009 A 
HETATM   19  C11 UNL     1      27.758   4.844  48.625  1.00  0.00     0.001 A 
HETATM   20  C12 UNL     1      27.346   6.159  48.500  1.00  0.00     0.000 A 
HETATM   21  C13 UNL     1      26.112   6.484  49.019  1.00  0.00     0.001 A 
HETATM   22  C14 UNL     1      25.299   5.545  49.646  1.00  0.00     0.009 A 
ENDBRANCH  16  17
ENDBRANCH  14  16
ENDBRANCH  10  14
TORSDOF 3
ENDMDL
MODEL 6
REMARK VINA RESULT:      -8.0      2.961      6.918
REMARK  3 active torsions:
REMARK  status: ('A' for Active; 'I' for Inactive)
REMARK    1  A    between atoms: C7_10  and  N2_11 
REMARK    2  A    between atoms: N2_11  and  C8_12 
REMARK    3  A    between atoms: C8_12  and  C9_13 
ROOT
HETATM    1  C1  UNL     1      24.210   4.615  51.066  1.00  0.00    -0.002 C 
HETATM    2  C2  UNL     1      25.045   4.363  50.037  1.00  0.00     0.002 C 
HETATM    3  C3  UNL     1      25.678   3.074  50.328  1.00  0.00     0.238 C 
HETATM    4  O1  UNL     1      27.027   3.180  50.478  1.00  0.00    -0.230 OA
HETATM    5  O2  UNL     1      27.292   2.587  51.690  1.00  0.00    -0.176 OA
HETATM    6  C4  UNL     1      26.390   1.677  52.274  1.00  0.00     0.212 A 
HETATM    7  N1  UNL     1      27.164   0.588  52.156  1.00  0.00    -0.234 NA
HETATM    8  C5  UNL     1      26.814  -0.662  52.568  1.00  0.00     0.122 A 
HETATM    9  C6  UNL     1      25.573  -0.796  53.143  1.00  0.00     0.049 A 
HETATM   10  C7  UNL     1      24.777   0.312  53.267  1.00  0.00     0.044 A 
HETATM   11  C15 UNL     1      25.125   1.565  52.857  1.00  0.00     0.046 A 
HETATM   12  C16 UNL     1      24.218   2.736  53.000  1.00  0.00     0.018 C 
HETATM   13  C17 UNL     1      24.003   3.788  52.233  1.00  0.00     0.001 C 
ENDROOT
BRANCH  10  14
HETATM   14  N2  UNL     1      23.487   0.189  53.841  1.00  0.00    -0.385 N 
HETATM   15  H7  UNL     1      23.005   0.803  54.512  1.00  0.00     0.160 HD
BRANCH  14  16
HETATM   16  C8  UNL     1      22.668  -0.939  53.470  1.00  0.00     0.158 C 
BRANCH  16  17
HETATM   17  C9  UNL     1      21.363  -0.572  52.929  1.00  0.00    -0.041 A 
HETATM   18  C10 UNL     1      21.386   0.084  51.710  1.00  0.00     0.009 A 
HETATM   19  C11 UNL     1      20.212   0.487  51.087  1.00  0.00     0.001 A 
HETATM   20  C12 UNL     1      18.980   0.243  51.670  1.00  0.00     0.000 A 
HETATM   21  C13 UNL     1      18.975  -0.410  52.882  1.00  0.00     0.001 A 
HETATM   22  C14 UNL     1      20.148  -0.816  53.512  1.00  0.00     0.009 A 
ENDBRANCH  16  17
ENDBRANCH  14  16
ENDBRANCH  10  14
TORSDOF 3
ENDMDL
MODEL 7
REMARK VINA RESULT:      -7.9      3.479      6.849
REMARK  3 active torsions:
REMARK  status: ('A' for Active; 'I' for Inactive)
REMARK    1  A    between atoms: C7_10  and  N2_11 
REMARK    2  A    between atoms: N2_11  and  C8_12 
REMARK    3  A    between atoms: C8_12  and  C9_13 
ROOT
HETATM    1  C1  UNL     1      27.747   5.092  48.519  1.00  0.00    -0.002 C 
HETATM    2  C2  UNL     1      27.459   6.370  48.200  1.00  0.00     0.002 C 
HETATM    3  C3  UNL     1      26.160   6.664  48.811  1.00  0.00     0.238 C 
HETATM    4  O1  UNL     1      25.205   6.957  47.886  1.00  0.00    -0.230 OA
HETATM    5  O2  UNL     1      24.162   6.111  48.178  1.00  0.00    -0.176 OA
HETATM    6  C4  UNL     1      24.032   5.519  49.450  1.00  0.00     0.212 A 
HETATM    7  N1  UNL     1      22.923   6.176  49.819  1.00  0.00    -0.234 NA
HETATM    8  C5  UNL     1      22.287   6.017  51.012  1.00  0.00     0.122 A 
HETATM    9  C6  UNL     1      22.837   5.113  51.888  1.00  0.00     0.049 A 
HETATM   10  C7  UNL     1      23.970   4.437  51.518  1.00  0.00     0.044 A 
HETATM   11  C15 UNL     1      24.609   4.594  50.324  1.00  0.00     0.046 A 
HETATM   12  C16 UNL     1      25.847   3.847  49.973  1.00  0.00     0.018 C 
HETATM   13  C17 UNL     1      26.923   4.187  49.289  1.00  0.00     0.001 C 
ENDROOT
BRANCH  10  14
HETATM   14  N2  UNL     1      24.563   3.515  52.416  1.00  0.00    -0.385 N 
HETATM   15  H7  UNL     1      25.422   3.602  52.975  1.00  0.00     0.160 HD
BRANCH  14  16
HETATM   16  C8  UNL     1      23.917   2.243  52.630  1.00  0.00     0.158 C 
BRANCH  16  17
HETATM   17  C9  UNL     1      24.838   1.113  52.693  1.00  0.00    -0.041 A 
HETATM   18  C10 UNL     1      24.555   0.167  53.664  1.00  0.00     0.009 A 
HETATM   19  C11 UNL     1      25.354  -0.957  53.829  1.00  0.00     0.001 A 
HETATM   20  C12 UNL     1      26.460  -1.165  53.024  1.00  0.00     0.000 A 
HETATM   21  C13 UNL     1      26.728  -0.215  52.063  1.00  0.00     0.001 A 
HETATM   22  C14 UNL     1      25.932   0.913  51.893  1.00  0.00     0.009 A 
ENDBRANCH  16  17
ENDBRANCH  14  16
ENDBRANCH  10  14
TORSDOF 3
ENDMDL
MODEL 8
REMARK VINA RESULT:      -7.9      3.069      6.864
REMARK  3 active torsions:
REMARK  status: ('A' for Active; 'I' for Inactive)
REMARK    1  A    between atoms: C7_10  and  N2_11 
REMARK    2  A    between atoms: N2_11  and  C8_12 
REMARK    3  A    between atoms: C8_12  and  C9_13 
ROOT
HETATM    1  C1  UNL     1      28.356   6.392  48.125  1.00  0.00    -0.002 C 
HETATM    2  C2  UNL     1      27.655   7.526  48.323  1.00  0.00     0.002 C 
HETATM    3  C3  UNL     1      26.437   7.136  49.038  1.00  0.00     0.238 C 
HETATM    4  O1  UNL     1      25.308   7.396  48.322  1.00  0.00    -0.230 OA
HETATM    5  O2  UNL     1      24.623   6.205  48.302  1.00  0.00    -0.176 OA
HETATM    6  C4  UNL     1      24.871   5.200  49.257  1.00  0.00     0.212 A 
HETATM    7  N1  UNL     1      23.687   5.276  49.880  1.00  0.00    -0.234 NA
HETATM    8  C5  UNL     1      23.316   4.509  50.942  1.00  0.00     0.122 A 
HETATM    9  C6  UNL     1      24.239   3.595  51.393  1.00  0.00     0.049 A 
HETATM   10  C7  UNL     1      25.452   3.511  50.761  1.00  0.00     0.044 A 
HETATM   11  C15 UNL     1      25.825   4.278  49.698  1.00  0.00     0.046 A 
HETATM   12  C16 UNL     1      27.161   4.160  49.054  1.00  0.00     0.018 C 
HETATM   13  C17 UNL     1      27.968   5.056  48.518  1.00  0.00     0.001 C 
ENDROOT
BRANCH  10  14
HETATM   14  N2  UNL     1      26.423   2.588  51.225  1.00  0.00    -0.385 N 
HETATM   15  H7  UNL     1      27.310   2.296  50.793  1.00  0.00     0.160 HD
BRANCH  14  16
HETATM   16  C8  UNL     1      26.202   1.925  52.486  1.00  0.00     0.158 C 
BRANCH  16  17
HETATM   17  C9  UNL     1      27.213   0.925  52.816  1.00  0.00    -0.041 A 
HETATM   18  C10 UNL     1      28.397   1.423  53.333  1.00  0.00     0.009 A 
HETATM   19  C11 UNL     1      29.440   0.577  53.687  1.00  0.00     0.001 A 
HETATM   20  C12 UNL     1      29.325  -0.794  53.533  1.00  0.00     0.000 A 
HETATM   21  C13 UNL     1      28.141  -1.273  53.018  1.00  0.00     0.001 A 
HETATM   22  C14 UNL     1      27.092  -0.430  52.660  1.00  0.00     0.009 A 
ENDBRANCH  16  17
ENDBRANCH  14  16
ENDBRANCH  10  14
TORSDOF 3
ENDMDL
MODEL 9
REMARK VINA RESULT:      -7.8      4.512      6.954
REMARK  3 active torsions:
REMARK  status: ('A' for Active; 'I' for Inactive)
REMARK    1  A    between atoms: C7_10  and  N2_11 
REMARK    2  A    between atoms: N2_11  and  C8_12 
REMARK    3  A    between atoms: C8_12  and  C9_13 
ROOT
HETATM    1  C1  UNL     1      21.682   3.467  51.228  1.00  0.00    -0.002 C 
HETATM    2  C2  UNL     1      20.454   3.490  51.785  1.00  0.00     0.002 C 
HETATM    3  C3  UNL     1      20.357   2.287  52.614  1.00  0.00     0.238 C 
HETATM    4  O1  UNL     1      19.378   1.440  52.189  1.00  0.00    -0.230 OA
HETATM    5  O2  UNL     1      20.004   0.224  52.047  1.00  0.00    -0.176 OA
HETATM    6  C4  UNL     1      21.214  -0.060  52.709  1.00  0.00     0.212 A 
HETATM    7  N1  UNL     1      20.727  -0.990  53.542  1.00  0.00    -0.234 NA
HETATM    8  C5  UNL     1      21.461  -1.664  54.470  1.00  0.00     0.122 A 
HETATM    9  C6  UNL     1      22.797  -1.352  54.542  1.00  0.00     0.049 A 
HETATM   10  C7  UNL     1      23.303  -0.403  53.694  1.00  0.00     0.044 A 
HETATM   11  C15 UNL     1      22.571   0.273  52.764  1.00  0.00     0.046 A 
HETATM   12  C16 UNL     1      23.163   1.308  51.874  1.00  0.00     0.018 C 
HETATM   13  C17 UNL     1      22.689   2.443  51.398  1.00  0.00     0.001 C 
ENDROOT
BRANCH  10  14
HETATM   14  N2  UNL     1      24.675  -0.055  53.767  1.00  0.00    -0.385 N 
HETATM   15  H7  UNL     1      25.143   0.657  54.343  1.00  0.00     0.160 HD
BRANCH  14  16
HETATM   16  C8  UNL     1      25.616  -0.769  52.939  1.00  0.00     0.158 C 
BRANCH  16  17
HETATM   17  C9  UNL     1      27.013  -0.524  53.281  1.00  0.00    -0.041 A 
HETATM   18  C10 UNL     1      27.893  -1.545  52.965  1.00  0.00     0.009 A 
HETATM   19  C11 UNL     1      29.250  -1.438  53.239  1.00  0.00     0.001 A 
HETATM   20  C12 UNL     1      29.765  -0.301  53.837  1.00  0.00     0.000 A 
HETATM   21  C13 UNL     1      28.877   0.706  54.144  1.00  0.00     0.001 A 
HETATM   22  C14 UNL     1      27.516   0.604  53.873  1.00  0.00     0.009 A 
ENDBRANCH  16  17
ENDBRANCH  14  16
ENDBRANCH  10  14
TORSDOF 3
ENDMDL
