MODEL 1
REMARK VINA RESULT:      -9.5      0.000      0.000
REMARK  1 active torsions:
REMARK  status: ('A' for Active; 'I' for Inactive)
REMARK    1  A    between atoms: N1_1  and  C1_2 
ROOT
HETATM    1  C1  UNL     1      25.123   1.976  52.156  1.00  0.00     0.215 C 
HETATM    2  C2  UNL     1      25.075   3.054  51.148  1.00  0.00     0.172 C 
HETATM    3  N2  UNL     1      23.619   3.095  50.745  1.00  0.00    -0.359 N 
HETATM    4  C3  UNL     1      23.306   2.871  51.996  1.00  0.00     0.095 A 
HETATM    5  C4  UNL     1      22.187   2.219  51.385  1.00  0.00    -0.000 A 
HETATM    6  C5  UNL     1      21.941   2.161  49.999  1.00  0.00     0.000 A 
HETATM    7  C6  UNL     1      20.954   1.630  49.257  1.00  0.00     0.014 A 
HETATM    8  C7  UNL     1      21.176   1.834  47.938  1.00  0.00     0.001 A 
HETATM    9  C8  UNL     1      22.293   2.507  47.457  1.00  0.00     0.002 A 
HETATM   10  C9  UNL     1      23.288   3.038  48.246  1.00  0.00     0.030 A 
HETATM   11  C10 UNL     1      23.124   2.870  49.553  1.00  0.00     0.042 A 
HETATM   12  C11 UNL     1      21.511   1.552  52.297  1.00  0.00     0.027 C 
HETATM   13  C12 UNL     1      20.267   0.986  52.745  1.00  0.00     0.248 C 
HETATM   14  O1  UNL     1      19.351   1.671  52.259  1.00  0.00    -0.268 OA
HETATM   15  N3  UNL     1      20.780  -0.141  53.566  1.00  0.00    -0.356 N 
HETATM   16  C13 UNL     1      22.281  -0.366  53.438  1.00  0.00     0.134 C 
HETATM   17  C14 UNL     1      22.649   1.033  53.239  1.00  0.00     0.064 C 
HETATM   18  C15 UNL     1      23.997   1.554  52.985  1.00  0.00     0.070 A 
HETATM   19  C16 UNL     1      23.727   2.948  53.250  1.00  0.00     0.004 A 
HETATM   20  C17 UNL     1      24.936   0.566  53.363  1.00  0.00    -0.032 A 
HETATM   21  C18 UNL     1      25.277  -0.518  54.175  1.00  0.00     0.009 A 
HETATM   22  C19 UNL     1      26.363  -1.284  53.748  1.00  0.00     0.001 A 
HETATM   23  C20 UNL     1      27.173  -1.115  52.599  1.00  0.00     0.001 A 
HETATM   24  C21 UNL     1      26.794  -0.005  51.821  1.00  0.00     0.010 A 
HETATM   25  C22 UNL     1      25.709   0.740  52.280  1.00  0.00    -0.009 A 
HETATM   26  H9  UNL     1      19.975  -0.557  54.079  1.00  0.00     0.162 HD
ENDROOT
BRANCH   1  27
HETATM   27  N1  UNL     1      25.993   2.818  53.226  1.00  0.00     0.095 N 
HETATM   28  H1  UNL     1      26.632   3.367  52.660  1.00  0.00     0.314 HD
HETATM   29  H2  UNL     1      26.363   2.097  53.816  1.00  0.00     0.314 HD
ENDBRANCH   1  27
TORSDOF 1
ENDMDL
MODEL 2
REMARK VINA RESULT:      -8.8      9.817     12.380
REMARK  1 active torsions:
REMARK  status: ('A' for Active; 'I' for Inactive)
REMARK    1  A    between atoms: N1_1  and  C1_2 
ROOT
HETATM    1  C1  UNL     1      31.405   6.691  48.532  1.00  0.00     0.215 C 
HETATM    2  C2  UNL     1      32.567   6.002  49.127  1.00  0.00     0.172 C 
HETATM    3  N2  UNL     1      33.579   5.982  48.004  1.00  0.00    -0.359 N 
HETATM    4  C3  UNL     1      33.181   7.185  47.676  1.00  0.00     0.095 A 
HETATM    5  C4  UNL     1      33.550   6.727  46.370  1.00  0.00    -0.000 A 
HETATM    6  C5  UNL     1      34.108   5.466  46.081  1.00  0.00     0.000 A 
HETATM    7  C6  UNL     1      34.534   4.882  44.947  1.00  0.00     0.014 A 
HETATM    8  C7  UNL     1      34.992   3.632  45.190  1.00  0.00     0.001 A 
HETATM    9  C8  UNL     1      35.001   3.065  46.458  1.00  0.00     0.002 A 
HETATM   10  C9  UNL     1      34.556   3.692  47.600  1.00  0.00     0.030 A 
HETATM   11  C10 UNL     1      34.094   4.925  47.426  1.00  0.00     0.042 A 
HETATM   12  C11 UNL     1      33.147   7.596  45.466  1.00  0.00     0.027 C 
HETATM   13  C12 UNL     1      33.302   8.187  44.164  1.00  0.00     0.248 C 
HETATM   14  O1  UNL     1      34.505   8.107  43.862  1.00  0.00    -0.268 OA
HETATM   15  N3  UNL     1      31.894   8.577  43.891  1.00  0.00    -0.356 N 
HETATM   16  C13 UNL     1      30.896   8.043  44.910  1.00  0.00     0.134 C 
HETATM   17  C14 UNL     1      31.788   8.090  46.066  1.00  0.00     0.064 C 
HETATM   18  C15 UNL     1      31.473   7.647  47.429  1.00  0.00     0.070 A 
HETATM   19  C16 UNL     1      32.578   8.283  48.107  1.00  0.00     0.004 A 
HETATM   20  C17 UNL     1      30.068   7.549  47.554  1.00  0.00    -0.032 A 
HETATM   21  C18 UNL     1      28.796   7.982  47.175  1.00  0.00     0.009 A 
HETATM   22  C19 UNL     1      27.736   7.140  47.518  1.00  0.00     0.001 A 
HETATM   23  C20 UNL     1      27.770   5.902  48.202  1.00  0.00     0.001 A 
HETATM   24  C21 UNL     1      29.073   5.515  48.571  1.00  0.00     0.010 A 
HETATM   25  C22 UNL     1      30.105   6.381  48.216  1.00  0.00    -0.009 A 
HETATM   26  H9  UNL     1      31.885   9.158  43.027  1.00  0.00     0.162 HD
ENDROOT
BRANCH   1  27
HETATM   27  N1  UNL     1      31.171   7.685  49.784  1.00  0.00     0.095 N 
HETATM   28  H1  UNL     1      30.385   8.264  49.506  1.00  0.00     0.314 HD
HETATM   29  H2  UNL     1      32.073   8.111  49.891  1.00  0.00     0.314 HD
ENDBRANCH   1  27
TORSDOF 1
ENDMDL
MODEL 3
REMARK VINA RESULT:      -8.5      9.754     12.498
REMARK  1 active torsions:
REMARK  status: ('A' for Active; 'I' for Inactive)
REMARK    1  A    between atoms: N1_1  and  C1_2 
ROOT
HETATM    1  C1  UNL     1      30.604   7.244  47.893  1.00  0.00     0.215 C 
HETATM    2  C2  UNL     1      30.295   5.833  48.199  1.00  0.00     0.172 C 
HETATM    3  N2  UNL     1      31.659   5.201  48.356  1.00  0.00    -0.359 N 
HETATM    4  C3  UNL     1      32.057   6.296  48.951  1.00  0.00     0.095 A 
HETATM    5  C4  UNL     1      33.306   5.919  48.360  1.00  0.00    -0.000 A 
HETATM    6  C5  UNL     1      33.522   4.753  47.600  1.00  0.00     0.000 A 
HETATM    7  C6  UNL     1      34.606   4.228  47.001  1.00  0.00     0.014 A 
HETATM    8  C7  UNL     1      34.298   3.069  46.374  1.00  0.00     0.001 A 
HETATM    9  C8  UNL     1      33.018   2.529  46.372  1.00  0.00     0.002 A 
HETATM   10  C9  UNL     1      31.928   3.094  46.996  1.00  0.00     0.030 A 
HETATM   11  C10 UNL     1      32.168   4.235  47.632  1.00  0.00     0.042 A 
HETATM   12  C11 UNL     1      34.176   6.897  48.501  1.00  0.00     0.027 C 
HETATM   13  C12 UNL     1      35.544   7.329  48.600  1.00  0.00     0.248 C 
HETATM   14  O1  UNL     1      36.195   6.391  49.093  1.00  0.00    -0.268 OA
HETATM   15  N3  UNL     1      35.420   8.700  48.039  1.00  0.00    -0.356 N 
HETATM   16  C13 UNL     1      34.056   8.996  47.430  1.00  0.00     0.134 C 
HETATM   17  C14 UNL     1      33.275   8.167  48.342  1.00  0.00     0.064 C 
HETATM   18  C15 UNL     1      31.826   7.940  48.291  1.00  0.00     0.070 A 
HETATM   19  C16 UNL     1      31.664   7.376  49.610  1.00  0.00     0.004 A 
HETATM   20  C17 UNL     1      31.243   8.950  47.492  1.00  0.00    -0.032 A 
HETATM   21  C18 UNL     1      31.269  10.258  47.002  1.00  0.00     0.009 A 
HETATM   22  C19 UNL     1      30.458  10.512  45.894  1.00  0.00     0.001 A 
HETATM   23  C20 UNL     1      29.607   9.625  45.193  1.00  0.00     0.001 A 
HETATM   24  C21 UNL     1      29.609   8.324  45.732  1.00  0.00     0.010 A 
HETATM   25  C22 UNL     1      30.427   8.107  46.840  1.00  0.00    -0.009 A 
HETATM   26  H9  UNL     1      36.327   9.190  48.188  1.00  0.00     0.162 HD
ENDROOT
BRANCH   1  27
HETATM   27  N1  UNL     1      29.547   7.855  48.951  1.00  0.00     0.095 N 
HETATM   28  H1  UNL     1      28.695   7.325  48.796  1.00  0.00     0.314 HD
HETATM   29  H2  UNL     1      29.558   8.832  48.725  1.00  0.00     0.314 HD
ENDBRANCH   1  27
TORSDOF 1
ENDMDL
MODEL 4
REMARK VINA RESULT:      -8.4      2.704      4.810
REMARK  1 active torsions:
REMARK  status: ('A' for Active; 'I' for Inactive)
REMARK    1  A    between atoms: N1_1  and  C1_2 
ROOT
HETATM    1  C1  UNL     1      21.264   1.898  51.085  1.00  0.00     0.215 C 
HETATM    2  C2  UNL     1      20.522   2.920  50.322  1.00  0.00     0.172 C 
HETATM    3  N2  UNL     1      21.599   3.891  49.894  1.00  0.00    -0.359 N 
HETATM    4  C3  UNL     1      22.391   2.868  49.701  1.00  0.00     0.095 A 
HETATM    5  C4  UNL     1      23.386   3.831  50.068  1.00  0.00    -0.000 A 
HETATM    6  C5  UNL     1      23.132   5.185  50.365  1.00  0.00     0.000 A 
HETATM    7  C6  UNL     1      23.921   6.222  50.696  1.00  0.00     0.014 A 
HETATM    8  C7  UNL     1      23.189   7.343  50.894  1.00  0.00     0.001 A 
HETATM    9  C8  UNL     1      21.806   7.373  50.764  1.00  0.00     0.002 A 
HETATM   10  C9  UNL     1      21.027   6.290  50.424  1.00  0.00     0.030 A 
HETATM   11  C10 UNL     1      21.690   5.159  50.215  1.00  0.00     0.042 A 
HETATM   12  C11 UNL     1      24.545   3.229  50.237  1.00  0.00     0.027 C 
HETATM   13  C12 UNL     1      25.981   3.290  50.235  1.00  0.00     0.248 C 
HETATM   14  O1  UNL     1      26.314   4.167  49.419  1.00  0.00    -0.268 OA
HETATM   15  N3  UNL     1      26.284   2.240  51.242  1.00  0.00    -0.356 N 
HETATM   16  C13 UNL     1      25.056   1.717  51.976  1.00  0.00     0.134 C 
HETATM   17  C14 UNL     1      24.117   1.861  50.868  1.00  0.00     0.064 C 
HETATM   18  C15 UNL     1      22.678   1.576  50.901  1.00  0.00     0.070 A 
HETATM   19  C16 UNL     1      22.443   1.564  49.476  1.00  0.00     0.004 A 
HETATM   20  C17 UNL     1      22.408   0.764  52.026  1.00  0.00    -0.032 A 
HETATM   21  C18 UNL     1      22.835  -0.204  52.938  1.00  0.00     0.009 A 
HETATM   22  C19 UNL     1      22.070  -0.329  54.100  1.00  0.00     0.001 A 
HETATM   23  C20 UNL     1      20.915   0.392  54.485  1.00  0.00     0.001 A 
HETATM   24  C21 UNL     1      20.521   1.346  53.528  1.00  0.00     0.010 A 
HETATM   25  C22 UNL     1      21.304   1.441  52.379  1.00  0.00    -0.009 A 
HETATM   26  H9  UNL     1      27.311   2.074  51.233  1.00  0.00     0.162 HD
ENDROOT
BRANCH   1  27
HETATM   27  N1  UNL     1      20.566   0.637  50.353  1.00  0.00     0.095 N 
HETATM   28  H1  UNL     1      19.696   1.007  49.983  1.00  0.00     0.314 HD
HETATM   29  H2  UNL     1      20.531  -0.044  51.088  1.00  0.00     0.314 HD
ENDBRANCH   1  27
TORSDOF 1
ENDMDL
MODEL 5
REMARK VINA RESULT:      -8.3     10.050     12.449
REMARK  1 active torsions:
REMARK  status: ('A' for Active; 'I' for Inactive)
REMARK    1  A    between atoms: N1_1  and  C1_2 
ROOT
HETATM    1  C1  UNL     1      31.250   6.282  48.422  1.00  0.00     0.215 C 
HETATM    2  C2  UNL     1      31.926   5.041  47.996  1.00  0.00     0.172 C 
HETATM    3  N2  UNL     1      33.024   5.534  47.082  1.00  0.00    -0.359 N 
HETATM    4  C3  UNL     1      33.194   6.546  47.894  1.00  0.00     0.095 A 
HETATM    5  C4  UNL     1      33.570   7.196  46.674  1.00  0.00    -0.000 A 
HETATM    6  C5  UNL     1      33.628   6.576  45.410  1.00  0.00     0.000 A 
HETATM    7  C6  UNL     1      33.977   7.006  44.185  1.00  0.00     0.014 A 
HETATM    8  C7  UNL     1      33.857   6.015  43.272  1.00  0.00     0.001 A 
HETATM    9  C8  UNL     1      33.425   4.736  43.600  1.00  0.00     0.002 A 
HETATM   10  C9  UNL     1      33.074   4.328  44.867  1.00  0.00     0.030 A 
HETATM   11  C10 UNL     1      33.173   5.259  45.809  1.00  0.00     0.042 A 
HETATM   12  C11 UNL     1      33.703   8.489  46.884  1.00  0.00     0.027 C 
HETATM   13  C12 UNL     1      34.298   9.746  46.518  1.00  0.00     0.248 C 
HETATM   14  O1  UNL     1      35.405   9.498  46.010  1.00  0.00    -0.268 OA
HETATM   15  N3  UNL     1      33.227  10.675  46.963  1.00  0.00    -0.356 N 
HETATM   16  C13 UNL     1      31.941   9.978  47.387  1.00  0.00     0.134 C 
HETATM   17  C14 UNL     1      32.567   8.773  47.924  1.00  0.00     0.064 C 
HETATM   18  C15 UNL     1      31.876   7.602  48.475  1.00  0.00     0.070 A 
HETATM   19  C16 UNL     1      33.008   6.989  49.128  1.00  0.00     0.004 A 
HETATM   20  C17 UNL     1      30.547   7.972  48.784  1.00  0.00    -0.032 A 
HETATM   21  C18 UNL     1      29.632   8.956  49.168  1.00  0.00     0.009 A 
HETATM   22  C19 UNL     1      28.285   8.652  48.962  1.00  0.00     0.001 A 
HETATM   23  C20 UNL     1      27.712   7.479  48.417  1.00  0.00     0.001 A 
HETATM   24  C21 UNL     1      28.673   6.516  48.057  1.00  0.00     0.010 A 
HETATM   25  C22 UNL     1      30.008   6.851  48.279  1.00  0.00    -0.009 A 
HETATM   26  H9  UNL     1      33.595  11.647  46.890  1.00  0.00     0.162 HD
ENDROOT
BRANCH   1  27
HETATM   27  N1  UNL     1      31.215   5.897  49.991  1.00  0.00     0.095 N 
HETATM   28  H1  UNL     1      31.069   6.781  50.467  1.00  0.00     0.314 HD
HETATM   29  H2  UNL     1      32.088   5.418  50.113  1.00  0.00     0.314 HD
ENDBRANCH   1  27
TORSDOF 1
ENDMDL
MODEL 6
REMARK VINA RESULT:      -8.1      2.424      5.400
REMARK  1 active torsions:
REMARK  status: ('A' for Active; 'I' for Inactive)
REMARK    1  A    between atoms: N1_1  and  C1_2 
ROOT
HETATM    1  C1  UNL     1      23.780   4.423  49.819  1.00  0.00     0.215 C 
HETATM    2  C2  UNL     1      25.064   3.736  49.573  1.00  0.00     0.172 C 
HETATM    3  N2  UNL     1      24.995   2.527  50.478  1.00  0.00    -0.359 N 
HETATM    4  C3  UNL     1      23.725   2.424  50.180  1.00  0.00     0.095 A 
HETATM    5  C4  UNL     1      23.668   1.891  51.508  1.00  0.00    -0.000 A 
HETATM    6  C5  UNL     1      24.779   1.705  52.355  1.00  0.00     0.000 A 
HETATM    7  C6  UNL     1      24.923   1.206  53.595  1.00  0.00     0.014 A 
HETATM    8  C7  UNL     1      26.218   1.246  53.985  1.00  0.00     0.001 A 
HETATM    9  C8  UNL     1      27.233   1.748  53.181  1.00  0.00     0.002 A 
HETATM   10  C9  UNL     1      27.051   2.254  51.913  1.00  0.00     0.030 A 
HETATM   11  C10 UNL     1      25.798   2.240  51.472  1.00  0.00     0.042 A 
HETATM   12  C11 UNL     1      22.411   1.748  51.875  1.00  0.00     0.027 C 
HETATM   13  C12 UNL     1      21.429   1.080  52.685  1.00  0.00     0.248 C 
HETATM   14  O1  UNL     1      21.846  -0.071  52.900  1.00  0.00    -0.268 OA
HETATM   15  N3  UNL     1      20.427   2.169  52.822  1.00  0.00    -0.356 N 
HETATM   16  C13 UNL     1      20.900   3.514  52.286  1.00  0.00     0.134 C 
HETATM   17  C14 UNL     1      21.729   2.988  51.205  1.00  0.00     0.064 C 
HETATM   18  C15 UNL     1      22.556   3.771  50.280  1.00  0.00     0.070 A 
HETATM   19  C16 UNL     1      22.789   2.738  49.297  1.00  0.00     0.004 A 
HETATM   20  C17 UNL     1      22.123   5.116  50.321  1.00  0.00    -0.032 A 
HETATM   21  C18 UNL     1      21.094   6.041  50.518  1.00  0.00     0.009 A 
HETATM   22  C19 UNL     1      21.493   7.363  50.724  1.00  0.00     0.001 A 
HETATM   23  C20 UNL     1      22.801   7.902  50.759  1.00  0.00     0.001 A 
HETATM   24  C21 UNL     1      23.798   6.932  50.545  1.00  0.00     0.010 A 
HETATM   25  C22 UNL     1      23.365   5.624  50.340  1.00  0.00    -0.009 A 
HETATM   26  H9  UNL     1      19.578   1.769  53.271  1.00  0.00     0.162 HD
ENDROOT
BRANCH   1  27
HETATM   27  N1  UNL     1      23.436   4.648  48.256  1.00  0.00     0.095 N 
HETATM   28  H1  UNL     1      22.422   4.663  48.218  1.00  0.00     0.314 HD
HETATM   29  H2  UNL     1      23.928   3.893  47.817  1.00  0.00     0.314 HD
ENDBRANCH   1  27
TORSDOF 1
ENDMDL
MODEL 7
REMARK VINA RESULT:      -8.1      2.278      5.321
REMARK  1 active torsions:
REMARK  status: ('A' for Active; 'I' for Inactive)
REMARK    1  A    between atoms: N1_1  and  C1_2 
ROOT
HETATM    1  C1  UNL     1      22.740   2.814  50.601  1.00  0.00     0.215 C 
HETATM    2  C2  UNL     1      23.646   1.706  50.961  1.00  0.00     0.172 C 
HETATM    3  N2  UNL     1      22.709   0.633  51.467  1.00  0.00    -0.359 N 
HETATM    4  C3  UNL     1      21.866   0.981  50.527  1.00  0.00     0.095 A 
HETATM    5  C4  UNL     1      20.915   0.551  51.507  1.00  0.00    -0.000 A 
HETATM    6  C5  UNL     1      21.238   0.010  52.768  1.00  0.00     0.000 A 
HETATM    7  C6  UNL     1      20.500  -0.464  53.787  1.00  0.00     0.014 A 
HETATM    8  C7  UNL     1      21.289  -0.875  54.806  1.00  0.00     0.001 A 
HETATM    9  C8  UNL     1      22.676  -0.798  54.764  1.00  0.00     0.002 A 
HETATM   10  C9  UNL     1      23.402  -0.305  53.703  1.00  0.00     0.030 A 
HETATM   11  C10 UNL     1      22.681   0.114  52.669  1.00  0.00     0.042 A 
HETATM   12  C11 UNL     1      19.700   0.879  51.120  1.00  0.00     0.027 C 
HETATM   13  C12 UNL     1      18.283   0.635  51.154  1.00  0.00     0.248 C 
HETATM   14  O1  UNL     1      18.121  -0.580  51.356  1.00  0.00    -0.268 OA
HETATM   15  N3  UNL     1      17.781   2.015  50.923  1.00  0.00    -0.356 N 
HETATM   16  C13 UNL     1      18.867   3.082  50.962  1.00  0.00     0.134 C 
HETATM   17  C14 UNL     1      19.940   2.257  50.415  1.00  0.00     0.064 C 
HETATM   18  C15 UNL     1      21.338   2.659  50.221  1.00  0.00     0.070 A 
HETATM   19  C16 UNL     1      21.739   1.578  49.352  1.00  0.00     0.004 A 
HETATM   20  C17 UNL     1      21.406   4.071  50.257  1.00  0.00    -0.032 A 
HETATM   21  C18 UNL     1      20.797   5.308  50.033  1.00  0.00     0.009 A 
HETATM   22  C19 UNL     1      21.406   6.407  50.643  1.00  0.00     0.001 A 
HETATM   23  C20 UNL     1      22.560   6.444  51.460  1.00  0.00     0.001 A 
HETATM   24  C21 UNL     1      23.140   5.175  51.646  1.00  0.00     0.010 A 
HETATM   25  C22 UNL     1      22.510   4.101  51.020  1.00  0.00    -0.009 A 
HETATM   26  H9  UNL     1      16.751   1.961  50.776  1.00  0.00     0.162 HD
ENDROOT
BRANCH   1  27
HETATM   27  N1  UNL     1      23.418   3.092  49.161  1.00  0.00     0.095 N 
HETATM   28  H1  UNL     1      24.414   3.139  49.353  1.00  0.00     0.314 HD
HETATM   29  H2  UNL     1      22.943   3.921  48.858  1.00  0.00     0.314 HD
ENDBRANCH   1  27
TORSDOF 1
ENDMDL
MODEL 8
REMARK VINA RESULT:      -8.0      2.547      5.020
REMARK  1 active torsions:
REMARK  status: ('A' for Active; 'I' for Inactive)
REMARK    1  A    between atoms: N1_1  and  C1_2 
ROOT
HETATM    1  C1  UNL     1      22.849   5.454  50.833  1.00  0.00     0.215 C 
HETATM    2  C2  UNL     1      21.443   5.293  51.253  1.00  0.00     0.172 C 
HETATM    3  N2  UNL     1      21.384   3.865  51.747  1.00  0.00    -0.359 N 
HETATM    4  C3  UNL     1      22.575   4.035  52.262  1.00  0.00     0.095 A 
HETATM    5  C4  UNL     1      22.673   2.636  51.974  1.00  0.00    -0.000 A 
HETATM    6  C5  UNL     1      21.643   1.847  51.424  1.00  0.00     0.000 A 
HETATM    7  C6  UNL     1      21.542   0.542  51.116  1.00  0.00     0.014 A 
HETATM    8  C7  UNL     1      20.325   0.261  50.595  1.00  0.00     0.001 A 
HETATM    9  C8  UNL     1      19.340   1.224  50.418  1.00  0.00     0.002 A 
HETATM   10  C9  UNL     1      19.477   2.555  50.745  1.00  0.00     0.030 A 
HETATM   11  C10 UNL     1      20.652   2.893  51.263  1.00  0.00     0.042 A 
HETATM   12  C11 UNL     1      23.914   2.233  52.153  1.00  0.00     0.027 C 
HETATM   13  C12 UNL     1      24.838   1.173  52.455  1.00  0.00     0.248 C 
HETATM   14  O1  UNL     1      24.242   0.356  53.179  1.00  0.00    -0.268 OA
HETATM   15  N3  UNL     1      26.031   1.654  51.710  1.00  0.00    -0.356 N 
HETATM   16  C13 UNL     1      25.758   2.858  50.818  1.00  0.00     0.134 C 
HETATM   17  C14 UNL     1      24.737   3.471  51.663  1.00  0.00     0.064 C 
HETATM   18  C15 UNL     1      23.974   4.689  51.365  1.00  0.00     0.070 A 
HETATM   19  C16 UNL     1      23.454   4.929  52.690  1.00  0.00     0.004 A 
HETATM   20  C17 UNL     1      24.649   5.401  50.347  1.00  0.00    -0.032 A 
HETATM   21  C18 UNL     1      25.844   5.739  49.708  1.00  0.00     0.009 A 
HETATM   22  C19 UNL     1      25.718   6.315  48.442  1.00  0.00     0.001 A 
HETATM   23  C20 UNL     1      24.543   6.608  47.711  1.00  0.00     0.001 A 
HETATM   24  C21 UNL     1      23.367   6.257  48.402  1.00  0.00     0.010 A 
HETATM   25  C22 UNL     1      23.529   5.689  49.664  1.00  0.00    -0.009 A 
HETATM   26  H9  UNL     1      26.835   1.044  51.966  1.00  0.00     0.162 HD
ENDROOT
BRANCH   1  27
HETATM   27  N1  UNL     1      23.061   6.870  51.583  1.00  0.00     0.095 N 
HETATM   28  H1  UNL     1      23.009   6.645  52.571  1.00  0.00     0.314 HD
HETATM   29  H2  UNL     1      22.342   7.438  51.175  1.00  0.00     0.314 HD
ENDBRANCH   1  27
TORSDOF 1
ENDMDL
MODEL 9
REMARK VINA RESULT:      -7.9      5.525      7.520
REMARK  1 active torsions:
REMARK  status: ('A' for Active; 'I' for Inactive)
REMARK    1  A    between atoms: N1_1  and  C1_2 
ROOT
HETATM    1  C1  UNL     1      26.033   6.781  49.077  1.00  0.00     0.215 C 
HETATM    2  C2  UNL     1      26.922   7.898  48.701  1.00  0.00     0.172 C 
HETATM    3  N2  UNL     1      26.213   8.532  47.526  1.00  0.00    -0.359 N 
HETATM    4  C3  UNL     1      25.078   8.311  48.140  1.00  0.00     0.095 A 
HETATM    5  C4  UNL     1      24.606   8.202  46.793  1.00  0.00    -0.000 A 
HETATM    6  C5  UNL     1      25.395   8.391  45.640  1.00  0.00     0.000 A 
HETATM    7  C6  UNL     1      25.129   8.358  44.323  1.00  0.00     0.014 A 
HETATM    8  C7  UNL     1      26.245   8.602  43.597  1.00  0.00     0.001 A 
HETATM    9  C8  UNL     1      27.483   8.847  44.178  1.00  0.00     0.002 A 
HETATM   10  C9  UNL     1      27.721   8.873  45.534  1.00  0.00     0.030 A 
HETATM   11  C10 UNL     1      26.661   8.641  46.300  1.00  0.00     0.042 A 
HETATM   12  C11 UNL     1      23.370   7.749  46.792  1.00  0.00     0.027 C 
HETATM   13  C12 UNL     1      22.089   7.653  46.145  1.00  0.00     0.248 C 
HETATM   14  O1  UNL     1      21.939   8.683  45.465  1.00  0.00    -0.268 OA
HETATM   15  N3  UNL     1      21.639   6.335  46.662  1.00  0.00    -0.356 N 
HETATM   16  C13 UNL     1      22.713   5.572  47.426  1.00  0.00     0.134 C 
HETATM   17  C14 UNL     1      23.387   6.739  47.988  1.00  0.00     0.064 C 
HETATM   18  C15 UNL     1      24.595   6.732  48.822  1.00  0.00     0.070 A 
HETATM   19  C16 UNL     1      24.507   8.087  49.314  1.00  0.00     0.004 A 
HETATM   20  C17 UNL     1      24.775   5.428  49.337  1.00  0.00    -0.032 A 
HETATM   21  C18 UNL     1      24.223   4.215  49.756  1.00  0.00     0.009 A 
HETATM   22  C19 UNL     1      25.112   3.144  49.868  1.00  0.00     0.001 A 
HETATM   23  C20 UNL     1      26.504   3.115  49.615  1.00  0.00     0.001 A 
HETATM   24  C21 UNL     1      27.012   4.363  49.206  1.00  0.00     0.010 A 
HETATM   25  C22 UNL     1      26.098   5.410  49.109  1.00  0.00    -0.009 A 
HETATM   26  H9  UNL     1      20.644   6.204  46.384  1.00  0.00     0.162 HD
ENDROOT
BRANCH   1  27
HETATM   27  N1  UNL     1      26.051   7.110  50.659  1.00  0.00     0.095 N 
HETATM   28  H1  UNL     1      26.766   6.498  51.039  1.00  0.00     0.314 HD
HETATM   29  H2  UNL     1      25.095   6.960  50.921  1.00  0.00     0.314 HD
ENDBRANCH   1  27
TORSDOF 1
ENDMDL
