MODEL 1
REMARK VINA RESULT:      -8.0      0.000      0.000
REMARK  3 active torsions:
REMARK  status: ('A' for Active; 'I' for Inactive)
REMARK    1  A    between atoms: C2_2  and  O1_3 
REMARK    2  A    between atoms: O1_3  and  C3_4 
REMARK    3  A    between atoms: C5_6  and  C6_7 
ROOT
HETATM    1  C6  UNL     1      23.541   1.577  53.116  1.00  0.00     0.141 C 
HETATM    2  N1  UNL     1      22.333   1.339  53.269  1.00  0.00    -0.223 NA
HETATM    3  C7  UNL     1      21.663   0.306  53.948  1.00  0.00     0.246 C 
HETATM    4  N2  UNL     1      21.051  -0.301  52.910  1.00  0.00    -0.191 NA
HETATM    5  C8  UNL     1      21.252   0.211  51.684  1.00  0.00     0.043 C 
HETATM    6  C9  UNL     1      21.430   0.646  50.683  1.00  0.00    -0.016 C 
HETATM    7  C10 UNL     1      21.671   1.191  49.455  1.00  0.00     0.131 A 
HETATM    8  C11 UNL     1      21.560   1.371  48.218  1.00  0.00     0.047 A 
HETATM    9  C12 UNL     1      22.426   2.411  47.707  1.00  0.00     0.006 A 
HETATM   10  C13 UNL     1      23.253   3.112  48.440  1.00  0.00     0.039 A 
HETATM   11  C14 UNL     1      23.324   2.849  49.859  1.00  0.00     0.092 A 
HETATM   12  C15 UNL     1      23.852   3.137  50.994  1.00  0.00     0.127 C 
HETATM   13  N3  UNL     1      23.818   2.776  52.366  1.00  0.00    -0.347 N 
HETATM   14  O2  UNL     1      22.502   1.863  50.338  1.00  0.00    -0.300 OA
HETATM   15  H12 UNL     1      24.046   3.561  53.010  1.00  0.00     0.167 HD
ENDROOT
BRANCH   1  16
HETATM   16  C5  UNL     1      24.870   1.029  53.479  1.00  0.00     0.047 A 
HETATM   17  C4  UNL     1      26.146   1.522  54.010  1.00  0.00     0.050 A 
HETATM   18  C3  UNL     1      26.972   0.517  54.119  1.00  0.00     0.053 A 
HETATM   19  C17 UNL     1      26.366  -0.758  53.682  1.00  0.00     0.135 A 
HETATM   20  C16 UNL     1      25.003  -0.297  53.290  1.00  0.00     0.114 A 
HETATM   21  F1  UNL     1      24.267  -1.355  52.846  1.00  0.00    -0.209 F 
BRANCH  18  22
HETATM   22  O1  UNL     1      28.218   0.952  54.630  1.00  0.00    -0.355 OA
BRANCH  22  23
HETATM   23  C2  UNL     1      29.336   0.829  53.742  1.00  0.00     0.170 C 
HETATM   24  C1  UNL     1      29.880  -0.557  53.676  1.00  0.00     0.034 C 
ENDBRANCH  22  23
ENDBRANCH  18  22
ENDBRANCH   1  16
TORSDOF 3
ENDMDL
MODEL 2
REMARK VINA RESULT:      -7.5      2.475      6.317
REMARK  3 active torsions:
REMARK  status: ('A' for Active; 'I' for Inactive)
REMARK    1  A    between atoms: C2_2  and  O1_3 
REMARK    2  A    between atoms: O1_3  and  C3_4 
REMARK    3  A    between atoms: C5_6  and  C6_7 
ROOT
HETATM    1  C6  UNL     1      23.957   1.272  52.066  1.00  0.00     0.141 C 
HETATM    2  N1  UNL     1      23.788   0.098  52.429  1.00  0.00    -0.223 NA
HETATM    3  C7  UNL     1      22.716  -0.532  53.087  1.00  0.00     0.246 C 
HETATM    4  N2  UNL     1      23.320  -0.880  54.242  1.00  0.00    -0.191 NA
HETATM    5  C8  UNL     1      24.614  -0.551  54.391  1.00  0.00     0.043 C 
HETATM    6  C9  UNL     1      25.679  -0.271  54.495  1.00  0.00    -0.016 C 
HETATM    7  C10 UNL     1      26.989   0.093  54.609  1.00  0.00     0.131 A 
HETATM    8  C11 UNL     1      28.141   0.162  55.105  1.00  0.00     0.047 A 
HETATM    9  C12 UNL     1      29.060   0.954  54.317  1.00  0.00     0.006 A 
HETATM   10  C13 UNL     1      28.748   1.551  53.194  1.00  0.00     0.039 A 
HETATM   11  C14 UNL     1      27.402   1.424  52.685  1.00  0.00     0.092 A 
HETATM   12  C15 UNL     1      26.554   1.717  51.766  1.00  0.00     0.127 C 
HETATM   13  N3  UNL     1      25.204   1.507  51.383  1.00  0.00    -0.347 N 
HETATM   14  O2  UNL     1      26.535   0.671  53.435  1.00  0.00    -0.300 OA
HETATM   15  H12 UNL     1      25.054   1.520  50.353  1.00  0.00     0.167 HD
ENDROOT
BRANCH   1  16
HETATM   16  C5  UNL     1      23.268   2.585  52.081  1.00  0.00     0.047 A 
HETATM   17  C4  UNL     1      22.156   3.241  51.385  1.00  0.00     0.050 A 
HETATM   18  C3  UNL     1      22.019   4.451  51.858  1.00  0.00     0.053 A 
HETATM   19  C17 UNL     1      23.006   4.756  52.915  1.00  0.00     0.135 A 
HETATM   20  C16 UNL     1      23.759   3.470  52.969  1.00  0.00     0.114 A 
HETATM   21  F1  UNL     1      24.743   3.549  53.910  1.00  0.00    -0.209 F 
BRANCH  18  22
HETATM   22  O1  UNL     1      20.952   5.119  51.211  1.00  0.00    -0.355 OA
BRANCH  22  23
HETATM   23  C2  UNL     1      21.324   6.038  50.178  1.00  0.00     0.170 C 
HETATM   24  C1  UNL     1      21.616   7.407  50.691  1.00  0.00     0.034 C 
ENDBRANCH  22  23
ENDBRANCH  18  22
ENDBRANCH   1  16
TORSDOF 3
ENDMDL
MODEL 3
REMARK VINA RESULT:      -7.5      1.679      2.327
REMARK  3 active torsions:
REMARK  status: ('A' for Active; 'I' for Inactive)
REMARK    1  A    between atoms: C2_2  and  O1_3 
REMARK    2  A    between atoms: O1_3  and  C3_4 
REMARK    3  A    between atoms: C5_6  and  C6_7 
ROOT
HETATM    1  C6  UNL     1      23.199   1.524  52.227  1.00  0.00     0.141 C 
HETATM    2  N1  UNL     1      22.094   1.401  51.675  1.00  0.00    -0.223 NA
HETATM    3  C7  UNL     1      21.434   0.277  51.146  1.00  0.00     0.246 C 
HETATM    4  N2  UNL     1      21.390   0.622  49.842  1.00  0.00    -0.191 NA
HETATM    5  C8  UNL     1      21.934   1.799  49.492  1.00  0.00     0.043 C 
HETATM    6  C9  UNL     1      22.387   2.772  49.222  1.00  0.00    -0.016 C 
HETATM    7  C10 UNL     1      22.961   3.970  48.909  1.00  0.00     0.131 A 
HETATM    8  C11 UNL     1      23.291   4.955  48.204  1.00  0.00     0.047 A 
HETATM    9  C12 UNL     1      24.064   5.944  48.924  1.00  0.00     0.006 A 
HETATM   10  C13 UNL     1      24.399   5.847  50.185  1.00  0.00     0.039 A 
HETATM   11  C14 UNL     1      23.980   4.684  50.932  1.00  0.00     0.092 A 
HETATM   12  C15 UNL     1      23.974   4.054  52.051  1.00  0.00     0.127 C 
HETATM   13  N3  UNL     1      23.497   2.865  52.662  1.00  0.00    -0.347 N 
HETATM   14  O2  UNL     1      23.248   3.749  50.246  1.00  0.00    -0.300 OA
HETATM   15  H12 UNL     1      23.306   2.966  53.680  1.00  0.00     0.167 HD
ENDROOT
BRANCH   1  16
HETATM   16  C5  UNL     1      24.372   0.713  52.631  1.00  0.00     0.047 A 
HETATM   17  C4  UNL     1      25.776   0.554  52.238  1.00  0.00     0.050 A 
HETATM   18  C3  UNL     1      26.327  -0.352  53.000  1.00  0.00     0.053 A 
HETATM   19  C17 UNL     1      25.378  -0.908  53.986  1.00  0.00     0.135 A 
HETATM   20  C16 UNL     1      24.146  -0.139  53.648  1.00  0.00     0.114 A 
HETATM   21  F1  UNL     1      23.125  -0.517  54.469  1.00  0.00    -0.209 F 
BRANCH  18  22
HETATM   22  O1  UNL     1      27.686  -0.534  52.651  1.00  0.00    -0.355 OA
BRANCH  22  23
HETATM   23  C2  UNL     1      28.646  -0.064  53.604  1.00  0.00     0.170 C 
HETATM   24  C1  UNL     1      29.881  -0.897  53.648  1.00  0.00     0.034 C 
ENDBRANCH  22  23
ENDBRANCH  18  22
ENDBRANCH   1  16
TORSDOF 3
ENDMDL
MODEL 4
REMARK VINA RESULT:      -7.4      2.252      3.425
REMARK  3 active torsions:
REMARK  status: ('A' for Active; 'I' for Inactive)
REMARK    1  A    between atoms: C2_2  and  O1_3 
REMARK    2  A    between atoms: O1_3  and  C3_4 
REMARK    3  A    between atoms: C5_6  and  C6_7 
ROOT
HETATM    1  C6  UNL     1      23.352   1.929  51.506  1.00  0.00     0.141 C 
HETATM    2  N1  UNL     1      23.205   3.147  51.323  1.00  0.00    -0.223 NA
HETATM    3  C7  UNL     1      23.721   4.263  52.006  1.00  0.00     0.246 C 
HETATM    4  N2  UNL     1      22.578   4.793  52.489  1.00  0.00    -0.191 NA
HETATM    5  C8  UNL     1      21.429   4.159  52.204  1.00  0.00     0.043 C 
HETATM    6  C9  UNL     1      20.493   3.622  51.959  1.00  0.00    -0.016 C 
HETATM    7  C10 UNL     1      19.352   2.940  51.656  1.00  0.00     0.131 A 
HETATM    8  C11 UNL     1      18.121   2.701  51.582  1.00  0.00     0.047 A 
HETATM    9  C12 UNL     1      17.817   1.441  50.939  1.00  0.00     0.006 A 
HETATM   10  C13 UNL     1      18.716   0.614  50.469  1.00  0.00     0.039 A 
HETATM   11  C14 UNL     1      20.114   0.959  50.588  1.00  0.00     0.092 A 
HETATM   12  C15 UNL     1      21.337   0.635  50.367  1.00  0.00     0.127 C 
HETATM   13  N3  UNL     1      22.665   1.099  50.549  1.00  0.00    -0.347 N 
HETATM   14  O2  UNL     1      20.397   2.153  51.198  1.00  0.00    -0.300 OA
HETATM   15  H12 UNL     1      23.327   0.771  49.815  1.00  0.00     0.167 HD
ENDROOT
BRANCH   1  16
HETATM   16  C5  UNL     1      24.047   0.983  52.413  1.00  0.00     0.047 A 
HETATM   17  C4  UNL     1      25.402   0.458  52.611  1.00  0.00     0.050 A 
HETATM   18  C3  UNL     1      25.387  -0.377  53.614  1.00  0.00     0.053 A 
HETATM   19  C17 UNL     1      24.041  -0.518  54.208  1.00  0.00     0.135 A 
HETATM   20  C16 UNL     1      23.259   0.413  53.343  1.00  0.00     0.114 A 
HETATM   21  F1  UNL     1      21.955   0.426  53.739  1.00  0.00    -0.209 F 
BRANCH  18  22
HETATM   22  O1  UNL     1      26.680  -0.907  53.839  1.00  0.00    -0.355 OA
BRANCH  22  23
HETATM   23  C2  UNL     1      27.725   0.053  54.033  1.00  0.00     0.170 C 
HETATM   24  C1  UNL     1      29.087  -0.518  53.833  1.00  0.00     0.034 C 
ENDBRANCH  22  23
ENDBRANCH  18  22
ENDBRANCH   1  16
TORSDOF 3
ENDMDL
MODEL 5
REMARK VINA RESULT:      -7.4      2.374      3.700
REMARK  3 active torsions:
REMARK  status: ('A' for Active; 'I' for Inactive)
REMARK    1  A    between atoms: C2_2  and  O1_3 
REMARK    2  A    between atoms: O1_3  and  C3_4 
REMARK    3  A    between atoms: C5_6  and  C6_7 
ROOT
HETATM    1  C6  UNL     1      22.072   2.002  51.342  1.00  0.00     0.141 C 
HETATM    2  N1  UNL     1      21.546   2.067  50.220  1.00  0.00    -0.223 NA
HETATM    3  C7  UNL     1      21.361   1.097  49.218  1.00  0.00     0.246 C 
HETATM    4  N2  UNL     1      22.131   1.620  48.240  1.00  0.00    -0.191 NA
HETATM    5  C8  UNL     1      22.768   2.774  48.500  1.00  0.00     0.043 C 
HETATM    6  C9  UNL     1      23.284   3.724  48.732  1.00  0.00    -0.016 C 
HETATM    7  C10 UNL     1      23.921   4.890  49.042  1.00  0.00     0.131 A 
HETATM    8  C11 UNL     1      24.610   5.925  48.864  1.00  0.00     0.047 A 
HETATM    9  C12 UNL     1      24.766   6.725  50.059  1.00  0.00     0.006 A 
HETATM   10  C13 UNL     1      24.251   6.423  51.224  1.00  0.00     0.039 A 
HETATM   11  C14 UNL     1      23.467   5.216  51.351  1.00  0.00     0.092 A 
HETATM   12  C15 UNL     1      22.775   4.443  52.107  1.00  0.00     0.127 C 
HETATM   13  N3  UNL     1      22.030   3.236  52.087  1.00  0.00    -0.347 N 
HETATM   14  O2  UNL     1      23.322   4.462  50.215  1.00  0.00    -0.300 OA
HETATM   15  H12 UNL     1      21.250   3.214  52.776  1.00  0.00     0.167 HD
ENDROOT
BRANCH   1  16
HETATM   16  C5  UNL     1      22.751   1.031  52.234  1.00  0.00     0.047 A 
HETATM   17  C4  UNL     1      24.091   0.809  52.787  1.00  0.00     0.050 A 
HETATM   18  C3  UNL     1      24.064  -0.256  53.542  1.00  0.00     0.053 A 
HETATM   19  C17 UNL     1      22.723  -0.875  53.590  1.00  0.00     0.135 A 
HETATM   20  C16 UNL     1      21.959   0.050  52.704  1.00  0.00     0.114 A 
HETATM   21  F1  UNL     1      20.661  -0.361  52.616  1.00  0.00    -0.209 F 
BRANCH  18  22
HETATM   22  O1  UNL     1      25.341  -0.505  54.096  1.00  0.00    -0.355 OA
BRANCH  22  23
HETATM   23  C2  UNL     1      26.446  -0.419  53.187  1.00  0.00     0.170 C 
HETATM   24  C1  UNL     1      26.783  -1.726  52.554  1.00  0.00     0.034 C 
ENDBRANCH  22  23
ENDBRANCH  18  22
ENDBRANCH   1  16
TORSDOF 3
ENDMDL
MODEL 6
REMARK VINA RESULT:      -7.2      2.582      6.548
REMARK  3 active torsions:
REMARK  status: ('A' for Active; 'I' for Inactive)
REMARK    1  A    between atoms: C2_2  and  O1_3 
REMARK    2  A    between atoms: O1_3  and  C3_4 
REMARK    3  A    between atoms: C5_6  and  C6_7 
ROOT
HETATM    1  C6  UNL     1      23.364   2.794  50.997  1.00  0.00     0.141 C 
HETATM    2  N1  UNL     1      24.446   2.745  51.603  1.00  0.00    -0.223 NA
HETATM    3  C7  UNL     1      25.768   2.604  51.143  1.00  0.00     0.246 C 
HETATM    4  N2  UNL     1      26.080   1.410  51.688  1.00  0.00    -0.191 NA
HETATM    5  C8  UNL     1      25.136   0.793  52.417  1.00  0.00     0.043 C 
HETATM    6  C9  UNL     1      24.345   0.300  53.014  1.00  0.00    -0.016 C 
HETATM    7  C10 UNL     1      23.353  -0.297  53.736  1.00  0.00     0.131 A 
HETATM    8  C11 UNL     1      22.805  -1.138  54.490  1.00  0.00     0.047 A 
HETATM    9  C12 UNL     1      21.408  -0.859  54.744  1.00  0.00     0.006 A 
HETATM   10  C13 UNL     1      20.755   0.162  54.249  1.00  0.00     0.039 A 
HETATM   11  C14 UNL     1      21.455   1.089  53.390  1.00  0.00     0.092 A 
HETATM   12  C15 UNL     1      21.410   2.154  52.672  1.00  0.00     0.127 C 
HETATM   13  N3  UNL     1      22.217   2.981  51.851  1.00  0.00    -0.347 N 
HETATM   14  O2  UNL     1      22.778   0.821  53.153  1.00  0.00    -0.300 OA
HETATM   15  H12 UNL     1      21.926   3.981  51.849  1.00  0.00     0.167 HD
ENDROOT
BRANCH   1  16
HETATM   16  C5  UNL     1      22.820   2.740  49.619  1.00  0.00     0.047 A 
HETATM   17  C4  UNL     1      22.796   3.586  48.422  1.00  0.00     0.050 A 
HETATM   18  C3  UNL     1      22.135   2.966  47.482  1.00  0.00     0.053 A 
HETATM   19  C17 UNL     1      21.638   1.646  47.922  1.00  0.00     0.135 A 
HETATM   20  C16 UNL     1      22.145   1.613  49.324  1.00  0.00     0.114 A 
HETATM   21  F1  UNL     1      21.781   0.442  49.920  1.00  0.00    -0.209 F 
BRANCH  18  22
HETATM   22  O1  UNL     1      22.090   3.752  46.306  1.00  0.00    -0.355 OA
BRANCH  22  23
HETATM   23  C2  UNL     1      22.132   5.171  46.498  1.00  0.00     0.170 C 
HETATM   24  C1  UNL     1      22.180   5.933  45.218  1.00  0.00     0.034 C 
ENDBRANCH  22  23
ENDBRANCH  18  22
ENDBRANCH   1  16
TORSDOF 3
ENDMDL
MODEL 7
REMARK VINA RESULT:      -7.2      8.764     11.254
REMARK  3 active torsions:
REMARK  status: ('A' for Active; 'I' for Inactive)
REMARK    1  A    between atoms: C2_2  and  O1_3 
REMARK    2  A    between atoms: O1_3  and  C3_4 
REMARK    3  A    between atoms: C5_6  and  C6_7 
ROOT
HETATM    1  C6  UNL     1      31.017   6.959  47.457  1.00  0.00     0.141 C 
HETATM    2  N1  UNL     1      31.510   7.676  46.571  1.00  0.00    -0.223 NA
HETATM    3  C7  UNL     1      30.928   8.337  45.474  1.00  0.00     0.246 C 
HETATM    4  N2  UNL     1      31.529   7.681  44.459  1.00  0.00    -0.191 NA
HETATM    5  C8  UNL     1      32.397   6.706  44.776  1.00  0.00     0.043 C 
HETATM    6  C9  UNL     1      33.109   5.906  45.056  1.00  0.00    -0.016 C 
HETATM    7  C10 UNL     1      33.973   4.917  45.422  1.00  0.00     0.131 A 
HETATM    8  C11 UNL     1      34.843   4.021  45.290  1.00  0.00     0.047 A 
HETATM    9  C12 UNL     1      35.217   3.392  46.538  1.00  0.00     0.006 A 
HETATM   10  C13 UNL     1      34.714   3.707  47.705  1.00  0.00     0.039 A 
HETATM   11  C14 UNL     1      33.718   4.752  47.779  1.00  0.00     0.092 A 
HETATM   12  C15 UNL     1      32.929   5.453  48.510  1.00  0.00     0.127 C 
HETATM   13  N3  UNL     1      31.967   6.493  48.436  1.00  0.00    -0.347 N 
HETATM   14  O2  UNL     1      33.368   5.345  46.593  1.00  0.00    -0.300 OA
HETATM   15  H12 UNL     1      31.918   7.080  49.294  1.00  0.00     0.167 HD
ENDROOT
BRANCH   1  16
HETATM   16  C5  UNL     1      29.711   6.405  47.886  1.00  0.00     0.047 A 
HETATM   17  C4  UNL     1      29.132   5.095  48.201  1.00  0.00     0.050 A 
HETATM   18  C3  UNL     1      27.880   5.257  48.534  1.00  0.00     0.053 A 
HETATM   19  C17 UNL     1      27.465   6.674  48.485  1.00  0.00     0.135 A 
HETATM   20  C16 UNL     1      28.738   7.320  48.052  1.00  0.00     0.114 A 
HETATM   21  F1  UNL     1      28.559   8.667  47.945  1.00  0.00    -0.209 F 
BRANCH  18  22
HETATM   22  O1  UNL     1      27.285   4.012  48.847  1.00  0.00    -0.355 OA
BRANCH  22  23
HETATM   23  C2  UNL     1      26.321   4.027  49.906  1.00  0.00     0.170 C 
HETATM   24  C1  UNL     1      26.476   2.887  50.854  1.00  0.00     0.034 C 
ENDBRANCH  22  23
ENDBRANCH  18  22
ENDBRANCH   1  16
TORSDOF 3
ENDMDL
MODEL 8
REMARK VINA RESULT:      -7.0      3.019      5.800
REMARK  3 active torsions:
REMARK  status: ('A' for Active; 'I' for Inactive)
REMARK    1  A    between atoms: C2_2  and  O1_3 
REMARK    2  A    between atoms: O1_3  and  C3_4 
REMARK    3  A    between atoms: C5_6  and  C6_7 
ROOT
HETATM    1  C6  UNL     1      22.984   2.048  50.800  1.00  0.00     0.141 C 
HETATM    2  N1  UNL     1      22.219   1.276  50.201  1.00  0.00    -0.223 NA
HETATM    3  C7  UNL     1      21.062   1.514  49.438  1.00  0.00     0.246 C 
HETATM    4  N2  UNL     1      20.142   0.892  50.205  1.00  0.00    -0.191 NA
HETATM    5  C8  UNL     1      20.568   0.306  51.336  1.00  0.00     0.043 C 
HETATM    6  C9  UNL     1      20.938  -0.170  52.264  1.00  0.00    -0.016 C 
HETATM    7  C10 UNL     1      21.412  -0.740  53.408  1.00  0.00     0.131 A 
HETATM    8  C11 UNL     1      21.399  -1.421  54.464  1.00  0.00     0.047 A 
HETATM    9  C12 UNL     1      22.672  -1.439  55.153  1.00  0.00     0.006 A 
HETATM   10  C13 UNL     1      23.746  -0.817  54.739  1.00  0.00     0.039 A 
HETATM   11  C14 UNL     1      23.685  -0.055  53.513  1.00  0.00     0.092 A 
HETATM   12  C15 UNL     1      24.295   0.690  52.663  1.00  0.00     0.127 C 
HETATM   13  N3  UNL     1      24.094   1.395  51.449  1.00  0.00    -0.347 N 
HETATM   14  O2  UNL     1      22.477  -0.041  52.863  1.00  0.00    -0.300 OA
HETATM   15  H12 UNL     1      24.950   1.472  50.862  1.00  0.00     0.167 HD
ENDROOT
BRANCH   1  16
HETATM   16  C5  UNL     1      23.167   3.493  51.075  1.00  0.00     0.047 A 
HETATM   17  C4  UNL     1      24.129   4.552  50.751  1.00  0.00     0.050 A 
HETATM   18  C3  UNL     1      23.729   5.666  51.302  1.00  0.00     0.053 A 
HETATM   19  C17 UNL     1      22.468   5.500  52.054  1.00  0.00     0.135 A 
HETATM   20  C16 UNL     1      22.203   4.049  51.832  1.00  0.00     0.114 A 
HETATM   21  F1  UNL     1      21.050   3.687  52.464  1.00  0.00    -0.209 F 
BRANCH  18  22
HETATM   22  O1  UNL     1      24.633   6.716  51.013  1.00  0.00    -0.355 OA
BRANCH  22  23
HETATM   23  C2  UNL     1      24.044   7.988  50.721  1.00  0.00     0.170 C 
HETATM   24  C1  UNL     1      23.516   8.083  49.331  1.00  0.00     0.034 C 
ENDBRANCH  22  23
ENDBRANCH  18  22
ENDBRANCH   1  16
TORSDOF 3
ENDMDL
MODEL 9
REMARK VINA RESULT:      -6.9      8.989     11.627
REMARK  3 active torsions:
REMARK  status: ('A' for Active; 'I' for Inactive)
REMARK    1  A    between atoms: C2_2  and  O1_3 
REMARK    2  A    between atoms: O1_3  and  C3_4 
REMARK    3  A    between atoms: C5_6  and  C6_7 
ROOT
HETATM    1  C6  UNL     1      31.383   7.326  47.152  1.00  0.00     0.141 C 
HETATM    2  N1  UNL     1      31.899   7.813  46.134  1.00  0.00    -0.223 NA
HETATM    3  C7  UNL     1      31.334   8.306  44.944  1.00  0.00     0.246 C 
HETATM    4  N2  UNL     1      31.835   7.419  44.060  1.00  0.00    -0.191 NA
HETATM    5  C8  UNL     1      32.627   6.445  44.537  1.00  0.00     0.043 C 
HETATM    6  C9  UNL     1      33.278   5.650  44.949  1.00  0.00    -0.016 C 
HETATM    7  C10 UNL     1      34.068   4.672  45.478  1.00  0.00     0.131 A 
HETATM    8  C11 UNL     1      34.851   3.691  45.500  1.00  0.00     0.047 A 
HETATM    9  C12 UNL     1      35.219   3.278  46.837  1.00  0.00     0.006 A 
HETATM   10  C13 UNL     1      34.793   3.852  47.933  1.00  0.00     0.039 A 
HETATM   11  C14 UNL     1      33.895   4.979  47.828  1.00  0.00     0.092 A 
HETATM   12  C15 UNL     1      33.199   5.875  48.429  1.00  0.00     0.127 C 
HETATM   13  N3  UNL     1      32.328   6.967  48.179  1.00  0.00    -0.347 N 
HETATM   14  O2  UNL     1      33.549   5.367  46.559  1.00  0.00    -0.300 OA
HETATM   15  H12 UNL     1      32.364   7.707  48.910  1.00  0.00     0.167 HD
ENDROOT
BRANCH   1  16
HETATM   16  C5  UNL     1      30.052   6.985  47.709  1.00  0.00     0.047 A 
HETATM   17  C4  UNL     1      28.869   7.688  48.217  1.00  0.00     0.050 A 
HETATM   18  C3  UNL     1      27.978   6.805  48.578  1.00  0.00     0.053 A 
HETATM   19  C17 UNL     1      28.442   5.419  48.363  1.00  0.00     0.135 A 
HETATM   20  C16 UNL     1      29.799   5.666  47.796  1.00  0.00     0.114 A 
HETATM   21  F1  UNL     1      30.409   4.478  47.522  1.00  0.00    -0.209 F 
BRANCH  18  22
HETATM   22  O1  UNL     1      26.818   7.445  49.075  1.00  0.00    -0.355 OA
BRANCH  22  23
HETATM   23  C2  UNL     1      25.764   6.580  49.513  1.00  0.00     0.170 C 
HETATM   24  C1  UNL     1      24.992   7.134  50.661  1.00  0.00     0.034 C 
ENDBRANCH  22  23
ENDBRANCH  18  22
ENDBRANCH   1  16
TORSDOF 3
ENDMDL
