MODEL 1
REMARK VINA RESULT:      -9.6      0.000      0.000
REMARK  7 active torsions:
REMARK  status: ('A' for Active; 'I' for Inactive)
REMARK    1  A    between atoms: C1_2  and  C2_3 
REMARK       I    between atoms: C1_2  and  N3_10 
REMARK    2  A    between atoms: C3_4  and  C4_5 
REMARK    3  A    between atoms: N3_10  and  C7_11 
REMARK    4  A    between atoms: N4_15  and  C11_16 
REMARK    5  A    between atoms: C14_19  and  O2_20 
REMARK    6  A    between atoms: O2_20  and  C15_21 
REMARK    7  A    between atoms: C15_21  and  C16_22 
ROOT
HETATM    1  C7  UNL     1      23.143  -0.447  53.447  1.00  0.00     0.114 A 
HETATM    2  C8  UNL     1      22.424  -0.972  54.499  1.00  0.00     0.050 A 
HETATM    3  C9  UNL     1      21.239  -0.259  54.693  1.00  0.00     0.021 A 
HETATM    4  C10 UNL     1      21.289   0.707  53.713  1.00  0.00     0.099 A 
HETATM    5  N4  UNL     1      22.415   0.584  52.988  1.00  0.00    -0.308 N 
ENDROOT
BRANCH   5   6
HETATM    6  C11 UNL     1      22.681   1.479  51.913  1.00  0.00     0.042 A 
HETATM    7  C12 UNL     1      23.291   2.639  52.376  1.00  0.00     0.033 A 
HETATM    8  C13 UNL     1      23.642   3.657  51.489  1.00  0.00     0.041 A 
HETATM    9  C14 UNL     1      23.379   3.507  50.137  1.00  0.00     0.091 A 
HETATM   10  C22 UNL     1      22.773   2.351  49.700  1.00  0.00     0.069 A 
HETATM   11 CL1  UNL     1      22.403   2.077  48.007  1.00  0.00    -0.081 Cl
HETATM   12  C23 UNL     1      22.420   1.335  50.565  1.00  0.00     0.056 A 
BRANCH   9  13
HETATM   13  O2  UNL     1      23.715   4.506  49.213  1.00  0.00    -0.345 OA
BRANCH  13  14
HETATM   14  C15 UNL     1      24.402   5.655  49.702  1.00  0.00     0.214 C 
BRANCH  14  15
HETATM   15  C16 UNL     1      25.775   5.750  49.174  1.00  0.00    -0.034 A 
HETATM   16  C17 UNL     1      26.186   7.013  48.737  1.00  0.00     0.009 A 
HETATM   17  C18 UNL     1      27.486   7.109  48.236  1.00  0.00     0.001 A 
HETATM   18  C19 UNL     1      28.368   6.033  48.156  1.00  0.00     0.000 A 
HETATM   19  C20 UNL     1      27.894   4.827  48.604  1.00  0.00     0.001 A 
HETATM   20  C21 UNL     1      26.620   4.658  49.111  1.00  0.00     0.009 A 
ENDBRANCH  14  15
ENDBRANCH  13  14
ENDBRANCH   9  13
ENDBRANCH   5   6
BRANCH   1  21
HETATM   21  N3  UNL     1      24.391  -0.864  52.916  1.00  0.00    -0.309 N 
HETATM   22  C1  UNL     1      25.580  -1.042  53.669  1.00  0.00     0.246 C 
HETATM   23  O1  UNL     1      25.554  -0.820  54.907  1.00  0.00    -0.268 OA
HETATM   24  H8  UNL     1      24.478  -1.064  51.895  1.00  0.00     0.170 HD
BRANCH  22  25
HETATM   25  C2  UNL     1      26.814  -1.473  53.033  1.00  0.00     0.072 C 
HETATM   26  C3  UNL     1      27.941  -0.792  53.111  1.00  0.00     0.007 C 
BRANCH  26  27
HETATM   27  C4  UNL     1      28.057   0.486  53.858  1.00  0.00     0.150 C 
HETATM   28  C5  UNL     1      29.481   0.711  54.343  1.00  0.00     0.151 C 
HETATM   29  N1  UNL     1      29.461   2.170  54.509  1.00  0.00    -0.383 N 
HETATM   30  C6  UNL     1      28.690   2.577  53.395  1.00  0.00     0.197 C 
HETATM   31  H6  UNL     1      29.798   2.954  55.126  1.00  0.00     0.160 HD
HETATM   32  N2  UNL     1      27.891   1.648  53.006  1.00  0.00    -0.274 NA
ENDBRANCH  26  27
ENDBRANCH  22  25
ENDBRANCH   1  21
TORSDOF 7
ENDMDL
MODEL 2
REMARK VINA RESULT:      -8.9      2.135      3.171
REMARK  7 active torsions:
REMARK  status: ('A' for Active; 'I' for Inactive)
REMARK    1  A    between atoms: C1_2  and  C2_3 
REMARK       I    between atoms: C1_2  and  N3_10 
REMARK    2  A    between atoms: C3_4  and  C4_5 
REMARK    3  A    between atoms: N3_10  and  C7_11 
REMARK    4  A    between atoms: N4_15  and  C11_16 
REMARK    5  A    between atoms: C14_19  and  O2_20 
REMARK    6  A    between atoms: O2_20  and  C15_21 
REMARK    7  A    between atoms: C15_21  and  C16_22 
ROOT
HETATM    1  C7  UNL     1      19.735  -0.505  53.503  1.00  0.00     0.114 A 
HETATM    2  C8  UNL     1      18.571  -1.243  53.502  1.00  0.00     0.050 A 
HETATM    3  C9  UNL     1      17.796  -0.942  52.379  1.00  0.00     0.021 A 
HETATM    4  C10 UNL     1      18.551   0.003  51.721  1.00  0.00     0.099 A 
HETATM    5  N4  UNL     1      19.688   0.250  52.393  1.00  0.00    -0.308 N 
ENDROOT
BRANCH   5   6
HETATM    6  C11 UNL     1      20.628   1.197  51.897  1.00  0.00     0.042 A 
HETATM    7  C12 UNL     1      21.252   0.719  50.750  1.00  0.00     0.033 A 
HETATM    8  C13 UNL     1      22.214   1.488  50.094  1.00  0.00     0.041 A 
HETATM    9  C14 UNL     1      22.546   2.737  50.593  1.00  0.00     0.091 A 
HETATM   10  C22 UNL     1      21.917   3.191  51.729  1.00  0.00     0.069 A 
HETATM   11 CL1  UNL     1      22.276   4.759  52.429  1.00  0.00    -0.081 Cl
HETATM   12  C23 UNL     1      20.964   2.442  52.390  1.00  0.00     0.056 A 
BRANCH   9  13
HETATM   13  O2  UNL     1      23.507   3.541  49.964  1.00  0.00    -0.345 OA
BRANCH  13  14
HETATM   14  C15 UNL     1      24.853   3.447  50.425  1.00  0.00     0.214 C 
BRANCH  14  15
HETATM   15  C16 UNL     1      25.750   4.384  49.726  1.00  0.00    -0.034 A 
HETATM   16  C17 UNL     1      25.285   5.694  49.577  1.00  0.00     0.009 A 
HETATM   17  C18 UNL     1      26.131   6.586  48.915  1.00  0.00     0.001 A 
HETATM   18  C19 UNL     1      27.383   6.239  48.411  1.00  0.00     0.000 A 
HETATM   19  C20 UNL     1      27.771   4.937  48.596  1.00  0.00     0.001 A 
HETATM   20  C21 UNL     1      26.986   4.001  49.241  1.00  0.00     0.009 A 
ENDBRANCH  14  15
ENDBRANCH  13  14
ENDBRANCH   9  13
ENDBRANCH   5   6
BRANCH   1  21
HETATM   21  N3  UNL     1      20.794  -0.501  54.448  1.00  0.00    -0.309 N 
HETATM   22  C1  UNL     1      22.001  -1.235  54.322  1.00  0.00     0.246 C 
HETATM   23  O1  UNL     1      22.173  -1.953  53.304  1.00  0.00    -0.268 OA
HETATM   24  H8  UNL     1      20.712   0.075  55.315  1.00  0.00     0.170 HD
BRANCH  22  25
HETATM   25  C2  UNL     1      23.031  -1.167  55.347  1.00  0.00     0.072 C 
HETATM   26  C3  UNL     1      24.295  -0.901  55.081  1.00  0.00     0.007 C 
BRANCH  26  27
HETATM   27  C4  UNL     1      24.790  -0.646  53.705  1.00  0.00     0.150 C 
HETATM   28  C5  UNL     1      25.199   0.809  53.529  1.00  0.00     0.151 C 
HETATM   29  N1  UNL     1      26.119   0.674  52.392  1.00  0.00    -0.383 N 
HETATM   30  C6  UNL     1      26.782  -0.537  52.699  1.00  0.00     0.197 C 
HETATM   31  H6  UNL     1      26.429   1.136  51.497  1.00  0.00     0.160 HD
HETATM   32  N2  UNL     1      26.058  -1.301  53.438  1.00  0.00    -0.274 NA
ENDBRANCH  26  27
ENDBRANCH  22  25
ENDBRANCH   1  21
TORSDOF 7
ENDMDL
MODEL 3
REMARK VINA RESULT:      -8.9      2.684      4.747
REMARK  7 active torsions:
REMARK  status: ('A' for Active; 'I' for Inactive)
REMARK    1  A    between atoms: C1_2  and  C2_3 
REMARK       I    between atoms: C1_2  and  N3_10 
REMARK    2  A    between atoms: C3_4  and  C4_5 
REMARK    3  A    between atoms: N3_10  and  C7_11 
REMARK    4  A    between atoms: N4_15  and  C11_16 
REMARK    5  A    between atoms: C14_19  and  O2_20 
REMARK    6  A    between atoms: O2_20  and  C15_21 
REMARK    7  A    between atoms: C15_21  and  C16_22 
ROOT
HETATM    1  C7  UNL     1      22.302  -0.779  53.453  1.00  0.00     0.114 A 
HETATM    2  C8  UNL     1      22.042  -1.652  54.486  1.00  0.00     0.050 A 
HETATM    3  C9  UNL     1      23.056  -1.598  55.447  1.00  0.00     0.021 A 
HETATM    4  C10 UNL     1      23.922  -0.657  54.936  1.00  0.00     0.099 A 
HETATM    5  N4  UNL     1      23.466  -0.184  53.764  1.00  0.00    -0.308 N 
ENDROOT
BRANCH   5   6
HETATM    6  C11 UNL     1      24.201   0.804  53.050  1.00  0.00     0.042 A 
HETATM    7  C12 UNL     1      25.386   0.274  52.552  1.00  0.00     0.033 A 
HETATM    8  C13 UNL     1      26.265   1.072  51.817  1.00  0.00     0.041 A 
HETATM    9  C14 UNL     1      25.951   2.400  51.585  1.00  0.00     0.091 A 
HETATM   10  C22 UNL     1      24.773   2.905  52.088  1.00  0.00     0.069 A 
HETATM   11 CL1  UNL     1      24.297   4.576  51.842  1.00  0.00    -0.081 Cl
HETATM   12  C23 UNL     1      23.894   2.130  52.817  1.00  0.00     0.056 A 
BRANCH   9  13
HETATM   13  O2  UNL     1      26.806   3.235  50.853  1.00  0.00    -0.345 OA
BRANCH  13  14
HETATM   14  C15 UNL     1      26.574   3.355  49.451  1.00  0.00     0.214 C 
BRANCH  14  15
HETATM   15  C16 UNL     1      26.946   4.684  48.935  1.00  0.00    -0.034 A 
HETATM   16  C17 UNL     1      25.924   5.635  48.872  1.00  0.00     0.009 A 
HETATM   17  C18 UNL     1      26.272   6.896  48.383  1.00  0.00     0.001 A 
HETATM   18  C19 UNL     1      27.557   7.239  47.969  1.00  0.00     0.000 A 
HETATM   19  C20 UNL     1      28.507   6.256  48.061  1.00  0.00     0.001 A 
HETATM   20  C21 UNL     1      28.234   4.986  48.534  1.00  0.00     0.009 A 
ENDBRANCH  14  15
ENDBRANCH  13  14
ENDBRANCH   9  13
ENDBRANCH   5   6
BRANCH   1  21
HETATM   21  N3  UNL     1      21.541  -0.519  52.284  1.00  0.00    -0.309 N 
HETATM   22  C1  UNL     1      20.564   0.501  52.158  1.00  0.00     0.246 C 
HETATM   23  O1  UNL     1      20.334   1.249  53.142  1.00  0.00    -0.268 OA
HETATM   24  H8  UNL     1      21.684  -1.105  51.432  1.00  0.00     0.170 HD
BRANCH  22  25
HETATM   25  C2  UNL     1      19.832   0.690  50.915  1.00  0.00     0.072 C 
HETATM   26  C3  UNL     1      20.260   1.464  49.937  1.00  0.00     0.007 C 
BRANCH  26  27
HETATM   27  C4  UNL     1      21.534   2.222  50.012  1.00  0.00     0.150 C 
HETATM   28  C5  UNL     1      22.373   2.011  48.761  1.00  0.00     0.151 C 
HETATM   29  N1  UNL     1      23.212   3.215  48.816  1.00  0.00    -0.383 N 
HETATM   30  C6  UNL     1      22.291   4.188  49.270  1.00  0.00     0.197 C 
HETATM   31  H6  UNL     1      24.188   3.573  48.646  1.00  0.00     0.160 HD
HETATM   32  N2  UNL     1      21.335   3.658  49.946  1.00  0.00    -0.274 NA
ENDBRANCH  26  27
ENDBRANCH  22  25
ENDBRANCH   1  21
TORSDOF 7
ENDMDL
MODEL 4
REMARK VINA RESULT:      -8.6      3.042      5.242
REMARK  7 active torsions:
REMARK  status: ('A' for Active; 'I' for Inactive)
REMARK    1  A    between atoms: C1_2  and  C2_3 
REMARK       I    between atoms: C1_2  and  N3_10 
REMARK    2  A    between atoms: C3_4  and  C4_5 
REMARK    3  A    between atoms: N3_10  and  C7_11 
REMARK    4  A    between atoms: N4_15  and  C11_16 
REMARK    5  A    between atoms: C14_19  and  O2_20 
REMARK    6  A    between atoms: O2_20  and  C15_21 
REMARK    7  A    between atoms: C15_21  and  C16_22 
ROOT
HETATM    1  C7  UNL     1      21.102   0.356  53.437  1.00  0.00     0.114 A 
HETATM    2  C8  UNL     1      21.020  -0.777  54.215  1.00  0.00     0.050 A 
HETATM    3  C9  UNL     1      22.263  -1.409  54.302  1.00  0.00     0.021 A 
HETATM    4  C10 UNL     1      23.079  -0.602  53.543  1.00  0.00     0.099 A 
HETATM    5  N4  UNL     1      22.384   0.433  53.040  1.00  0.00    -0.308 N 
ENDROOT
BRANCH   5   6
HETATM    6  C11 UNL     1      23.026   1.403  52.220  1.00  0.00     0.042 A 
HETATM    7  C12 UNL     1      23.921   2.164  52.964  1.00  0.00     0.033 A 
HETATM    8  C13 UNL     1      24.664   3.178  52.358  1.00  0.00     0.041 A 
HETATM    9  C14 UNL     1      24.504   3.425  51.004  1.00  0.00     0.091 A 
HETATM   10  C22 UNL     1      23.612   2.662  50.287  1.00  0.00     0.069 A 
HETATM   11 CL1  UNL     1      23.348   2.907  48.570  1.00  0.00    -0.081 Cl
HETATM   12  C23 UNL     1      22.871   1.656  50.872  1.00  0.00     0.056 A 
BRANCH   9  13
HETATM   13  O2  UNL     1      25.230   4.435  50.357  1.00  0.00    -0.345 OA
BRANCH  13  14
HETATM   14  C15 UNL     1      26.341   4.041  49.555  1.00  0.00     0.214 C 
BRANCH  14  15
HETATM   15  C16 UNL     1      26.961   5.183  48.861  1.00  0.00    -0.034 A 
HETATM   16  C17 UNL     1      28.317   5.056  48.543  1.00  0.00     0.009 A 
HETATM   17  C18 UNL     1      28.910   6.135  47.886  1.00  0.00     0.001 A 
HETATM   18  C19 UNL     1      28.230   7.301  47.540  1.00  0.00     0.000 A 
HETATM   19  C20 UNL     1      26.903   7.354  47.883  1.00  0.00     0.001 A 
HETATM   20  C21 UNL     1      26.252   6.324  48.535  1.00  0.00     0.009 A 
ENDBRANCH  14  15
ENDBRANCH  13  14
ENDBRANCH   9  13
ENDBRANCH   5   6
BRANCH   1  21
HETATM   21  N3  UNL     1      20.085   1.285  53.092  1.00  0.00    -0.309 N 
HETATM   22  C1  UNL     1      19.310   1.241  51.905  1.00  0.00     0.246 C 
HETATM   23  O1  UNL     1      19.517   0.318  51.077  1.00  0.00    -0.268 OA
HETATM   24  H8  UNL     1      19.866   2.076  53.738  1.00  0.00     0.170 HD
BRANCH  22  25
HETATM   25  C2  UNL     1      18.288   2.242  51.640  1.00  0.00     0.072 C 
HETATM   26  C3  UNL     1      18.551   3.410  51.087  1.00  0.00     0.007 C 
BRANCH  26  27
HETATM   27  C4  UNL     1      19.920   3.818  50.684  1.00  0.00     0.150 C 
HETATM   28  C5  UNL     1      19.884   5.041  49.778  1.00  0.00     0.151 C 
HETATM   29  N1  UNL     1      21.245   5.549  49.990  1.00  0.00    -0.383 N 
HETATM   30  C6  UNL     1      21.429   5.314  51.373  1.00  0.00     0.197 C 
HETATM   31  H6  UNL     1      22.066   5.994  49.503  1.00  0.00     0.160 HD
HETATM   32  N2  UNL     1      20.695   4.345  51.792  1.00  0.00    -0.274 NA
ENDBRANCH  26  27
ENDBRANCH  22  25
ENDBRANCH   1  21
TORSDOF 7
ENDMDL
MODEL 5
REMARK VINA RESULT:      -8.4      2.165      3.044
REMARK  7 active torsions:
REMARK  status: ('A' for Active; 'I' for Inactive)
REMARK    1  A    between atoms: C1_2  and  C2_3 
REMARK       I    between atoms: C1_2  and  N3_10 
REMARK    2  A    between atoms: C3_4  and  C4_5 
REMARK    3  A    between atoms: N3_10  and  C7_11 
REMARK    4  A    between atoms: N4_15  and  C11_16 
REMARK    5  A    between atoms: C14_19  and  O2_20 
REMARK    6  A    between atoms: O2_20  and  C15_21 
REMARK    7  A    between atoms: C15_21  and  C16_22 
ROOT
HETATM    1  C7  UNL     1      23.207  -0.372  53.408  1.00  0.00     0.114 A 
HETATM    2  C8  UNL     1      22.348  -1.070  54.228  1.00  0.00     0.050 A 
HETATM    3  C9  UNL     1      21.213  -0.309  54.518  1.00  0.00     0.021 A 
HETATM    4  C10 UNL     1      21.439   0.865  53.836  1.00  0.00     0.099 A 
HETATM    5  N4  UNL     1      22.616   0.814  53.187  1.00  0.00    -0.308 N 
ENDROOT
BRANCH   5   6
HETATM    6  C11 UNL     1      23.059   1.921  52.410  1.00  0.00     0.042 A 
HETATM    7  C12 UNL     1      22.027   2.832  52.214  1.00  0.00     0.033 A 
HETATM    8  C13 UNL     1      22.242   3.997  51.477  1.00  0.00     0.041 A 
HETATM    9  C14 UNL     1      23.493   4.245  50.938  1.00  0.00     0.091 A 
HETATM   10  C22 UNL     1      24.500   3.330  51.144  1.00  0.00     0.069 A 
HETATM   11 CL1  UNL     1      26.115   3.563  50.498  1.00  0.00    -0.081 Cl
HETATM   12  C23 UNL     1      24.305   2.172  51.870  1.00  0.00     0.056 A 
BRANCH   9  13
HETATM   13  O2  UNL     1      23.750   5.403  50.191  1.00  0.00    -0.345 OA
BRANCH  13  14
HETATM   14  C15 UNL     1      23.700   6.654  50.872  1.00  0.00     0.214 C 
BRANCH  14  15
HETATM   15  C16 UNL     1      22.710   7.572  50.282  1.00  0.00    -0.034 A 
HETATM   16  C17 UNL     1      23.206   8.539  49.404  1.00  0.00     0.009 A 
HETATM   17  C18 UNL     1      22.271   9.412  48.842  1.00  0.00     0.001 A 
HETATM   18  C19 UNL     1      20.905   9.362  49.109  1.00  0.00     0.000 A 
HETATM   19  C20 UNL     1      20.493   8.386  49.979  1.00  0.00     0.001 A 
HETATM   20  C21 UNL     1      21.361   7.490  50.573  1.00  0.00     0.009 A 
ENDBRANCH  14  15
ENDBRANCH  13  14
ENDBRANCH   9  13
ENDBRANCH   5   6
BRANCH   1  21
HETATM   21  N3  UNL     1      24.463  -0.768  52.876  1.00  0.00    -0.309 N 
HETATM   22  C1  UNL     1      25.603  -1.109  53.647  1.00  0.00     0.246 C 
HETATM   23  O1  UNL     1      25.525  -1.066  54.902  1.00  0.00    -0.268 OA
HETATM   24  H8  UNL     1      24.593  -0.823  51.842  1.00  0.00     0.170 HD
BRANCH  22  25
HETATM   25  C2  UNL     1      26.849  -1.503  53.010  1.00  0.00     0.072 C 
HETATM   26  C3  UNL     1      27.955  -0.789  53.086  1.00  0.00     0.007 C 
BRANCH  26  27
HETATM   27  C4  UNL     1      28.034   0.492  53.833  1.00  0.00     0.150 C 
HETATM   28  C5  UNL     1      29.445   0.743  54.345  1.00  0.00     0.151 C 
HETATM   29  N1  UNL     1      29.395   2.202  54.508  1.00  0.00    -0.383 N 
HETATM   30  C6  UNL     1      28.639   2.593  53.379  1.00  0.00     0.197 C 
HETATM   31  H6  UNL     1      29.707   2.993  55.130  1.00  0.00     0.160 HD
HETATM   32  N2  UNL     1      27.864   1.650  52.976  1.00  0.00    -0.274 NA
ENDBRANCH  26  27
ENDBRANCH  22  25
ENDBRANCH   1  21
TORSDOF 7
ENDMDL
MODEL 6
REMARK VINA RESULT:      -8.4      3.853      8.518
REMARK  7 active torsions:
REMARK  status: ('A' for Active; 'I' for Inactive)
REMARK    1  A    between atoms: C1_2  and  C2_3 
REMARK       I    between atoms: C1_2  and  N3_10 
REMARK    2  A    between atoms: C3_4  and  C4_5 
REMARK    3  A    between atoms: N3_10  and  C7_11 
REMARK    4  A    between atoms: N4_15  and  C11_16 
REMARK    5  A    between atoms: C14_19  and  O2_20 
REMARK    6  A    between atoms: O2_20  and  C15_21 
REMARK    7  A    between atoms: C15_21  and  C16_22 
ROOT
HETATM    1  C7  UNL     1      24.924   1.549  51.739  1.00  0.00     0.114 A 
HETATM    2  C8  UNL     1      26.278   1.377  51.928  1.00  0.00     0.050 A 
HETATM    3  C9  UNL     1      26.526   0.293  52.773  1.00  0.00     0.021 A 
HETATM    4  C10 UNL     1      25.263  -0.166  53.075  1.00  0.00     0.099 A 
HETATM    5  N4  UNL     1      24.331   0.582  52.459  1.00  0.00    -0.308 N 
ENDROOT
BRANCH   5   6
HETATM    6  C11 UNL     1      22.948   0.290  52.626  1.00  0.00     0.042 A 
HETATM    7  C12 UNL     1      22.708  -0.271  53.875  1.00  0.00     0.033 A 
HETATM    8  C13 UNL     1      21.414  -0.635  54.251  1.00  0.00     0.041 A 
HETATM    9  C14 UNL     1      20.365  -0.436  53.370  1.00  0.00     0.091 A 
HETATM   10  C22 UNL     1      20.624   0.121  52.138  1.00  0.00     0.069 A 
HETATM   11 CL1  UNL     1      19.355   0.409  50.962  1.00  0.00    -0.081 Cl
HETATM   12  C23 UNL     1      21.897   0.486  51.751  1.00  0.00     0.056 A 
BRANCH   9  13
HETATM   13  O2  UNL     1      19.051  -0.789  53.709  1.00  0.00    -0.345 OA
BRANCH  13  14
HETATM   14  C15 UNL     1      18.765  -2.173  53.896  1.00  0.00     0.214 C 
BRANCH  14  15
HETATM   15  C16 UNL     1      17.460  -2.555  53.327  1.00  0.00    -0.034 A 
HETATM   16  C17 UNL     1      17.038  -3.865  53.568  1.00  0.00     0.009 A 
HETATM   17  C18 UNL     1      15.802  -4.233  53.031  1.00  0.00     0.001 A 
HETATM   18  C19 UNL     1      14.994  -3.375  52.287  1.00  0.00     0.000 A 
HETATM   19  C20 UNL     1      15.474  -2.106  52.094  1.00  0.00     0.001 A 
HETATM   20  C21 UNL     1      16.687  -1.674  52.594  1.00  0.00     0.009 A 
ENDBRANCH  14  15
ENDBRANCH  13  14
ENDBRANCH   9  13
ENDBRANCH   5   6
BRANCH   1  21
HETATM   21  N3  UNL     1      24.242   2.521  50.961  1.00  0.00    -0.309 N 
HETATM   22  C1  UNL     1      23.726   3.745  51.456  1.00  0.00     0.246 C 
HETATM   23  O1  UNL     1      23.871   4.018  52.675  1.00  0.00    -0.268 OA
HETATM   24  H8  UNL     1      24.089   2.353  49.942  1.00  0.00     0.170 HD
BRANCH  22  25
HETATM   25  C2  UNL     1      23.039   4.679  50.578  1.00  0.00     0.072 C 
HETATM   26  C3  UNL     1      23.616   5.753  50.076  1.00  0.00     0.007 C 
BRANCH  26  27
HETATM   27  C4  UNL     1      25.028   6.114  50.361  1.00  0.00     0.150 C 
HETATM   28  C5  UNL     1      25.933   5.755  49.192  1.00  0.00     0.151 C 
HETATM   29  N1  UNL     1      27.054   6.667  49.454  1.00  0.00    -0.383 N 
HETATM   30  C6  UNL     1      26.382   7.830  49.898  1.00  0.00     0.197 C 
HETATM   31  H6  UNL     1      28.104   6.745  49.425  1.00  0.00     0.160 HD
HETATM   32  N2  UNL     1      25.238   7.549  50.413  1.00  0.00    -0.274 NA
ENDBRANCH  26  27
ENDBRANCH  22  25
ENDBRANCH   1  21
TORSDOF 7
ENDMDL
MODEL 7
REMARK VINA RESULT:      -8.3      3.417      7.486
REMARK  7 active torsions:
REMARK  status: ('A' for Active; 'I' for Inactive)
REMARK    1  A    between atoms: C1_2  and  C2_3 
REMARK       I    between atoms: C1_2  and  N3_10 
REMARK    2  A    between atoms: C3_4  and  C4_5 
REMARK    3  A    between atoms: N3_10  and  C7_11 
REMARK    4  A    between atoms: N4_15  and  C11_16 
REMARK    5  A    between atoms: C14_19  and  O2_20 
REMARK    6  A    between atoms: O2_20  and  C15_21 
REMARK    7  A    between atoms: C15_21  and  C16_22 
ROOT
HETATM    1  C7  UNL     1      26.137   0.806  52.439  1.00  0.00     0.114 A 
HETATM    2  C8  UNL     1      27.385   0.454  52.904  1.00  0.00     0.050 A 
HETATM    3  C9  UNL     1      27.287  -0.217  54.126  1.00  0.00     0.021 A 
HETATM    4  C10 UNL     1      25.930  -0.245  54.360  1.00  0.00     0.099 A 
HETATM    5  N4  UNL     1      25.266   0.360  53.360  1.00  0.00    -0.308 N 
ENDROOT
BRANCH   5   6
HETATM    6  C11 UNL     1      23.846   0.449  53.389  1.00  0.00     0.042 A 
HETATM    7  C12 UNL     1      23.293  -0.660  54.019  1.00  0.00     0.033 A 
HETATM    8  C13 UNL     1      21.910  -0.778  54.159  1.00  0.00     0.041 A 
HETATM    9  C14 UNL     1      21.085   0.218  53.665  1.00  0.00     0.091 A 
HETATM   10  C22 UNL     1      21.653   1.307  53.043  1.00  0.00     0.069 A 
HETATM   11 CL1  UNL     1      20.683   2.614  52.388  1.00  0.00    -0.081 Cl
HETATM   12  C23 UNL     1      23.018   1.439  52.896  1.00  0.00     0.056 A 
BRANCH   9  13
HETATM   13  O2  UNL     1      19.691   0.136  53.784  1.00  0.00    -0.345 OA
BRANCH  13  14
HETATM   14  C15 UNL     1      19.055  -1.051  53.318  1.00  0.00     0.214 C 
BRANCH  14  15
HETATM   15  C16 UNL     1      18.031  -0.773  52.296  1.00  0.00    -0.034 A 
HETATM   16  C17 UNL     1      18.447  -0.034  51.185  1.00  0.00     0.009 A 
HETATM   17  C18 UNL     1      17.481   0.233  50.213  1.00  0.00     0.001 A 
HETATM   18  C19 UNL     1      16.157  -0.193  50.299  1.00  0.00     0.000 A 
HETATM   19  C20 UNL     1      15.823  -0.912  51.416  1.00  0.00     0.001 A 
HETATM   20  C21 UNL     1      16.726  -1.213  52.418  1.00  0.00     0.009 A 
ENDBRANCH  14  15
ENDBRANCH  13  14
ENDBRANCH   9  13
ENDBRANCH   5   6
BRANCH   1  21
HETATM   21  N3  UNL     1      25.783   1.492  51.248  1.00  0.00    -0.309 N 
HETATM   22  C1  UNL     1      26.452   2.632  50.735  1.00  0.00     0.246 C 
HETATM   23  O1  UNL     1      27.440   3.092  51.363  1.00  0.00    -0.268 OA
HETATM   24  H8  UNL     1      24.971   1.161  50.681  1.00  0.00     0.170 HD
BRANCH  22  25
HETATM   25  C2  UNL     1      26.013   3.269  49.504  1.00  0.00     0.072 C 
HETATM   26  C3  UNL     1      25.121   4.239  49.473  1.00  0.00     0.007 C 
BRANCH  26  27
HETATM   27  C4  UNL     1      24.475   4.776  50.697  1.00  0.00     0.150 C 
HETATM   28  C5  UNL     1      24.597   6.291  50.764  1.00  0.00     0.151 C 
HETATM   29  N1  UNL     1      23.475   6.593  51.662  1.00  0.00    -0.383 N 
HETATM   30  C6  UNL     1      22.497   5.671  51.221  1.00  0.00     0.197 C 
HETATM   31  H6  UNL     1      23.174   7.213  52.458  1.00  0.00     0.160 HD
HETATM   32  N2  UNL     1      23.030   4.638  50.673  1.00  0.00    -0.274 NA
ENDBRANCH  26  27
ENDBRANCH  22  25
ENDBRANCH   1  21
TORSDOF 7
ENDMDL
MODEL 8
REMARK VINA RESULT:      -8.2      3.189      8.547
REMARK  7 active torsions:
REMARK  status: ('A' for Active; 'I' for Inactive)
REMARK    1  A    between atoms: C1_2  and  C2_3 
REMARK       I    between atoms: C1_2  and  N3_10 
REMARK    2  A    between atoms: C3_4  and  C4_5 
REMARK    3  A    between atoms: N3_10  and  C7_11 
REMARK    4  A    between atoms: N4_15  and  C11_16 
REMARK    5  A    between atoms: C14_19  and  O2_20 
REMARK    6  A    between atoms: O2_20  and  C15_21 
REMARK    7  A    between atoms: C15_21  and  C16_22 
ROOT
HETATM    1  C7  UNL     1      26.367   6.582  49.124  1.00  0.00     0.114 A 
HETATM    2  C8  UNL     1      27.537   7.065  48.580  1.00  0.00     0.050 A 
HETATM    3  C9  UNL     1      28.388   6.016  48.225  1.00  0.00     0.021 A 
HETATM    4  C10 UNL     1      27.671   4.896  48.582  1.00  0.00     0.099 A 
HETATM    5  N4  UNL     1      26.484   5.244  49.109  1.00  0.00    -0.308 N 
ENDROOT
BRANCH   5   6
HETATM    6  C11 UNL     1      25.571   4.246  49.551  1.00  0.00     0.042 A 
HETATM    7  C12 UNL     1      26.043   3.617  50.698  1.00  0.00     0.033 A 
HETATM    8  C13 UNL     1      25.303   2.601  51.304  1.00  0.00     0.041 A 
HETATM    9  C14 UNL     1      24.089   2.219  50.757  1.00  0.00     0.091 A 
HETATM   10  C22 UNL     1      23.641   2.854  49.621  1.00  0.00     0.069 A 
HETATM   11 CL1  UNL     1      22.117   2.434  48.861  1.00  0.00    -0.081 Cl
HETATM   12  C23 UNL     1      24.361   3.860  49.009  1.00  0.00     0.056 A 
BRANCH   9  13
HETATM   13  O2  UNL     1      23.316   1.203  51.335  1.00  0.00    -0.345 OA
BRANCH  13  14
HETATM   14  C15 UNL     1      23.291   1.118  52.757  1.00  0.00     0.214 C 
BRANCH  14  15
HETATM   15  C16 UNL     1      22.247   0.199  53.244  1.00  0.00    -0.034 A 
HETATM   16  C17 UNL     1      22.679  -0.868  54.037  1.00  0.00     0.009 A 
HETATM   17  C18 UNL     1      21.694  -1.742  54.500  1.00  0.00     0.001 A 
HETATM   18  C19 UNL     1      20.337  -1.603  54.216  1.00  0.00     0.000 A 
HETATM   19  C20 UNL     1      19.989  -0.532  53.433  1.00  0.00     0.001 A 
HETATM   20  C21 UNL     1      20.910   0.372  52.940  1.00  0.00     0.009 A 
ENDBRANCH  14  15
ENDBRANCH  13  14
ENDBRANCH   9  13
ENDBRANCH   5   6
BRANCH   1  21
HETATM   21  N3  UNL     1      25.241   7.296  49.612  1.00  0.00    -0.309 N 
HETATM   22  C1  UNL     1      24.078   7.599  48.859  1.00  0.00     0.246 C 
HETATM   23  O1  UNL     1      24.012   7.216  47.662  1.00  0.00    -0.268 OA
HETATM   24  H8  UNL     1      25.234   7.642  50.597  1.00  0.00     0.170 HD
BRANCH  22  25
HETATM   25  C2  UNL     1      22.974   8.339  49.448  1.00  0.00     0.072 C 
HETATM   26  C3  UNL     1      21.945   7.755  50.030  1.00  0.00     0.007 C 
BRANCH  26  27
HETATM   27  C4  UNL     1      21.814   6.280  50.139  1.00  0.00     0.150 C 
HETATM   28  C5  UNL     1      22.022   5.815  51.573  1.00  0.00     0.151 C 
HETATM   29  N1  UNL     1      21.318   4.527  51.522  1.00  0.00    -0.383 N 
HETATM   30  C6  UNL     1      20.205   4.838  50.706  1.00  0.00     0.197 C 
HETATM   31  H6  UNL     1      21.356   3.530  51.860  1.00  0.00     0.160 HD
HETATM   32  N2  UNL     1      20.455   5.822  49.917  1.00  0.00    -0.274 NA
ENDBRANCH  26  27
ENDBRANCH  22  25
ENDBRANCH   1  21
TORSDOF 7
ENDMDL
MODEL 9
REMARK VINA RESULT:      -8.2      3.776      6.759
REMARK  7 active torsions:
REMARK  status: ('A' for Active; 'I' for Inactive)
REMARK    1  A    between atoms: C1_2  and  C2_3 
REMARK       I    between atoms: C1_2  and  N3_10 
REMARK    2  A    between atoms: C3_4  and  C4_5 
REMARK    3  A    between atoms: N3_10  and  C7_11 
REMARK    4  A    between atoms: N4_15  and  C11_16 
REMARK    5  A    between atoms: C14_19  and  O2_20 
REMARK    6  A    between atoms: O2_20  and  C15_21 
REMARK    7  A    between atoms: C15_21  and  C16_22 
ROOT
HETATM    1  C7  UNL     1      25.498   2.536  50.836  1.00  0.00     0.114 A 
HETATM    2  C8  UNL     1      26.557   3.114  50.171  1.00  0.00     0.050 A 
HETATM    3  C9  UNL     1      26.124   4.190  49.393  1.00  0.00     0.021 A 
HETATM    4  C10 UNL     1      24.768   4.221  49.626  1.00  0.00     0.099 A 
HETATM    5  N4  UNL     1      24.414   3.243  50.478  1.00  0.00    -0.308 N 
ENDROOT
BRANCH   5   6
HETATM    6  C11 UNL     1      23.054   3.083  50.866  1.00  0.00     0.042 A 
HETATM    7  C12 UNL     1      22.590   4.218  51.522  1.00  0.00     0.033 A 
HETATM    8  C13 UNL     1      21.278   4.279  51.991  1.00  0.00     0.041 A 
HETATM    9  C14 UNL     1      20.433   3.198  51.800  1.00  0.00     0.091 A 
HETATM   10  C22 UNL     1      20.912   2.084  51.150  1.00  0.00     0.069 A 
HETATM   11 CL1  UNL     1      19.912   0.670  50.866  1.00  0.00    -0.081 Cl
HETATM   12  C23 UNL     1      22.207   2.008  50.680  1.00  0.00     0.056 A 
BRANCH   9  13
HETATM   13  O2  UNL     1      19.108   3.218  52.257  1.00  0.00    -0.345 OA
BRANCH  13  14
HETATM   14  C15 UNL     1      18.109   3.712  51.368  1.00  0.00     0.214 C 
BRANCH  14  15
HETATM   15  C16 UNL     1      16.753   3.297  51.766  1.00  0.00    -0.034 A 
HETATM   16  C17 UNL     1      16.405   1.970  51.497  1.00  0.00     0.009 A 
HETATM   17  C18 UNL     1      15.120   1.572  51.872  1.00  0.00     0.001 A 
HETATM   18  C19 UNL     1      14.195   2.414  52.487  1.00  0.00     0.000 A 
HETATM   19  C20 UNL     1      14.608   3.700  52.720  1.00  0.00     0.001 A 
HETATM   20  C21 UNL     1      15.863   4.163  52.374  1.00  0.00     0.009 A 
ENDBRANCH  14  15
ENDBRANCH  13  14
ENDBRANCH   9  13
ENDBRANCH   5   6
BRANCH   1  21
HETATM   21  N3  UNL     1      25.492   1.428  51.724  1.00  0.00    -0.309 N 
HETATM   22  C1  UNL     1      25.471   1.519  53.139  1.00  0.00     0.246 C 
HETATM   23  O1  UNL     1      25.456   2.656  53.676  1.00  0.00    -0.268 OA
HETATM   24  H8  UNL     1      25.504   0.457  51.341  1.00  0.00     0.170 HD
BRANCH  22  25
HETATM   25  C2  UNL     1      25.467   0.323  53.967  1.00  0.00     0.072 C 
HETATM   26  C3  UNL     1      26.521  -0.455  54.114  1.00  0.00     0.007 C 
BRANCH  26  27
HETATM   27  C4  UNL     1      27.818  -0.186  53.443  1.00  0.00     0.150 C 
HETATM   28  C5  UNL     1      28.679   0.757  54.271  1.00  0.00     0.151 C 
HETATM   29  N1  UNL     1      30.005   0.418  53.737  1.00  0.00    -0.383 N 
HETATM   30  C6  UNL     1      29.901  -0.983  53.573  1.00  0.00     0.197 C 
HETATM   31  H6  UNL     1      30.933   0.831  53.458  1.00  0.00     0.160 HD
HETATM   32  N2  UNL     1      28.681  -1.352  53.406  1.00  0.00    -0.274 NA
ENDBRANCH  26  27
ENDBRANCH  22  25
ENDBRANCH   1  21
TORSDOF 7
ENDMDL
