MODEL 1
REMARK VINA RESULT:      -8.1      0.000      0.000
REMARK  6 active torsions:
REMARK  status: ('A' for Active; 'I' for Inactive)
REMARK    1  A    between atoms: C2_2  and  C3_3 
REMARK    2  A    between atoms: C2_2  and  C4_5 
REMARK    3  A    between atoms: C3_3  and  N1_4 
REMARK    4  A    between atoms: C8_9  and  N2_10 
REMARK    5  A    between atoms: N2_10  and  C9_11 
REMARK    6  A    between atoms: C12_15  and  C13_16 
ROOT
HETATM    1  N2  UNL     1      24.657   3.171  52.273  1.00  0.00    -0.188 N 
HETATM    2  H12 UNL     1      24.791   3.971  52.926  1.00  0.00     0.184 HD
ENDROOT
BRANCH   1   3
HETATM    3  C8  UNL     1      24.777   1.803  52.635  1.00  0.00     0.049 A 
HETATM    4  C7  UNL     1      23.663   1.136  53.095  1.00  0.00     0.030 A 
HETATM    5  C6  UNL     1      23.876  -0.189  53.417  1.00  0.00     0.003 A 
HETATM    6  C5  UNL     1      25.107  -0.795  53.288  1.00  0.00     0.007 A 
HETATM    7  C4  UNL     1      26.191  -0.074  52.820  1.00  0.00    -0.051 A 
HETATM    8  C18 UNL     1      26.019   1.244  52.491  1.00  0.00     0.037 A 
BRANCH   7   9
HETATM    9  C2  UNL     1      27.512  -0.774  52.689  1.00  0.00     0.042 C 
HETATM   10  C1  UNL     1      28.449  -0.439  53.794  1.00  0.00     0.016 C 
BRANCH   9  11
HETATM   11  C3  UNL     1      27.179  -2.251  52.603  1.00  0.00     0.275 C 
BRANCH  11  12
HETATM   12  N1  UNL     1      28.276  -3.089  53.044  1.00  0.00     0.078 N 
HETATM   13  H7  UNL     1      28.962  -2.430  53.530  1.00  0.00     0.312 HD
HETATM   14  H8  UNL     1      28.819  -3.401  52.191  1.00  0.00     0.312 HD
ENDBRANCH  11  12
ENDBRANCH   9  11
ENDBRANCH   7   9
ENDBRANCH   1   3
BRANCH   1  15
HETATM   15  C9  UNL     1      24.357   3.808  51.064  1.00  0.00     0.727 A 
HETATM   16  N3  UNL     1      23.161   3.908  50.454  1.00  0.00    -0.075 NA
HETATM   17  C10 UNL     1      23.061   4.561  49.284  1.00  0.00     0.139 A 
HETATM   18  C11 UNL     1      24.216   5.112  48.747  1.00  0.00     0.053 A 
HETATM   19  C12 UNL     1      25.442   5.031  49.332  1.00  0.00     0.089 A 
HETATM   20  N5  UNL     1      25.472   4.360  50.511  1.00  0.00    -0.062 NA
BRANCH  19  21
HETATM   21  C13 UNL     1      26.657   5.614  48.752  1.00  0.00     0.011 A 
HETATM   22  C14 UNL     1      27.845   4.927  48.653  1.00  0.00     0.017 A 
HETATM   23  C15 UNL     1      28.913   5.616  48.083  1.00  0.00     0.020 A 
HETATM   24  C16 UNL     1      28.841   6.908  47.630  1.00  0.00     0.116 A 
HETATM   25  N4  UNL     1      27.661   7.523  47.752  1.00  0.00    -0.272 NA
HETATM   26  C17 UNL     1      26.587   6.912  48.296  1.00  0.00     0.130 A 
ENDBRANCH  19  21
ENDBRANCH   1  15
TORSDOF 6
ENDMDL
MODEL 2
REMARK VINA RESULT:      -8.1      1.746      7.538
REMARK  6 active torsions:
REMARK  status: ('A' for Active; 'I' for Inactive)
REMARK    1  A    between atoms: C2_2  and  C3_3 
REMARK    2  A    between atoms: C2_2  and  C4_5 
REMARK    3  A    between atoms: C3_3  and  N1_4 
REMARK    4  A    between atoms: C8_9  and  N2_10 
REMARK    5  A    between atoms: N2_10  and  C9_11 
REMARK    6  A    between atoms: C12_15  and  C13_16 
ROOT
HETATM    1  N2  UNL     1      26.302   3.627  49.393  1.00  0.00    -0.188 N 
HETATM    2  H12 UNL     1      26.158   2.793  48.788  1.00  0.00     0.184 HD
ENDROOT
BRANCH   1   3
HETATM    3  C8  UNL     1      26.772   4.887  48.934  1.00  0.00     0.049 A 
HETATM    4  C7  UNL     1      25.901   5.954  48.907  1.00  0.00     0.030 A 
HETATM    5  C6  UNL     1      26.450   7.135  48.451  1.00  0.00     0.003 A 
HETATM    6  C5  UNL     1      27.766   7.237  48.055  1.00  0.00     0.007 A 
HETATM    7  C4  UNL     1      28.594   6.131  48.104  1.00  0.00    -0.051 A 
HETATM    8  C18 UNL     1      28.086   4.941  48.550  1.00  0.00     0.037 A 
BRANCH   7   9
HETATM    9  C2  UNL     1      30.022   6.288  47.669  1.00  0.00     0.042 C 
HETATM   10  C1  UNL     1      30.271   7.581  46.979  1.00  0.00     0.016 C 
BRANCH   9  11
HETATM   11  C3  UNL     1      30.849   6.102  48.927  1.00  0.00     0.275 C 
BRANCH  11  12
HETATM   12  N1  UNL     1      31.047   7.347  49.643  1.00  0.00     0.078 N 
HETATM   13  H7  UNL     1      32.083   7.580  49.533  1.00  0.00     0.312 HD
HETATM   14  H8  UNL     1      30.962   7.151  50.679  1.00  0.00     0.312 HD
ENDBRANCH  11  12
ENDBRANCH   9  11
ENDBRANCH   7   9
ENDBRANCH   1   3
BRANCH   1  15
HETATM   15  C9  UNL     1      25.928   3.160  50.657  1.00  0.00     0.727 A 
HETATM   16  N3  UNL     1      24.832   3.484  51.370  1.00  0.00    -0.075 NA
HETATM   17  C10 UNL     1      24.635   2.934  52.580  1.00  0.00     0.139 A 
HETATM   18  C11 UNL     1      25.588   2.040  53.049  1.00  0.00     0.053 A 
HETATM   19  C12 UNL     1      26.708   1.688  52.360  1.00  0.00     0.089 A 
HETATM   20  N5  UNL     1      26.844   2.280  51.146  1.00  0.00    -0.062 NA
BRANCH  19  21
HETATM   21  C13 UNL     1      27.710   0.746  52.868  1.00  0.00     0.011 A 
HETATM   22  C14 UNL     1      28.928   1.144  53.372  1.00  0.00     0.017 A 
HETATM   23  C15 UNL     1      29.776   0.132  53.812  1.00  0.00     0.020 A 
HETATM   24  C16 UNL     1      29.469  -1.204  53.770  1.00  0.00     0.116 A 
HETATM   25  N4  UNL     1      28.272  -1.529  53.271  1.00  0.00    -0.272 NA
HETATM   26  C17 UNL     1      27.404  -0.597  52.827  1.00  0.00     0.130 A 
ENDBRANCH  19  21
ENDBRANCH   1  15
TORSDOF 6
ENDMDL
MODEL 3
REMARK VINA RESULT:      -8.1      1.937      7.733
REMARK  6 active torsions:
REMARK  status: ('A' for Active; 'I' for Inactive)
REMARK    1  A    between atoms: C2_2  and  C3_3 
REMARK    2  A    between atoms: C2_2  and  C4_5 
REMARK    3  A    between atoms: C3_3  and  N1_4 
REMARK    4  A    between atoms: C8_9  and  N2_10 
REMARK    5  A    between atoms: N2_10  and  C9_11 
REMARK    6  A    between atoms: C12_15  and  C13_16 
ROOT
HETATM    1  N2  UNL     1      25.738   3.956  49.461  1.00  0.00    -0.188 N 
HETATM    2  H12 UNL     1      25.312   3.256  48.818  1.00  0.00     0.184 HD
ENDROOT
BRANCH   1   3
HETATM    3  C8  UNL     1      26.608   5.002  49.054  1.00  0.00     0.049 A 
HETATM    4  C7  UNL     1      27.861   4.681  48.581  1.00  0.00     0.030 A 
HETATM    5  C6  UNL     1      28.631   5.763  48.206  1.00  0.00     0.003 A 
HETATM    6  C5  UNL     1      28.180   7.062  48.299  1.00  0.00     0.007 A 
HETATM    7  C4  UNL     1      26.912   7.324  48.783  1.00  0.00    -0.051 A 
HETATM    8  C18 UNL     1      26.117   6.276  49.165  1.00  0.00     0.037 A 
BRANCH   7   9
HETATM    9  C2  UNL     1      26.458   8.752  48.861  1.00  0.00     0.042 C 
HETATM   10  C1  UNL     1      25.154   8.901  49.561  1.00  0.00     0.016 C 
BRANCH   9  11
HETATM   11  C3  UNL     1      27.595   9.500  49.531  1.00  0.00     0.275 C 
BRANCH  11  12
HETATM   12  N1  UNL     1      27.616   9.298  50.966  1.00  0.00     0.078 N 
HETATM   13  H7  UNL     1      26.827   8.607  51.170  1.00  0.00     0.312 HD
HETATM   14  H8  UNL     1      27.273  10.184  51.432  1.00  0.00     0.312 HD
ENDBRANCH  11  12
ENDBRANCH   9  11
ENDBRANCH   7   9
ENDBRANCH   1   3
BRANCH   1  15
HETATM   15  C9  UNL     1      25.234   3.574  50.709  1.00  0.00     0.727 A 
HETATM   16  N3  UNL     1      24.016   3.828  51.225  1.00  0.00    -0.075 NA
HETATM   17  C10 UNL     1      23.705   3.381  52.453  1.00  0.00     0.139 A 
HETATM   18  C11 UNL     1      24.671   2.666  53.148  1.00  0.00     0.053 A 
HETATM   19  C12 UNL     1      25.912   2.390  52.662  1.00  0.00     0.089 A 
HETATM   20  N5  UNL     1      26.160   2.870  51.417  1.00  0.00    -0.062 NA
BRANCH  19  21
HETATM   21  C13 UNL     1      26.926   1.638  53.408  1.00  0.00     0.011 A 
HETATM   22  C14 UNL     1      28.267   1.945  53.371  1.00  0.00     0.017 A 
HETATM   23  C15 UNL     1      29.109   1.135  54.129  1.00  0.00     0.020 A 
HETATM   24  C16 UNL     1      28.680   0.076  54.888  1.00  0.00     0.116 A 
HETATM   25  N4  UNL     1      27.367  -0.173  54.884  1.00  0.00    -0.272 NA
HETATM   26  C17 UNL     1      26.498   0.573  54.171  1.00  0.00     0.130 A 
ENDBRANCH  19  21
ENDBRANCH   1  15
TORSDOF 6
ENDMDL
MODEL 4
REMARK VINA RESULT:      -7.9      1.390      1.852
REMARK  6 active torsions:
REMARK  status: ('A' for Active; 'I' for Inactive)
REMARK    1  A    between atoms: C2_2  and  C3_3 
REMARK    2  A    between atoms: C2_2  and  C4_5 
REMARK    3  A    between atoms: C3_3  and  N1_4 
REMARK    4  A    between atoms: C8_9  and  N2_10 
REMARK    5  A    between atoms: N2_10  and  C9_11 
REMARK    6  A    between atoms: C12_15  and  C13_16 
ROOT
HETATM    1  N2  UNL     1      23.317   3.356  52.250  1.00  0.00    -0.188 N 
HETATM    2  H12 UNL     1      23.334   4.188  52.875  1.00  0.00     0.184 HD
ENDROOT
BRANCH   1   3
HETATM    3  C8  UNL     1      23.342   2.008  52.698  1.00  0.00     0.049 A 
HETATM    4  C7  UNL     1      22.148   1.344  52.880  1.00  0.00     0.030 A 
HETATM    5  C6  UNL     1      22.274   0.039  53.311  1.00  0.00     0.003 A 
HETATM    6  C5  UNL     1      23.498  -0.551  53.542  1.00  0.00     0.007 A 
HETATM    7  C4  UNL     1      24.664   0.165  53.342  1.00  0.00    -0.051 A 
HETATM    8  C18 UNL     1      24.580   1.463  52.914  1.00  0.00     0.037 A 
BRANCH   7   9
HETATM    9  C2  UNL     1      25.975  -0.518  53.598  1.00  0.00     0.042 C 
HETATM   10  C1  UNL     1      26.794  -0.664  52.365  1.00  0.00     0.016 C 
BRANCH   9  11
HETATM   11  C3  UNL     1      26.651   0.301  54.681  1.00  0.00     0.275 C 
BRANCH  11  12
HETATM   12  N1  UNL     1      27.998  -0.159  54.958  1.00  0.00     0.078 N 
HETATM   13  H7  UNL     1      28.292   0.338  55.856  1.00  0.00     0.312 HD
HETATM   14  H8  UNL     1      28.647   0.263  54.237  1.00  0.00     0.312 HD
ENDBRANCH  11  12
ENDBRANCH   9  11
ENDBRANCH   7   9
ENDBRANCH   1   3
BRANCH   1  15
HETATM   15  C9  UNL     1      23.268   3.929  50.975  1.00  0.00     0.727 A 
HETATM   16  N3  UNL     1      22.194   4.089  50.178  1.00  0.00    -0.075 NA
HETATM   17  C10 UNL     1      22.337   4.664  48.973  1.00  0.00     0.139 A 
HETATM   18  C11 UNL     1      23.608   5.074  48.596  1.00  0.00     0.053 A 
HETATM   19  C12 UNL     1      24.717   4.929  49.371  1.00  0.00     0.089 A 
HETATM   20  N5  UNL     1      24.502   4.342  50.575  1.00  0.00    -0.062 NA
BRANCH  19  21
HETATM   21  C13 UNL     1      26.057   5.362  48.960  1.00  0.00     0.011 A 
HETATM   22  C14 UNL     1      26.344   6.653  48.578  1.00  0.00     0.017 A 
HETATM   23  C15 UNL     1      27.663   6.909  48.209  1.00  0.00     0.020 A 
HETATM   24  C16 UNL     1      28.660   5.968  48.208  1.00  0.00     0.116 A 
HETATM   25  N4  UNL     1      28.320   4.733  48.589  1.00  0.00    -0.272 NA
HETATM   26  C17 UNL     1      27.060   4.418  48.958  1.00  0.00     0.130 A 
ENDBRANCH  19  21
ENDBRANCH   1  15
TORSDOF 6
ENDMDL
MODEL 5
REMARK VINA RESULT:      -7.9      4.333      7.702
REMARK  6 active torsions:
REMARK  status: ('A' for Active; 'I' for Inactive)
REMARK    1  A    between atoms: C2_2  and  C3_3 
REMARK    2  A    between atoms: C2_2  and  C4_5 
REMARK    3  A    between atoms: C3_3  and  N1_4 
REMARK    4  A    between atoms: C8_9  and  N2_10 
REMARK    5  A    between atoms: N2_10  and  C9_11 
REMARK    6  A    between atoms: C12_15  and  C13_16 
ROOT
HETATM    1  N2  UNL     1      22.387  -0.349  53.061  1.00  0.00    -0.188 N 
HETATM    2  H12 UNL     1      22.675  -1.200  53.588  1.00  0.00     0.184 HD
ENDROOT
BRANCH   1   3
HETATM    3  C8  UNL     1      21.110  -0.160  52.467  1.00  0.00     0.049 A 
HETATM    4  C7  UNL     1      21.024   0.536  51.281  1.00  0.00     0.030 A 
HETATM    5  C6  UNL     1      19.745   0.663  50.779  1.00  0.00     0.003 A 
HETATM    6  C5  UNL     1      18.642   0.136  51.416  1.00  0.00     0.007 A 
HETATM    7  C4  UNL     1      18.791  -0.553  52.606  1.00  0.00    -0.051 A 
HETATM    8  C18 UNL     1      20.045  -0.701  53.136  1.00  0.00     0.037 A 
BRANCH   7   9
HETATM    9  C2  UNL     1      17.565  -1.116  53.263  1.00  0.00     0.042 C 
HETATM   10  C1  UNL     1      16.363  -1.042  52.391  1.00  0.00     0.016 C 
BRANCH   9  11
HETATM   11  C3  UNL     1      17.936  -2.532  53.664  1.00  0.00     0.275 C 
BRANCH  11  12
HETATM   12  N1  UNL     1      16.788  -3.416  53.686  1.00  0.00     0.078 N 
HETATM   13  H7  UNL     1      16.790  -3.865  54.655  1.00  0.00     0.312 HD
HETATM   14  H8  UNL     1      16.989  -4.237  53.050  1.00  0.00     0.312 HD
ENDBRANCH  11  12
ENDBRANCH   9  11
ENDBRANCH   7   9
ENDBRANCH   1   3
BRANCH   1  15
HETATM   15  C9  UNL     1      23.532   0.452  53.120  1.00  0.00     0.727 A 
HETATM   16  N3  UNL     1      23.603   1.797  53.143  1.00  0.00    -0.075 NA
HETATM   17  C10 UNL     1      24.801   2.401  53.198  1.00  0.00     0.139 A 
HETATM   18  C11 UNL     1      25.933   1.598  53.230  1.00  0.00     0.053 A 
HETATM   19  C12 UNL     1      25.903   0.238  53.207  1.00  0.00     0.089 A 
HETATM   20  N5  UNL     1      24.661  -0.307  53.152  1.00  0.00    -0.062 NA
BRANCH  19  21
HETATM   21  C13 UNL     1      27.106  -0.601  53.236  1.00  0.00     0.011 A 
HETATM   22  C14 UNL     1      28.329  -0.145  53.672  1.00  0.00     0.017 A 
HETATM   23  C15 UNL     1      29.379  -1.058  53.636  1.00  0.00     0.020 A 
HETATM   24  C16 UNL     1      29.259  -2.353  53.198  1.00  0.00     0.116 A 
HETATM   25  N4  UNL     1      28.047  -2.738  52.787  1.00  0.00    -0.272 NA
HETATM   26  C17 UNL     1      26.988  -1.902  52.796  1.00  0.00     0.130 A 
ENDBRANCH  19  21
ENDBRANCH   1  15
TORSDOF 6
ENDMDL
MODEL 6
REMARK VINA RESULT:      -7.8      2.635      7.268
REMARK  6 active torsions:
REMARK  status: ('A' for Active; 'I' for Inactive)
REMARK    1  A    between atoms: C2_2  and  C3_3 
REMARK    2  A    between atoms: C2_2  and  C4_5 
REMARK    3  A    between atoms: C3_3  and  N1_4 
REMARK    4  A    between atoms: C8_9  and  N2_10 
REMARK    5  A    between atoms: N2_10  and  C9_11 
REMARK    6  A    between atoms: C12_15  and  C13_16 
ROOT
HETATM    1  N2  UNL     1      21.554   1.442  52.085  1.00  0.00    -0.188 N 
HETATM    2  H12 UNL     1      20.562   1.584  52.363  1.00  0.00     0.184 HD
ENDROOT
BRANCH   1   3
HETATM    3  C8  UNL     1      22.173   2.052  50.960  1.00  0.00     0.049 A 
HETATM    4  C7  UNL     1      21.979   1.499  49.713  1.00  0.00     0.030 A 
HETATM    5  C6  UNL     1      22.615   2.163  48.683  1.00  0.00     0.003 A 
HETATM    6  C5  UNL     1      23.383   3.289  48.889  1.00  0.00     0.007 A 
HETATM    7  C4  UNL     1      23.542   3.798  50.165  1.00  0.00    -0.051 A 
HETATM    8  C18 UNL     1      22.927   3.167  51.213  1.00  0.00     0.037 A 
BRANCH   7   9
HETATM    9  C2  UNL     1      24.381   5.029  50.343  1.00  0.00     0.042 C 
HETATM   10  C1  UNL     1      24.499   5.827  49.094  1.00  0.00     0.016 C 
BRANCH   9  11
HETATM   11  C3  UNL     1      23.742   5.789  51.490  1.00  0.00     0.275 C 
BRANCH  11  12
HETATM   12  N1  UNL     1      24.492   6.977  51.848  1.00  0.00     0.078 N 
HETATM   13  H7  UNL     1      25.072   7.221  50.985  1.00  0.00     0.312 HD
HETATM   14  H8  UNL     1      25.231   6.703  52.553  1.00  0.00     0.312 HD
ENDBRANCH  11  12
ENDBRANCH   9  11
ENDBRANCH   7   9
ENDBRANCH   1   3
BRANCH   1  15
HETATM   15  C9  UNL     1      22.026   0.560  53.062  1.00  0.00     0.727 A 
HETATM   16  N3  UNL     1      21.310  -0.136  53.966  1.00  0.00    -0.075 NA
HETATM   17  C10 UNL     1      21.939  -0.941  54.838  1.00  0.00     0.139 A 
HETATM   18  C11 UNL     1      23.323  -1.021  54.768  1.00  0.00     0.053 A 
HETATM   19  C12 UNL     1      24.081  -0.333  53.871  1.00  0.00     0.089 A 
HETATM   20  N5  UNL     1      23.383   0.461  53.019  1.00  0.00    -0.062 NA
BRANCH  19  21
HETATM   21  C13 UNL     1      25.544  -0.420  53.809  1.00  0.00     0.011 A 
HETATM   22  C14 UNL     1      26.222  -0.880  52.704  1.00  0.00     0.017 A 
HETATM   23  C15 UNL     1      27.611  -0.909  52.798  1.00  0.00     0.020 A 
HETATM   24  C16 UNL     1      28.317  -0.514  53.906  1.00  0.00     0.116 A 
HETATM   25  N4  UNL     1      27.603  -0.077  54.948  1.00  0.00    -0.272 NA
HETATM   26  C17 UNL     1      26.255  -0.024  54.921  1.00  0.00     0.130 A 
ENDBRANCH  19  21
ENDBRANCH   1  15
TORSDOF 6
ENDMDL
MODEL 7
REMARK VINA RESULT:      -7.7      2.111      8.302
REMARK  6 active torsions:
REMARK  status: ('A' for Active; 'I' for Inactive)
REMARK    1  A    between atoms: C2_2  and  C3_3 
REMARK    2  A    between atoms: C2_2  and  C4_5 
REMARK    3  A    between atoms: C3_3  and  N1_4 
REMARK    4  A    between atoms: C8_9  and  N2_10 
REMARK    5  A    between atoms: N2_10  and  C9_11 
REMARK    6  A    between atoms: C12_15  and  C13_16 
ROOT
HETATM    1  N2  UNL     1      25.054   3.509  50.612  1.00  0.00    -0.188 N 
HETATM    2  H12 UNL     1      24.013   3.525  50.621  1.00  0.00     0.184 HD
ENDROOT
BRANCH   1   3
HETATM    3  C8  UNL     1      25.871   4.430  49.902  1.00  0.00     0.049 A 
HETATM    4  C7  UNL     1      26.959   3.954  49.204  1.00  0.00     0.030 A 
HETATM    5  C6  UNL     1      27.687   4.922  48.543  1.00  0.00     0.003 A 
HETATM    6  C5  UNL     1      27.351   6.258  48.579  1.00  0.00     0.007 A 
HETATM    7  C4  UNL     1      26.246   6.677  49.298  1.00  0.00    -0.051 A 
HETATM    8  C18 UNL     1      25.498   5.746  49.968  1.00  0.00     0.037 A 
BRANCH   7   9
HETATM    9  C2  UNL     1      25.912   8.140  49.306  1.00  0.00     0.042 C 
HETATM   10  C1  UNL     1      24.865   8.482  50.306  1.00  0.00     0.016 C 
BRANCH   9  11
HETATM   11  C3  UNL     1      27.230   8.853  49.540  1.00  0.00     0.275 C 
BRANCH  11  12
HETATM   12  N1  UNL     1      27.451   9.154  50.941  1.00  0.00     0.078 N 
HETATM   13  H7  UNL     1      28.236   8.501  51.254  1.00  0.00     0.312 HD
HETATM   14  H8  UNL     1      26.621   8.799  51.492  1.00  0.00     0.312 HD
ENDBRANCH  11  12
ENDBRANCH   9  11
ENDBRANCH   7   9
ENDBRANCH   1   3
BRANCH   1  15
HETATM   15  C9  UNL     1      25.353   2.414  51.430  1.00  0.00     0.727 A 
HETATM   16  N3  UNL     1      26.566   1.938  51.769  1.00  0.00    -0.075 NA
HETATM   17  C10 UNL     1      26.662   0.865  52.570  1.00  0.00     0.139 A 
HETATM   18  C11 UNL     1      25.485   0.283  53.020  1.00  0.00     0.053 A 
HETATM   19  C12 UNL     1      24.241   0.732  52.699  1.00  0.00     0.089 A 
HETATM   20  N5  UNL     1      24.217   1.820  51.887  1.00  0.00    -0.062 NA
BRANCH  19  21
HETATM   21  C13 UNL     1      23.004   0.105  53.176  1.00  0.00     0.011 A 
HETATM   22  C14 UNL     1      22.974  -0.815  54.199  1.00  0.00     0.017 A 
HETATM   23  C15 UNL     1      21.723  -1.325  54.536  1.00  0.00     0.020 A 
HETATM   24  C16 UNL     1      20.553  -0.967  53.917  1.00  0.00     0.116 A 
HETATM   25  N4  UNL     1      20.645  -0.069  52.931  1.00  0.00    -0.272 NA
HETATM   26  C17 UNL     1      21.827   0.463  52.555  1.00  0.00     0.130 A 
ENDBRANCH  19  21
ENDBRANCH   1  15
TORSDOF 6
ENDMDL
MODEL 8
REMARK VINA RESULT:      -7.7      2.255      8.101
REMARK  6 active torsions:
REMARK  status: ('A' for Active; 'I' for Inactive)
REMARK    1  A    between atoms: C2_2  and  C3_3 
REMARK    2  A    between atoms: C2_2  and  C4_5 
REMARK    3  A    between atoms: C3_3  and  N1_4 
REMARK    4  A    between atoms: C8_9  and  N2_10 
REMARK    5  A    between atoms: N2_10  and  C9_11 
REMARK    6  A    between atoms: C12_15  and  C13_16 
ROOT
HETATM    1  N2  UNL     1      26.493   2.506  50.259  1.00  0.00    -0.188 N 
HETATM    2  H12 UNL     1      27.099   1.868  49.703  1.00  0.00     0.184 HD
ENDROOT
BRANCH   1   3
HETATM    3  C8  UNL     1      25.684   3.536  49.709  1.00  0.00     0.049 A 
HETATM    4  C7  UNL     1      24.360   3.269  49.435  1.00  0.00     0.030 A 
HETATM    5  C6  UNL     1      23.655   4.332  48.908  1.00  0.00     0.003 A 
HETATM    6  C5  UNL     1      24.231   5.562  48.674  1.00  0.00     0.007 A 
HETATM    7  C4  UNL     1      25.566   5.771  48.969  1.00  0.00    -0.051 A 
HETATM    8  C18 UNL     1      26.300   4.740  49.494  1.00  0.00     0.037 A 
BRANCH   7   9
HETATM    9  C2  UNL     1      26.152   7.127  48.706  1.00  0.00     0.042 C 
HETATM   10  C1  UNL     1      25.634   7.741  47.455  1.00  0.00     0.016 C 
BRANCH   9  11
HETATM   11  C3  UNL     1      25.856   7.943  49.950  1.00  0.00     0.275 C 
BRANCH  11  12
HETATM   12  N1  UNL     1      27.056   8.505  50.537  1.00  0.00     0.078 N 
HETATM   13  H7  UNL     1      26.726   9.332  51.127  1.00  0.00     0.312 HD
HETATM   14  H8  UNL     1      27.612   8.975  49.770  1.00  0.00     0.312 HD
ENDBRANCH  11  12
ENDBRANCH   9  11
ENDBRANCH   7   9
ENDBRANCH   1   3
BRANCH   1  15
HETATM   15  C9  UNL     1      26.708   2.070  51.571  1.00  0.00     0.727 A 
HETATM   16  N3  UNL     1      27.790   2.278  52.347  1.00  0.00    -0.075 NA
HETATM   17  C10 UNL     1      27.823   1.777  53.593  1.00  0.00     0.139 A 
HETATM   18  C11 UNL     1      26.723   1.055  54.032  1.00  0.00     0.053 A 
HETATM   19  C12 UNL     1      25.613   0.823  53.279  1.00  0.00     0.089 A 
HETATM   20  N5  UNL     1      25.645   1.357  52.032  1.00  0.00    -0.062 NA
BRANCH  19  21
HETATM   21  C13 UNL     1      24.458   0.053  53.753  1.00  0.00     0.011 A 
HETATM   22  C14 UNL     1      23.236   0.065  53.118  1.00  0.00     0.017 A 
HETATM   23  C15 UNL     1      22.234  -0.713  53.691  1.00  0.00     0.020 A 
HETATM   24  C16 UNL     1      22.398  -1.470  54.824  1.00  0.00     0.116 A 
HETATM   25  N4  UNL     1      23.606  -1.441  55.395  1.00  0.00    -0.272 NA
HETATM   26  C17 UNL     1      24.620  -0.707  54.891  1.00  0.00     0.130 A 
ENDBRANCH  19  21
ENDBRANCH   1  15
TORSDOF 6
ENDMDL
MODEL 9
REMARK VINA RESULT:      -7.6      1.694      7.383
REMARK  6 active torsions:
REMARK  status: ('A' for Active; 'I' for Inactive)
REMARK    1  A    between atoms: C2_2  and  C3_3 
REMARK    2  A    between atoms: C2_2  and  C4_5 
REMARK    3  A    between atoms: C3_3  and  N1_4 
REMARK    4  A    between atoms: C8_9  and  N2_10 
REMARK    5  A    between atoms: N2_10  and  C9_11 
REMARK    6  A    between atoms: C12_15  and  C13_16 
ROOT
HETATM    1  N2  UNL     1      24.660   3.752  51.472  1.00  0.00    -0.188 N 
HETATM    2  H12 UNL     1      23.911   4.264  51.981  1.00  0.00     0.184 HD
ENDROOT
BRANCH   1   3
HETATM    3  C8  UNL     1      25.505   4.326  50.484  1.00  0.00     0.049 A 
HETATM    4  C7  UNL     1      26.513   3.559  49.943  1.00  0.00     0.030 A 
HETATM    5  C6  UNL     1      27.276   4.201  48.989  1.00  0.00     0.003 A 
HETATM    6  C5  UNL     1      27.046   5.505  48.609  1.00  0.00     0.007 A 
HETATM    7  C4  UNL     1      26.018   6.226  49.188  1.00  0.00    -0.051 A 
HETATM    8  C18 UNL     1      25.238   5.624  50.139  1.00  0.00     0.037 A 
BRANCH   7   9
HETATM    9  C2  UNL     1      25.797   7.641  48.741  1.00  0.00     0.042 C 
HETATM   10  C1  UNL     1      24.632   7.778  47.827  1.00  0.00     0.016 C 
BRANCH   9  11
HETATM   11  C3  UNL     1      25.666   8.451  50.016  1.00  0.00     0.275 C 
BRANCH  11  12
HETATM   12  N1  UNL     1      26.936   8.620  50.694  1.00  0.00     0.078 N 
HETATM   13  H7  UNL     1      27.530   9.225  50.045  1.00  0.00     0.312 HD
HETATM   14  H8  UNL     1      27.446   7.693  50.678  1.00  0.00     0.312 HD
ENDBRANCH  11  12
ENDBRANCH   9  11
ENDBRANCH   7   9
ENDBRANCH   1   3
BRANCH   1  15
HETATM   15  C9  UNL     1      24.575   2.464  52.013  1.00  0.00     0.727 A 
HETATM   16  N3  UNL     1      23.466   1.749  52.281  1.00  0.00    -0.075 NA
HETATM   17  C10 UNL     1      23.577   0.518  52.808  1.00  0.00     0.139 A 
HETATM   18  C11 UNL     1      24.852   0.031  53.057  1.00  0.00     0.053 A 
HETATM   19  C12 UNL     1      25.996   0.723  52.801  1.00  0.00     0.089 A 
HETATM   20  N5  UNL     1      25.812   1.958  52.270  1.00  0.00    -0.062 NA
BRANCH  19  21
HETATM   21  C13 UNL     1      27.339   0.199  53.074  1.00  0.00     0.011 A 
HETATM   22  C14 UNL     1      27.658  -1.136  52.977  1.00  0.00     0.017 A 
HETATM   23  C15 UNL     1      28.975  -1.480  53.272  1.00  0.00     0.020 A 
HETATM   24  C16 UNL     1      29.942  -0.581  53.643  1.00  0.00     0.116 A 
HETATM   25  N4  UNL     1      29.572   0.701  53.719  1.00  0.00    -0.272 NA
HETATM   26  C17 UNL     1      28.312   1.101  53.447  1.00  0.00     0.130 A 
ENDBRANCH  19  21
ENDBRANCH   1  15
TORSDOF 6
ENDMDL
