MODEL 1
REMARK VINA RESULT:     -10.8      0.000      0.000
REMARK  2 active torsions:
REMARK  status: ('A' for Active; 'I' for Inactive)
REMARK    1  A    between atoms: C7_14  and  C8_15 
REMARK    2  A    between atoms: C8_15  and  C9_16 
ROOT
HETATM    1  F1  UNL     1      22.274   0.471  51.248  1.00  0.00    -0.187 F 
HETATM    2  C1  UNL     1      23.032   0.876  52.299  1.00  0.00     0.211 C 
HETATM    3  N1  UNL     1      24.020   1.445  51.779  1.00  0.00    -0.128 NA
HETATM    4  N2  UNL     1      25.145   2.069  52.261  1.00  0.00    -0.176 N 
HETATM    5  N3  UNL     1      25.841   3.039  53.106  1.00  0.00    -0.128 NA
HETATM    6  N4  UNL     1      26.723   2.359  53.893  1.00  0.00    -0.320 N 
HETATM    7  C2  UNL     1      28.119   2.487  53.731  1.00  0.00     0.258 C 
HETATM    8  N5  UNL     1      28.706   1.255  54.342  1.00  0.00    -0.368 N 
HETATM    9  C3  UNL     1      28.636  -0.162  54.068  1.00  0.00     0.204 C 
HETATM   10  N6  UNL     1      27.613  -0.988  53.777  1.00  0.00    -0.248 NA
HETATM   11  C4  UNL     1      26.317  -0.281  53.736  1.00  0.00     0.041 C 
HETATM   12  C5  UNL     1      26.514   0.494  52.636  1.00  0.00     0.060 C 
HETATM   13  C6  UNL     1      26.264   1.476  51.584  1.00  0.00     0.071 C 
HETATM   14  C7  UNL     1      26.323   2.268  50.537  1.00  0.00     0.011 C 
HETATM   15  C15 UNL     1      25.099  -0.261  54.518  1.00  0.00     0.088 C 
HETATM   16  C16 UNL     1      24.083  -1.243  54.559  1.00  0.00    -0.001 C 
HETATM   17  C17 UNL     1      22.845  -0.832  54.095  1.00  0.00     0.016 C 
HETATM   18 CL2  UNL     1      21.520  -2.014  54.105  1.00  0.00    -0.089 Cl
HETATM   19  C18 UNL     1      22.677   0.618  53.678  1.00  0.00     0.144 C 
HETATM   20  H1  UNL     1      26.265   3.756  52.514  1.00  0.00     0.174 HD
HETATM   21  H2  UNL     1      26.427   2.321  54.909  1.00  0.00     0.177 HD
HETATM   22  H5  UNL     1      29.336   1.401  55.191  1.00  0.00     0.162 HD
ENDROOT
BRANCH  14  23
HETATM   23  C8  UNL     1      25.462   3.393  50.231  1.00  0.00     0.068 C 
BRANCH  23  24
HETATM   24  C9  UNL     1      26.321   4.400  49.506  1.00  0.00    -0.055 A 
HETATM   25  C10 UNL     1      25.686   5.643  49.398  1.00  0.00     0.009 A 
HETATM   26  C11 UNL     1      26.314   6.699  48.759  1.00  0.00     0.024 A 
HETATM   27  C12 UNL     1      27.558   6.583  48.215  1.00  0.00     0.034 A 
HETATM   28 CL1  UNL     1      28.373   7.893  47.407  1.00  0.00    -0.084 Cl
HETATM   29  C13 UNL     1      28.163   5.349  48.335  1.00  0.00     0.024 A 
HETATM   30  C14 UNL     1      27.566   4.285  48.961  1.00  0.00     0.009 A 
ENDBRANCH  23  24
ENDBRANCH  14  23
TORSDOF 2
ENDMDL
MODEL 2
REMARK VINA RESULT:     -10.0      3.186      6.864
REMARK  2 active torsions:
REMARK  status: ('A' for Active; 'I' for Inactive)
REMARK    1  A    between atoms: C7_14  and  C8_15 
REMARK    2  A    between atoms: C8_15  and  C9_16 
ROOT
HETATM    1  F1  UNL     1      25.658  -1.459  53.982  1.00  0.00    -0.187 F 
HETATM    2  C1  UNL     1      25.760  -0.105  54.010  1.00  0.00     0.211 C 
HETATM    3  N1  UNL     1      24.756   0.303  53.382  1.00  0.00    -0.128 NA
HETATM    4  N2  UNL     1      24.259   1.538  53.043  1.00  0.00    -0.176 N 
HETATM    5  N3  UNL     1      23.825   2.902  53.351  1.00  0.00    -0.128 NA
HETATM    6  N4  UNL     1      24.570   3.762  52.599  1.00  0.00    -0.320 N 
HETATM    7  C2  UNL     1      24.003   4.521  51.553  1.00  0.00     0.258 C 
HETATM    8  N5  UNL     1      25.146   4.887  50.661  1.00  0.00    -0.368 N 
HETATM    9  C3  UNL     1      26.088   4.157  49.845  1.00  0.00     0.204 C 
HETATM   10  N6  UNL     1      26.824   3.051  50.067  1.00  0.00    -0.248 NA
HETATM   11  C4  UNL     1      26.607   2.494  51.416  1.00  0.00     0.041 C 
HETATM   12  C5  UNL     1      25.316   2.081  51.289  1.00  0.00     0.060 C 
HETATM   13  C6  UNL     1      24.017   1.510  51.629  1.00  0.00     0.071 C 
HETATM   14  C7  UNL     1      22.782   1.059  51.634  1.00  0.00     0.011 C 
HETATM   15  C15 UNL     1      27.376   2.342  52.634  1.00  0.00     0.088 C 
HETATM   16  C16 UNL     1      28.423   1.426  52.885  1.00  0.00    -0.001 C 
HETATM   17  C17 UNL     1      28.169   0.495  53.877  1.00  0.00     0.016 C 
HETATM   18 CL2  UNL     1      29.434  -0.695  54.242  1.00  0.00    -0.089 Cl
HETATM   19  C18 UNL     1      26.860   0.594  54.640  1.00  0.00     0.144 C 
HETATM   20  H1  UNL     1      22.816   2.973  53.204  1.00  0.00     0.174 HD
HETATM   21  H2  UNL     1      25.272   4.310  53.172  1.00  0.00     0.177 HD
HETATM   22  H5  UNL     1      25.362   5.928  50.572  1.00  0.00     0.162 HD
ENDROOT
BRANCH  14  23
HETATM   23  C8  UNL     1      21.973   0.714  52.785  1.00  0.00     0.068 C 
BRANCH  23  24
HETATM   24  C9  UNL     1      20.593   0.403  52.257  1.00  0.00    -0.055 A 
HETATM   25  C10 UNL     1      19.841  -0.341  53.173  1.00  0.00     0.009 A 
HETATM   26  C11 UNL     1      18.547  -0.730  52.869  1.00  0.00     0.024 A 
HETATM   27  C12 UNL     1      17.954  -0.412  51.684  1.00  0.00     0.034 A 
HETATM   28 CL1  UNL     1      16.329  -0.885  51.273  1.00  0.00    -0.084 Cl
HETATM   29  C13 UNL     1      18.715   0.322  50.798  1.00  0.00     0.024 A 
HETATM   30  C14 UNL     1      19.999   0.720  51.071  1.00  0.00     0.009 A 
ENDBRANCH  23  24
ENDBRANCH  14  23
TORSDOF 2
ENDMDL
MODEL 3
REMARK VINA RESULT:      -9.5      1.736      2.208
REMARK  2 active torsions:
REMARK  status: ('A' for Active; 'I' for Inactive)
REMARK    1  A    between atoms: C7_14  and  C8_15 
REMARK    2  A    between atoms: C8_15  and  C9_16 
ROOT
HETATM    1  F1  UNL     1      21.354   2.503  49.393  1.00  0.00    -0.187 F 
HETATM    2  C1  UNL     1      21.809   2.611  50.668  1.00  0.00     0.211 C 
HETATM    3  N1  UNL     1      23.019   2.915  50.551  1.00  0.00    -0.128 NA
HETATM    4  N2  UNL     1      24.045   3.167  51.428  1.00  0.00    -0.176 N 
HETATM    5  N3  UNL     1      24.647   3.847  52.576  1.00  0.00    -0.128 NA
HETATM    6  N4  UNL     1      25.035   2.898  53.474  1.00  0.00    -0.320 N 
HETATM    7  C2  UNL     1      26.396   2.642  53.748  1.00  0.00     0.258 C 
HETATM    8  N5  UNL     1      26.436   1.258  54.311  1.00  0.00    -0.368 N 
HETATM    9  C3  UNL     1      26.115  -0.062  53.819  1.00  0.00     0.204 C 
HETATM   10  N6  UNL     1      25.071  -0.549  53.122  1.00  0.00    -0.248 NA
HETATM   11  C4  UNL     1      24.070   0.491  52.811  1.00  0.00     0.041 C 
HETATM   12  C5  UNL     1      24.793   1.253  51.946  1.00  0.00     0.060 C 
HETATM   13  C6  UNL     1      25.142   2.332  51.027  1.00  0.00     0.071 C 
HETATM   14  C7  UNL     1      25.726   3.144  50.173  1.00  0.00     0.011 C 
HETATM   15  C15 UNL     1      22.709   0.798  53.197  1.00  0.00     0.088 C 
HETATM   16  C16 UNL     1      21.527   0.138  52.792  1.00  0.00    -0.001 C 
HETATM   17  C17 UNL     1      20.644   0.907  52.054  1.00  0.00     0.016 C 
HETATM   18 CL2  UNL     1      19.140   0.143  51.499  1.00  0.00    -0.089 Cl
HETATM   19  C18 UNL     1      20.977   2.371  51.829  1.00  0.00     0.144 C 
HETATM   20  H1  UNL     1      25.400   4.455  52.248  1.00  0.00     0.174 HD
HETATM   21  H2  UNL     1      24.428   2.877  54.342  1.00  0.00     0.177 HD
HETATM   22  H5  UNL     1      26.775   1.167  55.319  1.00  0.00     0.162 HD
ENDROOT
BRANCH  14  23
HETATM   23  C8  UNL     1      25.311   4.482  49.802  1.00  0.00     0.068 C 
BRANCH  23  24
HETATM   24  C9  UNL     1      26.498   5.123  49.125  1.00  0.00    -0.055 A 
HETATM   25  C10 UNL     1      26.237   6.449  48.763  1.00  0.00     0.009 A 
HETATM   26  C11 UNL     1      27.205   7.206  48.125  1.00  0.00     0.024 A 
HETATM   27  C12 UNL     1      28.436   6.706  47.823  1.00  0.00     0.034 A 
HETATM   28 CL1  UNL     1      29.673   7.634  47.022  1.00  0.00    -0.084 Cl
HETATM   29  C13 UNL     1      28.669   5.397  48.190  1.00  0.00     0.024 A 
HETATM   30  C14 UNL     1      27.731   4.623  48.823  1.00  0.00     0.009 A 
ENDBRANCH  23  24
ENDBRANCH  14  23
TORSDOF 2
ENDMDL
MODEL 4
REMARK VINA RESULT:      -9.3      2.446      4.744
REMARK  2 active torsions:
REMARK  status: ('A' for Active; 'I' for Inactive)
REMARK    1  A    between atoms: C7_14  and  C8_15 
REMARK    2  A    between atoms: C8_15  and  C9_16 
ROOT
HETATM    1  F1  UNL     1      25.418   0.914  53.452  1.00  0.00    -0.187 F 
HETATM    2  C1  UNL     1      24.339   0.691  52.659  1.00  0.00     0.211 C 
HETATM    3  N1  UNL     1      24.300   1.679  51.889  1.00  0.00    -0.128 NA
HETATM    4  N2  UNL     1      23.478   2.077  50.863  1.00  0.00    -0.176 N 
HETATM    5  N3  UNL     1      22.774   1.872  49.596  1.00  0.00    -0.128 NA
HETATM    6  N4  UNL     1      21.442   2.067  49.816  1.00  0.00    -0.320 N 
HETATM    7  C2  UNL     1      20.749   3.166  49.265  1.00  0.00     0.258 C 
HETATM    8  N5  UNL     1      19.538   3.344  50.124  1.00  0.00    -0.368 N 
HETATM    9  C3  UNL     1      19.299   3.674  51.510  1.00  0.00     0.204 C 
HETATM   10  N6  UNL     1      19.854   3.247  52.660  1.00  0.00    -0.248 NA
HETATM   11  C4  UNL     1      20.913   2.243  52.433  1.00  0.00     0.041 C 
HETATM   12  C5  UNL     1      21.843   3.026  51.821  1.00  0.00     0.060 C 
HETATM   13  C6  UNL     1      23.080   3.425  51.157  1.00  0.00     0.071 C 
HETATM   14  C7  UNL     1      24.061   4.070  50.566  1.00  0.00     0.011 C 
HETATM   15  C15 UNL     1      21.103   0.831  52.688  1.00  0.00     0.088 C 
HETATM   16  C16 UNL     1      21.363   0.205  53.929  1.00  0.00    -0.001 C 
HETATM   17  C17 UNL     1      22.590  -0.430  54.025  1.00  0.00     0.016 C 
HETATM   18 CL2  UNL     1      22.993  -1.229  55.557  1.00  0.00    -0.089 Cl
HETATM   19  C18 UNL     1      23.480  -0.466  52.796  1.00  0.00     0.144 C 
HETATM   20  H1  UNL     1      23.182   2.481  48.884  1.00  0.00     0.174 HD
HETATM   21  H2  UNL     1      20.882   1.169  49.786  1.00  0.00     0.177 HD
HETATM   22  H5  UNL     1      18.594   3.202  49.646  1.00  0.00     0.162 HD
ENDROOT
BRANCH  14  23
HETATM   23  C8  UNL     1      25.185   3.502  49.849  1.00  0.00     0.068 C 
BRANCH  23  24
HETATM   24  C9  UNL     1      25.937   4.665  49.248  1.00  0.00    -0.055 A 
HETATM   25  C10 UNL     1      27.271   4.341  48.981  1.00  0.00     0.009 A 
HETATM   26  C11 UNL     1      28.126   5.280  48.430  1.00  0.00     0.024 A 
HETATM   27  C12 UNL     1      27.718   6.544  48.127  1.00  0.00     0.034 A 
HETATM   28 CL1  UNL     1      28.769   7.746  47.433  1.00  0.00    -0.084 Cl
HETATM   29  C13 UNL     1      26.398   6.840  48.399  1.00  0.00     0.024 A 
HETATM   30  C14 UNL     1      25.528   5.931  48.944  1.00  0.00     0.009 A 
ENDBRANCH  23  24
ENDBRANCH  14  23
TORSDOF 2
ENDMDL
MODEL 5
REMARK VINA RESULT:      -9.2      5.937      9.701
REMARK  2 active torsions:
REMARK  status: ('A' for Active; 'I' for Inactive)
REMARK    1  A    between atoms: C7_14  and  C8_15 
REMARK    2  A    between atoms: C8_15  and  C9_16 
ROOT
HETATM    1  F1  UNL     1      31.571   2.951  46.416  1.00  0.00    -0.187 F 
HETATM    2  C1  UNL     1      32.013   3.949  47.223  1.00  0.00     0.211 C 
HETATM    3  N1  UNL     1      30.980   4.585  47.538  1.00  0.00    -0.128 NA
HETATM    4  N2  UNL     1      30.718   5.687  48.315  1.00  0.00    -0.176 N 
HETATM    5  N3  UNL     1      30.798   6.463  49.554  1.00  0.00    -0.128 NA
HETATM    6  N4  UNL     1      31.376   7.664  49.263  1.00  0.00    -0.320 N 
HETATM    7  C2  UNL     1      30.652   8.874  49.327  1.00  0.00     0.258 C 
HETATM    8  N5  UNL     1      31.403   9.832  48.459  1.00  0.00    -0.368 N 
HETATM    9  C3  UNL     1      31.729   9.908  47.053  1.00  0.00     0.204 C 
HETATM   10  N6  UNL     1      32.189   9.000  46.172  1.00  0.00    -0.248 NA
HETATM   11  C4  UNL     1      32.390   7.673  46.787  1.00  0.00     0.041 C 
HETATM   12  C5  UNL     1      31.095   7.342  47.046  1.00  0.00     0.060 C 
HETATM   13  C6  UNL     1      29.938   6.582  47.508  1.00  0.00     0.071 C 
HETATM   14  C7  UNL     1      28.735   6.139  47.802  1.00  0.00     0.011 C 
HETATM   15  C15 UNL     1      33.512   6.818  47.115  1.00  0.00     0.088 C 
HETATM   16  C16 UNL     1      34.306   6.058  46.226  1.00  0.00    -0.001 C 
HETATM   17  C17 UNL     1      34.239   4.686  46.400  1.00  0.00     0.016 C 
HETATM   18 CL2  UNL     1      35.202   3.664  45.314  1.00  0.00    -0.089 Cl
HETATM   19  C18 UNL     1      33.409   4.145  47.550  1.00  0.00     0.144 C 
HETATM   20  H1  UNL     1      29.867   6.528  49.969  1.00  0.00     0.174 HD
HETATM   21  H2  UNL     1      32.361   7.751  49.643  1.00  0.00     0.177 HD
HETATM   22  H5  UNL     1      31.820  10.685  48.946  1.00  0.00     0.162 HD
ENDROOT
BRANCH  14  23
HETATM   23  C8  UNL     1      28.388   5.052  48.694  1.00  0.00     0.068 C 
BRANCH  23  24
HETATM   24  C9  UNL     1      26.889   5.100  48.860  1.00  0.00    -0.055 A 
HETATM   25  C10 UNL     1      26.381   3.892  49.352  1.00  0.00     0.009 A 
HETATM   26  C11 UNL     1      25.022   3.738  49.567  1.00  0.00     0.024 A 
HETATM   27  C12 UNL     1      24.129   4.736  49.316  1.00  0.00     0.034 A 
HETATM   28 CL1  UNL     1      22.415   4.572  49.578  1.00  0.00    -0.084 Cl
HETATM   29  C13 UNL     1      24.654   5.916  48.833  1.00  0.00     0.024 A 
HETATM   30  C14 UNL     1      25.994   6.098  48.609  1.00  0.00     0.009 A 
ENDBRANCH  23  24
ENDBRANCH  14  23
TORSDOF 2
ENDMDL
MODEL 6
REMARK VINA RESULT:      -9.1      2.419      2.823
REMARK  2 active torsions:
REMARK  status: ('A' for Active; 'I' for Inactive)
REMARK    1  A    between atoms: C7_14  and  C8_15 
REMARK    2  A    between atoms: C8_15  and  C9_16 
ROOT
HETATM    1  F1  UNL     1      21.310   0.860  51.674  1.00  0.00    -0.187 F 
HETATM    2  C1  UNL     1      22.209   1.079  52.667  1.00  0.00     0.211 C 
HETATM    3  N1  UNL     1      23.166   1.664  52.108  1.00  0.00    -0.128 NA
HETATM    4  N2  UNL     1      24.378   2.159  52.524  1.00  0.00    -0.176 N 
HETATM    5  N3  UNL     1      25.230   2.968  53.396  1.00  0.00    -0.128 NA
HETATM    6  N4  UNL     1      26.150   2.144  53.973  1.00  0.00    -0.320 N 
HETATM    7  C2  UNL     1      27.523   2.223  53.659  1.00  0.00     0.258 C 
HETATM    8  N5  UNL     1      28.094   0.891  54.028  1.00  0.00    -0.368 N 
HETATM    9  C3  UNL     1      27.900  -0.470  53.582  1.00  0.00     0.204 C 
HETATM   10  N6  UNL     1      26.797  -1.196  53.316  1.00  0.00    -0.248 NA
HETATM   11  C4  UNL     1      25.555  -0.427  53.527  1.00  0.00     0.041 C 
HETATM   12  C5  UNL     1      25.674   0.482  52.520  1.00  0.00     0.060 C 
HETATM   13  C6  UNL     1      25.370   1.609  51.644  1.00  0.00     0.071 C 
HETATM   14  C7  UNL     1      25.360   2.533  50.708  1.00  0.00     0.011 C 
HETATM   15  C15 UNL     1      24.439  -0.453  54.449  1.00  0.00     0.088 C 
HETATM   16  C16 UNL     1      23.372  -1.379  54.487  1.00  0.00    -0.001 C 
HETATM   17  C17 UNL     1      22.119  -0.847  54.236  1.00  0.00     0.016 C 
HETATM   18 CL2  UNL     1      20.729  -1.951  54.256  1.00  0.00    -0.089 Cl
HETATM   19  C18 UNL     1      22.000   0.653  54.035  1.00  0.00     0.144 C 
HETATM   20  H1  UNL     1      25.629   3.738  52.854  1.00  0.00     0.174 HD
HETATM   21  H2  UNL     1      25.971   1.982  55.005  1.00  0.00     0.177 HD
HETATM   22  H5  UNL     1      28.826   0.889  54.804  1.00  0.00     0.162 HD
ENDROOT
BRANCH  14  23
HETATM   23  C8  UNL     1      24.545   3.730  50.660  1.00  0.00     0.068 C 
BRANCH  23  24
HETATM   24  C9  UNL     1      23.705   3.621  49.411  1.00  0.00    -0.055 A 
HETATM   25  C10 UNL     1      23.484   4.871  48.821  1.00  0.00     0.009 A 
HETATM   26  C11 UNL     1      22.729   4.979  47.665  1.00  0.00     0.024 A 
HETATM   27  C12 UNL     1      22.174   3.894  47.057  1.00  0.00     0.034 A 
HETATM   28 CL1  UNL     1      21.220   3.998  45.603  1.00  0.00    -0.084 Cl
HETATM   29  C13 UNL     1      22.405   2.673  47.657  1.00  0.00     0.024 A 
HETATM   30  C14 UNL     1      23.148   2.535  48.801  1.00  0.00     0.009 A 
ENDBRANCH  23  24
ENDBRANCH  14  23
TORSDOF 2
ENDMDL
MODEL 7
REMARK VINA RESULT:      -9.0      3.337      6.548
REMARK  2 active torsions:
REMARK  status: ('A' for Active; 'I' for Inactive)
REMARK    1  A    between atoms: C7_14  and  C8_15 
REMARK    2  A    between atoms: C8_15  and  C9_16 
ROOT
HETATM    1  F1  UNL     1      23.040  -0.533  52.556  1.00  0.00    -0.187 F 
HETATM    2  C1  UNL     1      23.715   0.619  52.800  1.00  0.00     0.211 C 
HETATM    3  N1  UNL     1      23.028   1.514  52.255  1.00  0.00    -0.128 NA
HETATM    4  N2  UNL     1      23.137   2.877  52.125  1.00  0.00    -0.176 N 
HETATM    5  N3  UNL     1      23.317   4.231  52.651  1.00  0.00    -0.128 NA
HETATM    6  N4  UNL     1      24.406   4.780  52.042  1.00  0.00    -0.320 N 
HETATM    7  C2  UNL     1      24.290   5.857  51.136  1.00  0.00     0.258 C 
HETATM    8  N5  UNL     1      25.533   5.814  50.306  1.00  0.00    -0.368 N 
HETATM    9  C3  UNL     1      26.115   4.876  49.374  1.00  0.00     0.204 C 
HETATM   10  N6  UNL     1      26.285   3.540  49.408  1.00  0.00    -0.248 NA
HETATM   11  C4  UNL     1      25.764   2.940  50.652  1.00  0.00     0.041 C 
HETATM   12  C5  UNL     1      24.433   3.157  50.471  1.00  0.00     0.060 C 
HETATM   13  C6  UNL     1      22.995   3.168  50.726  1.00  0.00     0.071 C 
HETATM   14  C7  UNL     1      21.689   3.308  50.669  1.00  0.00     0.011 C 
HETATM   15  C15 UNL     1      26.313   2.288  51.822  1.00  0.00     0.088 C 
HETATM   16  C16 UNL     1      26.843   0.981  51.913  1.00  0.00    -0.001 C 
HETATM   17  C17 UNL     1      26.149   0.119  52.745  1.00  0.00     0.016 C 
HETATM   18 CL2  UNL     1      26.749  -1.545  52.902  1.00  0.00    -0.089 Cl
HETATM   19  C18 UNL     1      24.967   0.665  53.525  1.00  0.00     0.144 C 
HETATM   20  H1  UNL     1      22.450   4.757  52.527  1.00  0.00     0.174 HD
HETATM   21  H2  UNL     1      25.239   4.873  52.689  1.00  0.00     0.177 HD
HETATM   22  H5  UNL     1      26.183   6.657  50.383  1.00  0.00     0.162 HD
ENDROOT
BRANCH  14  23
HETATM   23  C8  UNL     1      20.740   3.184  51.757  1.00  0.00     0.068 C 
BRANCH  23  24
HETATM   24  C9  UNL     1      19.744   2.132  51.333  1.00  0.00    -0.055 A 
HETATM   25  C10 UNL     1      19.036   2.516  50.189  1.00  0.00     0.009 A 
HETATM   26  C11 UNL     1      18.071   1.684  49.647  1.00  0.00     0.024 A 
HETATM   27  C12 UNL     1      17.769   0.472  50.191  1.00  0.00     0.034 A 
HETATM   28 CL1  UNL     1      16.562  -0.596  49.532  1.00  0.00    -0.084 Cl
HETATM   29  C13 UNL     1      18.480   0.115  51.318  1.00  0.00     0.024 A 
HETATM   30  C14 UNL     1      19.441   0.918  51.878  1.00  0.00     0.009 A 
ENDBRANCH  23  24
ENDBRANCH  14  23
TORSDOF 2
ENDMDL
MODEL 8
REMARK VINA RESULT:      -9.0      3.182      8.294
REMARK  2 active torsions:
REMARK  status: ('A' for Active; 'I' for Inactive)
REMARK    1  A    between atoms: C7_14  and  C8_15 
REMARK    2  A    between atoms: C8_15  and  C9_16 
ROOT
HETATM    1  F1  UNL     1      27.732   4.672  48.215  1.00  0.00    -0.187 F 
HETATM    2  C1  UNL     1      26.860   5.443  48.914  1.00  0.00     0.211 C 
HETATM    3  N1  UNL     1      26.075   4.629  49.453  1.00  0.00    -0.128 NA
HETATM    4  N2  UNL     1      24.981   4.735  50.277  1.00  0.00    -0.176 N 
HETATM    5  N3  UNL     1      24.287   5.213  51.474  1.00  0.00    -0.128 NA
HETATM    6  N4  UNL     1      23.189   5.916  51.075  1.00  0.00    -0.320 N 
HETATM    7  C2  UNL     1      21.878   5.445  51.305  1.00  0.00     0.258 C 
HETATM    8  N5  UNL     1      21.021   6.148  50.301  1.00  0.00    -0.368 N 
HETATM    9  C3  UNL     1      20.937   6.174  48.859  1.00  0.00     0.204 C 
HETATM   10  N6  UNL     1      21.869   6.269  47.891  1.00  0.00    -0.248 NA
HETATM   11  C4  UNL     1      23.237   6.362  48.437  1.00  0.00     0.041 C 
HETATM   12  C5  UNL     1      23.357   5.116  48.969  1.00  0.00     0.060 C 
HETATM   13  C6  UNL     1      23.931   3.969  49.667  1.00  0.00     0.071 C 
HETATM   14  C7  UNL     1      24.178   2.799  50.213  1.00  0.00     0.011 C 
HETATM   15  C15 UNL     1      24.283   7.362  48.504  1.00  0.00     0.088 C 
HETATM   16  C16 UNL     1      25.124   7.803  47.457  1.00  0.00    -0.001 C 
HETATM   17  C17 UNL     1      26.472   7.536  47.630  1.00  0.00     0.016 C 
HETATM   18 CL2  UNL     1      27.590   8.051  46.352  1.00  0.00    -0.089 Cl
HETATM   19  C18 UNL     1      26.917   6.890  48.930  1.00  0.00     0.144 C 
HETATM   20  H1  UNL     1      24.085   4.417  52.083  1.00  0.00     0.174 HD
HETATM   21  H2  UNL     1      23.286   6.958  51.230  1.00  0.00     0.177 HD
HETATM   22  H5  UNL     1      20.274   6.802  50.693  1.00  0.00     0.162 HD
ENDROOT
BRANCH  14  23
HETATM   23  C8  UNL     1      25.231   2.466  51.151  1.00  0.00     0.068 C 
BRANCH  23  24
HETATM   24  C9  UNL     1      24.661   1.418  52.075  1.00  0.00    -0.055 A 
HETATM   25  C10 UNL     1      23.293   1.609  52.298  1.00  0.00     0.009 A 
HETATM   26  C11 UNL     1      22.589   0.750  53.124  1.00  0.00     0.024 A 
HETATM   27  C12 UNL     1      23.183  -0.304  53.750  1.00  0.00     0.034 A 
HETATM   28 CL1  UNL     1      22.324  -1.402  54.795  1.00  0.00    -0.084 Cl
HETATM   29  C13 UNL     1      24.532  -0.472  53.515  1.00  0.00     0.024 A 
HETATM   30  C14 UNL     1      25.255   0.363  52.702  1.00  0.00     0.009 A 
ENDBRANCH  23  24
ENDBRANCH  14  23
TORSDOF 2
ENDMDL
MODEL 9
REMARK VINA RESULT:      -8.5      3.544      7.296
REMARK  2 active torsions:
REMARK  status: ('A' for Active; 'I' for Inactive)
REMARK    1  A    between atoms: C7_14  and  C8_15 
REMARK    2  A    between atoms: C8_15  and  C9_16 
ROOT
HETATM    1  F1  UNL     1      26.284   5.094  49.838  1.00  0.00    -0.187 F 
HETATM    2  C1  UNL     1      24.972   5.180  50.176  1.00  0.00     0.211 C 
HETATM    3  N1  UNL     1      24.722   4.099  50.760  1.00  0.00    -0.128 NA
HETATM    4  N2  UNL     1      23.607   3.547  51.342  1.00  0.00    -0.176 N 
HETATM    5  N3  UNL     1      22.464   3.565  52.256  1.00  0.00    -0.128 NA
HETATM    6  N4  UNL     1      21.333   3.361  51.523  1.00  0.00    -0.320 N 
HETATM    7  C2  UNL     1      20.570   2.179  51.643  1.00  0.00     0.258 C 
HETATM    8  N5  UNL     1      19.789   2.080  50.372  1.00  0.00    -0.368 N 
HETATM    9  C3  UNL     1      20.116   1.925  48.973  1.00  0.00     0.204 C 
HETATM   10  N6  UNL     1      21.028   2.515  48.177  1.00  0.00    -0.248 NA
HETATM   11  C4  UNL     1      21.843   3.511  48.901  1.00  0.00     0.041 C 
HETATM   12  C5  UNL     1      22.531   2.683  49.733  1.00  0.00     0.060 C 
HETATM   13  C6  UNL     1      23.453   2.238  50.773  1.00  0.00     0.071 C 
HETATM   14  C7  UNL     1      24.187   1.550  51.621  1.00  0.00     0.011 C 
HETATM   15  C15 UNL     1      22.006   4.950  48.894  1.00  0.00     0.088 C 
HETATM   16  C16 UNL     1      22.666   5.739  47.924  1.00  0.00    -0.001 C 
HETATM   17  C17 UNL     1      23.786   6.416  48.375  1.00  0.00     0.016 C 
HETATM   18 CL2  UNL     1      24.674   7.420  47.211  1.00  0.00    -0.089 Cl
HETATM   19  C18 UNL     1      24.142   6.319  49.848  1.00  0.00     0.144 C 
HETATM   20  H1  UNL     1      22.619   2.880  52.999  1.00  0.00     0.174 HD
HETATM   21  H2  UNL     1      20.735   4.230  51.434  1.00  0.00     0.177 HD
HETATM   22  H5  UNL     1      18.726   2.131  50.464  1.00  0.00     0.162 HD
ENDROOT
BRANCH  14  23
HETATM   23  C8  UNL     1      24.911   2.052  52.771  1.00  0.00     0.068 C 
BRANCH  23  24
HETATM   24  C9  UNL     1      26.104   1.145  52.951  1.00  0.00    -0.055 A 
HETATM   25  C10 UNL     1      27.215   1.839  53.444  1.00  0.00     0.009 A 
HETATM   26  C11 UNL     1      28.410   1.178  53.673  1.00  0.00     0.024 A 
HETATM   27  C12 UNL     1      28.561  -0.154  53.433  1.00  0.00     0.034 A 
HETATM   28 CL1  UNL     1      30.051  -1.012  53.711  1.00  0.00    -0.084 Cl
HETATM   29  C13 UNL     1      27.452  -0.816  52.947  1.00  0.00     0.024 A 
HETATM   30  C14 UNL     1      26.256  -0.189  52.711  1.00  0.00     0.009 A 
ENDBRANCH  23  24
ENDBRANCH  14  23
TORSDOF 2
ENDMDL
