MODEL 1
REMARK VINA RESULT:     -10.2      0.000      0.000
REMARK  0 active torsions:
REMARK  status: ('A' for Active; 'I' for Inactive)
ROOT
HETATM    1  O1  UNL     1      29.590   5.480  49.014  1.00  0.00    -0.267 OA
HETATM    2  C1  UNL     1      28.691   5.513  48.150  1.00  0.00     0.264 C 
HETATM    3  N1  UNL     1      29.770   5.730  47.287  1.00  0.00    -0.298 N 
HETATM    4  S1  UNL     1      31.508   5.881  47.569  1.00  0.00    -0.059 SA
HETATM    5  C2  UNL     1      32.018   7.241  48.415  1.00  0.00     0.043 C 
HETATM    6  C3  UNL     1      31.454   8.424  49.039  1.00  0.00     0.022 C 
HETATM    7  C4  UNL     1      30.421   9.182  49.356  1.00  0.00     0.000 C 
HETATM    8  C5  UNL     1      28.974   9.006  49.071  1.00  0.00     0.008 C 
HETATM    9  C6  UNL     1      27.773   8.545  48.648  1.00  0.00     0.185 C 
HETATM   10  O2  UNL     1      26.965   7.621  47.993  1.00  0.00    -0.338 OA
HETATM   11  C7  UNL     1      26.510   6.431  48.556  1.00  0.00     0.085 A 
HETATM   12  C8  UNL     1      25.242   6.208  49.049  1.00  0.00     0.038 A 
HETATM   13  C9  UNL     1      24.946   4.974  49.578  1.00  0.00     0.003 A 
HETATM   14  C10 UNL     1      25.811   3.906  49.667  1.00  0.00     0.001 A 
HETATM   15  C11 UNL     1      27.100   4.078  49.184  1.00  0.00     0.020 A 
HETATM   16  C12 UNL     1      27.358   5.319  48.666  1.00  0.00     0.066 A 
HETATM   17  C13 UNL     1      33.505   7.181  48.529  1.00  0.00     0.095 A 
HETATM   18  C14 UNL     1      34.342   8.265  48.526  1.00  0.00     0.053 A 
HETATM   19  C15 UNL     1      35.660   7.876  48.631  1.00  0.00     0.139 A 
HETATM   20  N2  UNL     1      36.131   6.603  48.728  1.00  0.00    -0.075 NA
HETATM   21  C16 UNL     1      35.258   5.607  48.723  1.00  0.00     0.723 A 
HETATM   22  N3  UNL     1      34.009   5.974  48.624  1.00  0.00    -0.062 NA
HETATM   23  N4  UNL     1      35.023   4.232  48.772  1.00  0.00    -0.212 N 
HETATM   24  C17 UNL     1      34.542   3.203  47.939  1.00  0.00     0.151 A 
HETATM   25  C18 UNL     1      33.672   2.668  47.143  1.00  0.00     0.078 A 
HETATM   26  C19 UNL     1      32.358   2.968  46.535  1.00  0.00     0.002 A 
HETATM   27  P1  UNL     1      32.861   4.192  47.475  1.00  0.00    -0.019 P 
HETATM   28  H1  UNL     1      29.861   5.853  46.274  1.00  0.00     0.177 HD
HETATM   29  H12 UNL     1      35.357   4.169  49.762  1.00  0.00     0.178 HD
ENDROOT
TORSDOF 0
ENDMDL
MODEL 2
REMARK VINA RESULT:      -9.5      7.768     11.530
REMARK  0 active torsions:
REMARK  status: ('A' for Active; 'I' for Inactive)
ROOT
HETATM    1  O1  UNL     1      25.102   2.267  52.936  1.00  0.00    -0.267 OA
HETATM    2  C1  UNL     1      25.937   1.491  52.430  1.00  0.00     0.264 C 
HETATM    3  N1  UNL     1      24.972   1.391  51.422  1.00  0.00    -0.298 N 
HETATM    4  S1  UNL     1      23.372   2.116  51.230  1.00  0.00    -0.059 SA
HETATM    5  C2  UNL     1      22.182   1.610  52.306  1.00  0.00     0.043 C 
HETATM    6  C3  UNL     1      22.028   0.703  53.428  1.00  0.00     0.022 C 
HETATM    7  C4  UNL     1      22.515  -0.194  54.264  1.00  0.00     0.000 C 
HETATM    8  C5  UNL     1      23.877  -0.779  54.362  1.00  0.00     0.008 C 
HETATM    9  C6  UNL     1      25.180  -1.095  54.169  1.00  0.00     0.185 C 
HETATM   10  O2  UNL     1      26.393  -0.978  53.499  1.00  0.00    -0.338 OA
HETATM   11  C7  UNL     1      27.329   0.028  53.728  1.00  0.00     0.085 A 
HETATM   12  C8  UNL     1      28.491  -0.107  54.457  1.00  0.00     0.038 A 
HETATM   13  C9  UNL     1      29.315   0.986  54.595  1.00  0.00     0.003 A 
HETATM   14  C10 UNL     1      29.091   2.237  54.065  1.00  0.00     0.001 A 
HETATM   15  C11 UNL     1      27.935   2.426  53.323  1.00  0.00     0.020 A 
HETATM   16  C12 UNL     1      27.140   1.316  53.207  1.00  0.00     0.066 A 
HETATM   17  C13 UNL     1      20.919   2.326  51.962  1.00  0.00     0.095 A 
HETATM   18  C14 UNL     1      19.657   1.808  52.089  1.00  0.00     0.053 A 
HETATM   19  C15 UNL     1      18.703   2.713  51.675  1.00  0.00     0.139 A 
HETATM   20  N2  UNL     1      18.921   3.966  51.194  1.00  0.00    -0.075 NA
HETATM   21  C16 UNL     1      20.170   4.397  51.101  1.00  0.00     0.723 A 
HETATM   22  N3  UNL     1      21.075   3.541  51.493  1.00  0.00    -0.062 NA
HETATM   23  N4  UNL     1      21.052   5.418  50.745  1.00  0.00    -0.212 N 
HETATM   24  C17 UNL     1      22.051   5.677  49.785  1.00  0.00     0.151 A 
HETATM   25  C18 UNL     1      23.136   5.396  49.139  1.00  0.00     0.078 A 
HETATM   26  C19 UNL     1      24.175   4.345  49.070  1.00  0.00     0.002 A 
HETATM   27  P1  UNL     1      23.051   3.986  50.185  1.00  0.00    -0.019 P 
HETATM   28  H1  UNL     1      24.920   0.889  50.530  1.00  0.00     0.177 HD
HETATM   29  H12 UNL     1      20.710   6.039  51.515  1.00  0.00     0.178 HD
ENDROOT
TORSDOF 0
ENDMDL
MODEL 3
REMARK VINA RESULT:      -9.4      7.501     10.854
REMARK  0 active torsions:
REMARK  status: ('A' for Active; 'I' for Inactive)
ROOT
HETATM    1  O1  UNL     1      21.325   0.901  51.308  1.00  0.00    -0.267 OA
HETATM    2  C1  UNL     1      20.290   1.276  51.896  1.00  0.00     0.264 C 
HETATM    3  N1  UNL     1      21.188   2.106  52.575  1.00  0.00    -0.298 N 
HETATM    4  S1  UNL     1      22.941   2.302  52.472  1.00  0.00    -0.059 SA
HETATM    5  C2  UNL     1      23.876   1.005  52.993  1.00  0.00     0.043 C 
HETATM    6  C3  UNL     1      23.700  -0.327  53.542  1.00  0.00     0.022 C 
HETATM    7  C4  UNL     1      22.928  -1.310  53.963  1.00  0.00     0.000 C 
HETATM    8  C5  UNL     1      21.447  -1.406  54.041  1.00  0.00     0.008 C 
HETATM    9  C6  UNL     1      20.117  -1.159  53.977  1.00  0.00     0.185 C 
HETATM   10  O2  UNL     1      19.024  -0.350  53.685  1.00  0.00    -0.338 OA
HETATM   11  C7  UNL     1      18.469  -0.199  52.417  1.00  0.00     0.085 A 
HETATM   12  C8  UNL     1      17.313  -0.802  51.968  1.00  0.00     0.038 A 
HETATM   13  C9  UNL     1      16.894  -0.554  50.682  1.00  0.00     0.003 A 
HETATM   14  C10 UNL     1      17.529   0.259  49.770  1.00  0.00     0.001 A 
HETATM   15  C11 UNL     1      18.697   0.890  50.171  1.00  0.00     0.020 A 
HETATM   16  C12 UNL     1      19.083   0.620  51.457  1.00  0.00     0.066 A 
HETATM   17  C13 UNL     1      25.311   1.382  52.836  1.00  0.00     0.095 A 
HETATM   18  C14 UNL     1      26.328   0.982  53.661  1.00  0.00     0.053 A 
HETATM   19  C15 UNL     1      27.535   1.510  53.257  1.00  0.00     0.139 A 
HETATM   20  N2  UNL     1      27.752   2.327  52.191  1.00  0.00    -0.075 NA
HETATM   21  C16 UNL     1      26.718   2.670  51.439  1.00  0.00     0.723 A 
HETATM   22  N3  UNL     1      25.574   2.169  51.821  1.00  0.00    -0.062 NA
HETATM   23  N4  UNL     1      26.230   3.379  50.341  1.00  0.00    -0.212 N 
HETATM   24  C17 UNL     1      25.391   4.479  50.070  1.00  0.00     0.151 A 
HETATM   25  C18 UNL     1      24.287   5.145  50.172  1.00  0.00     0.078 A 
HETATM   26  C19 UNL     1      22.961   5.050  50.820  1.00  0.00     0.002 A 
HETATM   27  P1  UNL     1      23.882   3.761  51.176  1.00  0.00    -0.019 P 
HETATM   28  H1  UNL     1      21.088   2.822  53.302  1.00  0.00     0.177 HD
HETATM   29  H12 UNL     1      26.743   2.767  49.665  1.00  0.00     0.178 HD
ENDROOT
TORSDOF 0
ENDMDL
MODEL 4
REMARK VINA RESULT:      -9.3      6.693     10.309
REMARK  0 active torsions:
REMARK  status: ('A' for Active; 'I' for Inactive)
ROOT
HETATM    1  O1  UNL     1      25.832   2.868  52.648  1.00  0.00    -0.267 OA
HETATM    2  C1  UNL     1      26.578   2.033  52.099  1.00  0.00     0.264 C 
HETATM    3  N1  UNL     1      25.838   2.378  50.964  1.00  0.00    -0.298 N 
HETATM    4  S1  UNL     1      24.491   3.494  50.714  1.00  0.00    -0.059 SA
HETATM    5  C2  UNL     1      23.030   3.086  51.440  1.00  0.00     0.043 C 
HETATM    6  C3  UNL     1      22.470   2.035  52.270  1.00  0.00     0.022 C 
HETATM    7  C4  UNL     1      22.586   0.896  52.925  1.00  0.00     0.000 C 
HETATM    8  C5  UNL     1      23.752  -0.011  53.083  1.00  0.00     0.008 C 
HETATM    9  C6  UNL     1      24.975  -0.589  53.019  1.00  0.00     0.185 C 
HETATM   10  O2  UNL     1      26.297  -0.638  52.589  1.00  0.00    -0.338 OA
HETATM   11  C7  UNL     1      27.350   0.042  53.197  1.00  0.00     0.085 A 
HETATM   12  C8  UNL     1      28.289  -0.518  54.037  1.00  0.00     0.038 A 
HETATM   13  C9  UNL     1      29.271   0.289  54.562  1.00  0.00     0.003 A 
HETATM   14  C10 UNL     1      29.418   1.638  54.326  1.00  0.00     0.001 A 
HETATM   15  C11 UNL     1      28.499   2.250  53.486  1.00  0.00     0.020 A 
HETATM   16  C12 UNL     1      27.537   1.415  52.983  1.00  0.00     0.066 A 
HETATM   17  C13 UNL     1      22.035   4.143  51.095  1.00  0.00     0.095 A 
HETATM   18  C14 UNL     1      20.696   3.933  50.898  1.00  0.00     0.053 A 
HETATM   19  C15 UNL     1      20.049   5.107  50.579  1.00  0.00     0.139 A 
HETATM   20  N2  UNL     1      20.610   6.341  50.457  1.00  0.00    -0.075 NA
HETATM   21  C16 UNL     1      21.913   6.464  50.662  1.00  0.00     0.723 A 
HETATM   22  N3  UNL     1      22.526   5.352  50.966  1.00  0.00    -0.062 NA
HETATM   23  N4  UNL     1      23.037   7.289  50.705  1.00  0.00    -0.212 N 
HETATM   24  C17 UNL     1      24.242   7.487  50.000  1.00  0.00     0.151 A 
HETATM   25  C18 UNL     1      25.355   7.087  49.477  1.00  0.00     0.078 A 
HETATM   26  C19 UNL     1      26.152   5.851  49.312  1.00  0.00     0.002 A 
HETATM   27  P1  UNL     1      24.775   5.558  50.122  1.00  0.00    -0.019 P 
HETATM   28  H1  UNL     1      25.868   2.096  49.979  1.00  0.00     0.177 HD
HETATM   29  H12 UNL     1      22.678   7.805  51.542  1.00  0.00     0.178 HD
ENDROOT
TORSDOF 0
ENDMDL
MODEL 5
REMARK VINA RESULT:      -8.9      6.381      9.727
REMARK  0 active torsions:
REMARK  status: ('A' for Active; 'I' for Inactive)
ROOT
HETATM    1  O1  UNL     1      24.328   3.107  52.365  1.00  0.00    -0.267 OA
HETATM    2  C1  UNL     1      24.419   1.931  51.962  1.00  0.00     0.264 C 
HETATM    3  N1  UNL     1      24.157   2.520  50.721  1.00  0.00    -0.298 N 
HETATM    4  S1  UNL     1      23.841   4.190  50.239  1.00  0.00    -0.059 SA
HETATM    5  C2  UNL     1      22.399   4.870  50.773  1.00  0.00     0.043 C 
HETATM    6  C3  UNL     1      21.238   4.504  51.563  1.00  0.00     0.022 C 
HETATM    7  C4  UNL     1      20.556   3.630  52.278  1.00  0.00     0.000 C 
HETATM    8  C5  UNL     1      20.871   2.222  52.635  1.00  0.00     0.008 C 
HETATM    9  C6  UNL     1      21.455   1.008  52.766  1.00  0.00     0.185 C 
HETATM   10  O2  UNL     1      22.479   0.097  52.525  1.00  0.00    -0.338 OA
HETATM   11  C7  UNL     1      23.671   0.042  53.242  1.00  0.00     0.085 A 
HETATM   12  C8  UNL     1      23.976  -0.872  54.228  1.00  0.00     0.038 A 
HETATM   13  C9  UNL     1      25.201  -0.793  54.847  1.00  0.00     0.003 A 
HETATM   14  C10 UNL     1      26.184   0.132  54.574  1.00  0.00     0.001 A 
HETATM   15  C11 UNL     1      25.929   1.075  53.590  1.00  0.00     0.020 A 
HETATM   16  C12 UNL     1      24.699   0.965  52.996  1.00  0.00     0.066 A 
HETATM   17  C13 UNL     1      22.325   6.264  50.248  1.00  0.00     0.095 A 
HETATM   18  C14 UNL     1      21.175   6.909  49.878  1.00  0.00     0.053 A 
HETATM   19  C15 UNL     1      21.443   8.182  49.420  1.00  0.00     0.139 A 
HETATM   20  N2  UNL     1      22.664   8.774  49.324  1.00  0.00    -0.075 NA
HETATM   21  C16 UNL     1      23.730   8.086  49.701  1.00  0.00     0.723 A 
HETATM   22  N3  UNL     1      23.477   6.880  50.135  1.00  0.00    -0.062 NA
HETATM   23  N4  UNL     1      25.115   8.032  49.861  1.00  0.00    -0.212 N 
HETATM   24  C17 UNL     1      26.226   7.351  49.322  1.00  0.00     0.151 A 
HETATM   25  C18 UNL     1      26.874   6.287  48.976  1.00  0.00     0.078 A 
HETATM   26  C19 UNL     1      26.722   4.815  48.977  1.00  0.00     0.002 A 
HETATM   27  P1  UNL     1      25.411   5.541  49.601  1.00  0.00    -0.019 P 
HETATM   28  H1  UNL     1      24.080   2.164  49.763  1.00  0.00     0.177 HD
HETATM   29  H12 UNL     1      25.097   8.755  50.617  1.00  0.00     0.178 HD
ENDROOT
TORSDOF 0
ENDMDL
MODEL 6
REMARK VINA RESULT:      -8.9      6.322      9.111
REMARK  0 active torsions:
REMARK  status: ('A' for Active; 'I' for Inactive)
ROOT
HETATM    1  O1  UNL     1      23.041   3.130  50.786  1.00  0.00    -0.267 OA
HETATM    2  C1  UNL     1      22.905   2.967  52.015  1.00  0.00     0.264 C 
HETATM    3  N1  UNL     1      23.464   4.248  52.069  1.00  0.00    -0.298 N 
HETATM    4  S1  UNL     1      24.042   5.349  50.813  1.00  0.00    -0.059 SA
HETATM    5  C2  UNL     1      25.417   4.875  49.970  1.00  0.00     0.043 C 
HETATM    6  C3  UNL     1      26.358   3.771  49.932  1.00  0.00     0.022 C 
HETATM    7  C4  UNL     1      26.793   2.608  50.379  1.00  0.00     0.000 C 
HETATM    8  C5  UNL     1      26.267   1.734  51.459  1.00  0.00     0.008 C 
HETATM    9  C6  UNL     1      25.544   1.202  52.472  1.00  0.00     0.185 C 
HETATM   10  O2  UNL     1      24.495   1.224  53.387  1.00  0.00    -0.338 OA
HETATM   11  C7  UNL     1      23.187   0.843  53.098  1.00  0.00     0.085 A 
HETATM   12  C8  UNL     1      22.603  -0.355  53.449  1.00  0.00     0.038 A 
HETATM   13  C9  UNL     1      21.296  -0.585  53.087  1.00  0.00     0.003 A 
HETATM   14  C10 UNL     1      20.488   0.285  52.390  1.00  0.00     0.001 A 
HETATM   15  C11 UNL     1      21.028   1.506  52.012  1.00  0.00     0.020 A 
HETATM   16  C12 UNL     1      22.330   1.699  52.390  1.00  0.00     0.066 A 
HETATM   17  C13 UNL     1      25.738   5.943  48.978  1.00  0.00     0.095 A 
HETATM   18  C14 UNL     1      27.000   6.301  48.583  1.00  0.00     0.053 A 
HETATM   19  C15 UNL     1      26.962   7.330  47.666  1.00  0.00     0.139 A 
HETATM   20  N2  UNL     1      25.852   7.950  47.181  1.00  0.00    -0.075 NA
HETATM   21  C16 UNL     1      24.666   7.548  47.612  1.00  0.00     0.723 A 
HETATM   22  N3  UNL     1      24.702   6.573  48.480  1.00  0.00    -0.062 NA
HETATM   23  N4  UNL     1      23.279   7.690  47.580  1.00  0.00    -0.212 N 
HETATM   24  C17 UNL     1      22.228   8.095  48.428  1.00  0.00     0.151 A 
HETATM   25  C18 UNL     1      21.550   8.056  49.529  1.00  0.00     0.078 A 
HETATM   26  C19 UNL     1      21.542   7.358  50.832  1.00  0.00     0.002 A 
HETATM   27  P1  UNL     1      22.777   6.857  49.905  1.00  0.00    -0.019 P 
HETATM   28  H1  UNL     1      23.687   4.899  52.828  1.00  0.00     0.177 HD
HETATM   29  H12 UNL     1      23.227   7.359  46.588  1.00  0.00     0.178 HD
ENDROOT
TORSDOF 0
ENDMDL
MODEL 7
REMARK VINA RESULT:      -8.8      7.004     10.124
REMARK  0 active torsions:
REMARK  status: ('A' for Active; 'I' for Inactive)
ROOT
HETATM    1  O1  UNL     1      24.245   4.105  50.555  1.00  0.00    -0.267 OA
HETATM    2  C1  UNL     1      24.537   5.262  50.916  1.00  0.00     0.264 C 
HETATM    3  N1  UNL     1      24.329   4.728  52.192  1.00  0.00    -0.298 N 
HETATM    4  S1  UNL     1      23.843   3.122  52.745  1.00  0.00    -0.059 SA
HETATM    5  C2  UNL     1      22.274   2.642  52.380  1.00  0.00     0.043 C 
HETATM    6  C3  UNL     1      21.096   3.155  51.705  1.00  0.00     0.022 C 
HETATM    7  C4  UNL     1      20.467   4.107  51.043  1.00  0.00     0.000 C 
HETATM    8  C5  UNL     1      20.930   5.454  50.621  1.00  0.00     0.008 C 
HETATM    9  C6  UNL     1      21.656   6.575  50.400  1.00  0.00     0.185 C 
HETATM   10  O2  UNL     1      22.814   7.339  50.510  1.00  0.00    -0.338 OA
HETATM   11  C7  UNL     1      23.920   7.222  49.673  1.00  0.00     0.085 A 
HETATM   12  C8  UNL     1      24.240   8.075  48.638  1.00  0.00     0.038 A 
HETATM   13  C9  UNL     1      25.371   7.822  47.898  1.00  0.00     0.003 A 
HETATM   14  C10 UNL     1      26.243   6.774  48.091  1.00  0.00     0.001 A 
HETATM   15  C11 UNL     1      25.967   5.886  49.120  1.00  0.00     0.020 A 
HETATM   16  C12 UNL     1      24.834   6.170  49.835  1.00  0.00     0.066 A 
HETATM   17  C13 UNL     1      22.068   1.276  52.945  1.00  0.00     0.095 A 
HETATM   18  C14 UNL     1      20.887   0.799  53.448  1.00  0.00     0.053 A 
HETATM   19  C15 UNL     1      21.026  -0.493  53.907  1.00  0.00     0.139 A 
HETATM   20  N2  UNL     1      22.159  -1.247  53.892  1.00  0.00    -0.075 NA
HETATM   21  C16 UNL     1      23.263  -0.715  53.390  1.00  0.00     0.723 A 
HETATM   22  N3  UNL     1      23.131   0.509  52.954  1.00  0.00    -0.062 NA
HETATM   23  N4  UNL     1      24.618  -0.853  53.086  1.00  0.00    -0.212 N 
HETATM   24  C17 UNL     1      25.861  -0.326  53.491  1.00  0.00     0.151 A 
HETATM   25  C18 UNL     1      26.680   0.642  53.741  1.00  0.00     0.078 A 
HETATM   26  C19 UNL     1      26.730   2.121  53.719  1.00  0.00     0.002 A 
HETATM   27  P1  UNL     1      25.273   1.575  53.252  1.00  0.00    -0.019 P 
HETATM   28  H1  UNL     1      24.403   5.101  53.144  1.00  0.00     0.177 HD
HETATM   29  H12 UNL     1      24.422  -1.576  52.354  1.00  0.00     0.178 HD
ENDROOT
TORSDOF 0
ENDMDL
MODEL 8
REMARK VINA RESULT:      -8.8      6.304     10.731
REMARK  0 active torsions:
REMARK  status: ('A' for Active; 'I' for Inactive)
ROOT
HETATM    1  O1  UNL     1      24.154   4.269  49.863  1.00  0.00    -0.267 OA
HETATM    2  C1  UNL     1      24.986   4.962  50.482  1.00  0.00     0.264 C 
HETATM    3  N1  UNL     1      24.144   4.690  51.566  1.00  0.00    -0.298 N 
HETATM    4  S1  UNL     1      22.635   3.781  51.702  1.00  0.00    -0.059 SA
HETATM    5  C2  UNL     1      21.291   4.431  50.928  1.00  0.00     0.043 C 
HETATM    6  C3  UNL     1      20.938   5.584  50.120  1.00  0.00     0.022 C 
HETATM    7  C4  UNL     1      21.255   6.716  49.522  1.00  0.00     0.000 C 
HETATM    8  C5  UNL     1      22.549   7.442  49.460  1.00  0.00     0.008 C 
HETATM    9  C6  UNL     1      23.840   7.827  49.607  1.00  0.00     0.185 C 
HETATM   10  O2  UNL     1      25.130   7.661  50.099  1.00  0.00    -0.338 OA
HETATM   11  C7  UNL     1      26.101   6.854  49.512  1.00  0.00     0.085 A 
HETATM   12  C8  UNL     1      27.155   7.296  48.742  1.00  0.00     0.038 A 
HETATM   13  C9  UNL     1      28.033   6.370  48.228  1.00  0.00     0.003 A 
HETATM   14  C10 UNL     1      27.966   5.007  48.411  1.00  0.00     0.001 A 
HETATM   15  C11 UNL     1      26.923   4.510  49.179  1.00  0.00     0.020 A 
HETATM   16  C12 UNL     1      26.070   5.460  49.673  1.00  0.00     0.066 A 
HETATM   17  C13 UNL     1      20.133   3.524  51.179  1.00  0.00     0.095 A 
HETATM   18  C14 UNL     1      18.832   3.925  51.322  1.00  0.00     0.053 A 
HETATM   19  C15 UNL     1      18.002   2.850  51.559  1.00  0.00     0.139 A 
HETATM   20  N2  UNL     1      18.366   1.542  51.651  1.00  0.00    -0.075 NA
HETATM   21  C16 UNL     1      19.645   1.233  51.502  1.00  0.00     0.723 A 
HETATM   22  N3  UNL     1      20.432   2.251  51.277  1.00  0.00    -0.062 NA
HETATM   23  N4  UNL     1      20.635   0.250  51.475  1.00  0.00    -0.212 N 
HETATM   24  C17 UNL     1      21.758  -0.152  52.226  1.00  0.00     0.151 A 
HETATM   25  C18 UNL     1      22.890   0.056  52.817  1.00  0.00     0.078 A 
HETATM   26  C19 UNL     1      23.851   1.151  53.074  1.00  0.00     0.002 A 
HETATM   27  P1  UNL     1      22.578   1.677  52.215  1.00  0.00    -0.019 P 
HETATM   28  H1  UNL     1      24.163   4.928  52.563  1.00  0.00     0.177 HD
HETATM   29  H12 UNL     1      20.248  -0.175  50.600  1.00  0.00     0.178 HD
ENDROOT
TORSDOF 0
ENDMDL
MODEL 9
REMARK VINA RESULT:      -8.7      8.258     11.676
REMARK  0 active torsions:
REMARK  status: ('A' for Active; 'I' for Inactive)
ROOT
HETATM    1  O1  UNL     1      25.035  -0.121  52.243  1.00  0.00    -0.267 OA
HETATM    2  C1  UNL     1      25.731  -0.049  53.276  1.00  0.00     0.264 C 
HETATM    3  N1  UNL     1      24.656   0.719  53.736  1.00  0.00    -0.298 N 
HETATM    4  S1  UNL     1      23.145   1.229  52.974  1.00  0.00    -0.059 SA
HETATM    5  C2  UNL     1      23.274   2.321  51.702  1.00  0.00     0.043 C 
HETATM    6  C3  UNL     1      24.300   3.037  50.967  1.00  0.00     0.022 C 
HETATM    7  C4  UNL     1      25.565   3.344  50.752  1.00  0.00     0.000 C 
HETATM    8  C5  UNL     1      26.798   2.890  51.446  1.00  0.00     0.008 C 
HETATM    9  C6  UNL     1      27.684   2.290  52.275  1.00  0.00     0.185 C 
HETATM   10  O2  UNL     1      28.010   1.451  53.336  1.00  0.00    -0.338 OA
HETATM   11  C7  UNL     1      28.128   0.066  53.240  1.00  0.00     0.085 A 
HETATM   12  C8  UNL     1      29.312  -0.636  53.176  1.00  0.00     0.038 A 
HETATM   13  C9  UNL     1      29.264  -2.007  53.081  1.00  0.00     0.003 A 
HETATM   14  C10 UNL     1      28.119  -2.773  53.044  1.00  0.00     0.001 A 
HETATM   15  C11 UNL     1      26.900  -2.114  53.106  1.00  0.00     0.020 A 
HETATM   16  C12 UNL     1      26.989  -0.751  53.200  1.00  0.00     0.066 A 
HETATM   17  C13 UNL     1      21.896   2.627  51.218  1.00  0.00     0.095 A 
HETATM   18  C14 UNL     1      21.483   3.833  50.719  1.00  0.00     0.053 A 
HETATM   19  C15 UNL     1      20.150   3.799  50.372  1.00  0.00     0.139 A 
HETATM   20  N2  UNL     1      19.304   2.740  50.485  1.00  0.00    -0.075 NA
HETATM   21  C16 UNL     1      19.777   1.606  50.977  1.00  0.00     0.723 A 
HETATM   22  N3  UNL     1      21.040   1.637  51.306  1.00  0.00    -0.062 NA
HETATM   23  N4  UNL     1      19.543   0.281  51.348  1.00  0.00    -0.212 N 
HETATM   24  C17 UNL     1      19.499  -0.508  52.515  1.00  0.00     0.151 A 
HETATM   25  C18 UNL     1      19.989  -0.964  53.622  1.00  0.00     0.078 A 
HETATM   26  C19 UNL     1      21.203  -0.845  54.460  1.00  0.00     0.002 A 
HETATM   27  P1  UNL     1      21.309   0.091  53.137  1.00  0.00    -0.019 P 
HETATM   28  H1  UNL     1      24.439   1.187  54.621  1.00  0.00     0.177 HD
HETATM   29  H12 UNL     1      19.381  -0.011  50.356  1.00  0.00     0.178 HD
ENDROOT
TORSDOF 0
ENDMDL
