MODEL 1
REMARK VINA RESULT:      -7.7      0.000      0.000
REMARK  10 active torsions:
REMARK  status: ('A' for Active; 'I' for Inactive)
REMARK    1  A    between atoms: C2_2  and  C3_3 
REMARK    2  A    between atoms: C2_2  and  N3_22 
REMARK    3  A    between atoms: C3_3  and  C4_4 
REMARK    4  A    between atoms: C5_5  and  C6_6 
REMARK    5  A    between atoms: C8_8  and  C9_9 
REMARK       I    between atoms: N3_22  and  C18_23 
REMARK    6  A    between atoms: C18_23  and  C19_25 
REMARK    7  A    between atoms: C20_26  and  C21_27 
REMARK    8  A    between atoms: C21_27  and  C22_28 
REMARK    9  A    between atoms: C21_27  and  N5_30 
REMARK   10  A    between atoms: C22_28  and  N4_29 
ROOT
HETATM    1  C6  UNL     1      23.462  -0.729  54.408  1.00  0.00     0.057 A 
HETATM    2  C7  UNL     1      22.940   0.161  53.476  1.00  0.00     0.045 A 
HETATM    3  C8  UNL     1      21.603   0.108  53.166  1.00  0.00    -0.002 A 
HETATM    4  C15 UNL     1      20.709  -0.772  53.712  1.00  0.00     0.073 A 
HETATM    5  C16 UNL     1      19.335  -0.797  53.367  1.00  0.00     0.102 C 
HETATM    6  N1  UNL     1      18.213  -0.833  53.098  1.00  0.00    -0.191 NA
HETATM    7  C17 UNL     1      21.299  -1.631  54.634  1.00  0.00     0.140 A 
HETATM    8  N2  UNL     1      22.597  -1.597  54.950  1.00  0.00    -0.260 NA
ENDROOT
BRANCH   3   9
HETATM    9  C9  UNL     1      21.152   1.084  52.178  1.00  0.00    -0.022 A 
HETATM   10  C10 UNL     1      20.342   2.126  52.506  1.00  0.00     0.015 A 
HETATM   11  C11 UNL     1      19.870   3.095  51.617  1.00  0.00     0.045 A 
HETATM   12  C12 UNL     1      20.265   2.977  50.291  1.00  0.00     0.138 A 
HETATM   13  F1  UNL     1      19.834   3.895  49.388  1.00  0.00    -0.204 F 
HETATM   14  C13 UNL     1      21.083   1.947  49.902  1.00  0.00     0.073 A 
HETATM   15 CL1  UNL     1      21.542   1.857  48.220  1.00  0.00    -0.081 Cl
HETATM   16  C14 UNL     1      21.526   1.004  50.832  1.00  0.00     0.039 A 
ENDBRANCH   3   9
BRANCH   1  17
HETATM   17  C5  UNL     1      24.844  -0.807  54.844  1.00  0.00     0.028 C 
HETATM   18  C4  UNL     1      25.939  -0.383  54.246  1.00  0.00    -0.018 C 
BRANCH  18  19
HETATM   19  C3  UNL     1      26.214   0.300  52.977  1.00  0.00     0.083 C 
BRANCH  19  20
HETATM   20  C2  UNL     1      26.531   1.727  53.267  1.00  0.00     0.006 C 
HETATM   21  C1  UNL     1      27.787   2.138  53.289  1.00  0.00     0.038 C 
BRANCH  20  22
HETATM   22  N3  UNL     1      25.461   2.628  53.515  1.00  0.00    -0.328 N 
HETATM   23  C18 UNL     1      24.580   3.108  52.521  1.00  0.00     0.245 C 
HETATM   24  O1  UNL     1      24.920   2.599  51.414  1.00  0.00    -0.268 OA
HETATM   25  H12 UNL     1      25.292   2.977  54.490  1.00  0.00     0.169 HD
BRANCH  23  26
HETATM   26  C19 UNL     1      23.457   4.017  52.633  1.00  0.00     0.072 C 
HETATM   27  C20 UNL     1      23.019   5.071  51.974  1.00  0.00     0.005 C 
BRANCH  27  28
HETATM   28  C21 UNL     1      23.456   5.854  50.792  1.00  0.00     0.129 C 
BRANCH  28  29
HETATM   29  C22 UNL     1      23.104   5.152  49.525  1.00  0.00     0.295 C 
BRANCH  29  30
HETATM   30  N4  UNL     1      24.223   4.325  49.066  1.00  0.00     0.080 N 
HETATM   31  H18 UNL     1      24.289   3.442  49.586  1.00  0.00     0.312 HD
HETATM   32  H19 UNL     1      24.275   4.255  48.033  1.00  0.00     0.312 HD
ENDBRANCH  29  30
ENDBRANCH  28  29
BRANCH  28  33
HETATM   33  N5  UNL     1      23.054   7.231  50.831  1.00  0.00    -0.412 N 
HETATM   34  C23 UNL     1      21.654   7.434  50.679  1.00  0.00     0.143 C 
HETATM   35  C24 UNL     1      23.900   8.172  50.206  1.00  0.00     0.143 C 
ENDBRANCH  28  33
ENDBRANCH  27  28
ENDBRANCH  23  26
ENDBRANCH  20  22
ENDBRANCH  19  20
ENDBRANCH  18  19
ENDBRANCH   1  17
TORSDOF 10
ENDMDL
MODEL 2
REMARK VINA RESULT:      -7.7      4.765      6.955
REMARK  10 active torsions:
REMARK  status: ('A' for Active; 'I' for Inactive)
REMARK    1  A    between atoms: C2_2  and  C3_3 
REMARK    2  A    between atoms: C2_2  and  N3_22 
REMARK    3  A    between atoms: C3_3  and  C4_4 
REMARK    4  A    between atoms: C5_5  and  C6_6 
REMARK    5  A    between atoms: C8_8  and  C9_9 
REMARK       I    between atoms: N3_22  and  C18_23 
REMARK    6  A    between atoms: C18_23  and  C19_25 
REMARK    7  A    between atoms: C20_26  and  C21_27 
REMARK    8  A    between atoms: C21_27  and  C22_28 
REMARK    9  A    between atoms: C21_27  and  N5_30 
REMARK   10  A    between atoms: C22_28  and  N4_29 
ROOT
HETATM    1  C6  UNL     1      23.794   2.649  50.427  1.00  0.00     0.057 A 
HETATM    2  C7  UNL     1      24.918   2.129  51.058  1.00  0.00     0.045 A 
HETATM    3  C8  UNL     1      24.762   1.223  52.078  1.00  0.00    -0.002 A 
HETATM    4  C15 UNL     1      23.558   0.772  52.544  1.00  0.00     0.073 A 
HETATM    5  C16 UNL     1      23.436  -0.164  53.601  1.00  0.00     0.102 C 
HETATM    6  N1  UNL     1      23.316  -0.925  54.461  1.00  0.00    -0.191 NA
HETATM    7  C17 UNL     1      22.478   1.334  51.869  1.00  0.00     0.140 A 
HETATM    8  N2  UNL     1      22.608   2.217  50.875  1.00  0.00    -0.260 NA
ENDROOT
BRANCH   3   9
HETATM    9  C9  UNL     1      26.002   0.734  52.675  1.00  0.00    -0.022 A 
HETATM   10  C10 UNL     1      26.789   1.521  53.456  1.00  0.00     0.015 A 
HETATM   11  C11 UNL     1      27.986   1.124  54.058  1.00  0.00     0.045 A 
HETATM   12  C12 UNL     1      28.399  -0.182  53.834  1.00  0.00     0.138 A 
HETATM   13  F1  UNL     1      29.556  -0.617  54.398  1.00  0.00    -0.204 F 
HETATM   14  C13 UNL     1      27.645  -1.022  53.054  1.00  0.00     0.073 A 
HETATM   15 CL1  UNL     1      28.222  -2.652  52.812  1.00  0.00    -0.081 Cl
HETATM   16  C14 UNL     1      26.456  -0.574  52.475  1.00  0.00     0.039 A 
ENDBRANCH   3   9
BRANCH   1  17
HETATM   17  C5  UNL     1      23.785   3.611  49.340  1.00  0.00     0.028 C 
HETATM   18  C4  UNL     1      23.873   4.925  49.379  1.00  0.00    -0.018 C 
BRANCH  18  19
HETATM   19  C3  UNL     1      24.010   5.910  50.457  1.00  0.00     0.083 C 
BRANCH  19  20
HETATM   20  C2  UNL     1      25.232   6.724  50.202  1.00  0.00     0.006 C 
HETATM   21  C1  UNL     1      25.166   8.044  50.214  1.00  0.00     0.038 C 
BRANCH  20  22
HETATM   22  N3  UNL     1      26.459   6.054  49.949  1.00  0.00    -0.328 N 
HETATM   23  C18 UNL     1      27.117   6.044  48.699  1.00  0.00     0.245 C 
HETATM   24  O1  UNL     1      26.424   6.721  47.885  1.00  0.00    -0.268 OA
HETATM   25  H12 UNL     1      26.928   5.521  50.721  1.00  0.00     0.169 HD
BRANCH  23  26
HETATM   26  C19 UNL     1      28.359   5.412  48.305  1.00  0.00     0.072 C 
HETATM   27  C20 UNL     1      29.636   5.738  48.314  1.00  0.00     0.005 C 
BRANCH  27  28
HETATM   28  C21 UNL     1      30.438   6.915  48.728  1.00  0.00     0.129 C 
BRANCH  28  29
HETATM   29  C22 UNL     1      31.750   6.496  49.298  1.00  0.00     0.295 C 
BRANCH  29  30
HETATM   30  N4  UNL     1      31.555   5.725  50.528  1.00  0.00     0.080 N 
HETATM   31  H18 UNL     1      32.442   5.381  50.913  1.00  0.00     0.312 HD
HETATM   32  H19 UNL     1      30.913   6.190  51.197  1.00  0.00     0.312 HD
ENDBRANCH  29  30
ENDBRANCH  28  29
BRANCH  28  33
HETATM   33  N5  UNL     1      30.535   7.932  47.719  1.00  0.00    -0.412 N 
HETATM   34  C23 UNL     1      31.741   7.893  46.966  1.00  0.00     0.143 C 
HETATM   35  C24 UNL     1      30.029   9.211  48.036  1.00  0.00     0.143 C 
ENDBRANCH  28  33
ENDBRANCH  27  28
ENDBRANCH  23  26
ENDBRANCH  20  22
ENDBRANCH  19  20
ENDBRANCH  18  19
ENDBRANCH   1  17
TORSDOF 10
ENDMDL
MODEL 3
REMARK VINA RESULT:      -7.6      2.678      5.394
REMARK  10 active torsions:
REMARK  status: ('A' for Active; 'I' for Inactive)
REMARK    1  A    between atoms: C2_2  and  C3_3 
REMARK    2  A    between atoms: C2_2  and  N3_22 
REMARK    3  A    between atoms: C3_3  and  C4_4 
REMARK    4  A    between atoms: C5_5  and  C6_6 
REMARK    5  A    between atoms: C8_8  and  C9_9 
REMARK       I    between atoms: N3_22  and  C18_23 
REMARK    6  A    between atoms: C18_23  and  C19_25 
REMARK    7  A    between atoms: C20_26  and  C21_27 
REMARK    8  A    between atoms: C21_27  and  C22_28 
REMARK    9  A    between atoms: C21_27  and  N5_30 
REMARK   10  A    between atoms: C22_28  and  N4_29 
ROOT
HETATM    1  C6  UNL     1      24.134  -0.336  53.839  1.00  0.00     0.057 A 
HETATM    2  C7  UNL     1      24.271   0.651  52.869  1.00  0.00     0.045 A 
HETATM    3  C8  UNL     1      25.449   1.350  52.779  1.00  0.00    -0.002 A 
HETATM    4  C15 UNL     1      26.537   1.156  53.586  1.00  0.00     0.073 A 
HETATM    5  C16 UNL     1      27.737   1.899  53.463  1.00  0.00     0.102 C 
HETATM    6  N1  UNL     1      28.723   2.494  53.379  1.00  0.00    -0.191 NA
HETATM    7  C17 UNL     1      26.330   0.156  54.531  1.00  0.00     0.140 A 
HETATM    8  N2  UNL     1      25.192  -0.537  54.637  1.00  0.00    -0.260 NA
ENDROOT
BRANCH   3   9
HETATM    9  C9  UNL     1      25.495   2.364  51.729  1.00  0.00    -0.022 A 
HETATM   10  C10 UNL     1      26.312   2.251  50.648  1.00  0.00     0.015 A 
HETATM   11  C11 UNL     1      26.410   3.178  49.608  1.00  0.00     0.045 A 
HETATM   12  C12 UNL     1      25.604   4.305  49.692  1.00  0.00     0.138 A 
HETATM   13  F1  UNL     1      25.663   5.236  48.705  1.00  0.00    -0.204 F 
HETATM   14  C13 UNL     1      24.760   4.473  50.759  1.00  0.00     0.073 A 
HETATM   15 CL1  UNL     1      23.773   5.913  50.804  1.00  0.00    -0.081 Cl
HETATM   16  C14 UNL     1      24.700   3.514  51.773  1.00  0.00     0.039 A 
ENDBRANCH   3   9
BRANCH   1  17
HETATM   17  C5  UNL     1      22.962  -1.161  54.068  1.00  0.00     0.028 C 
HETATM   18  C4  UNL     1      21.685  -0.843  54.004  1.00  0.00    -0.018 C 
BRANCH  18  19
HETATM   19  C3  UNL     1      20.950   0.389  53.697  1.00  0.00     0.083 C 
BRANCH  19  20
HETATM   20  C2  UNL     1      20.331   0.247  52.349  1.00  0.00     0.006 C 
HETATM   21  C1  UNL     1      19.036   0.014  52.233  1.00  0.00     0.038 C 
BRANCH  20  22
HETATM   22  N3  UNL     1      21.159   0.369  51.201  1.00  0.00    -0.328 N 
HETATM   23  C18 UNL     1      21.602   1.600  50.668  1.00  0.00     0.245 C 
HETATM   24  O1  UNL     1      21.133   2.531  51.384  1.00  0.00    -0.268 OA
HETATM   25  H12 UNL     1      21.476  -0.494  50.695  1.00  0.00     0.169 HD
BRANCH  23  26
HETATM   26  C19 UNL     1      22.442   1.868  49.517  1.00  0.00     0.072 C 
HETATM   27  C20 UNL     1      22.305   2.497  48.368  1.00  0.00     0.005 C 
BRANCH  27  28
HETATM   28  C21 UNL     1      21.225   3.243  47.676  1.00  0.00     0.129 C 
BRANCH  28  29
HETATM   29  C22 UNL     1      19.891   2.645  47.964  1.00  0.00     0.295 C 
BRANCH  29  30
HETATM   30  N4  UNL     1      18.993   2.811  46.818  1.00  0.00     0.080 N 
HETATM   31  H18 UNL     1      18.557   3.740  46.801  1.00  0.00     0.312 HD
HETATM   32  H19 UNL     1      19.411   2.483  45.927  1.00  0.00     0.312 HD
ENDBRANCH  29  30
ENDBRANCH  28  29
BRANCH  28  33
HETATM   33  N5  UNL     1      21.287   4.663  47.873  1.00  0.00    -0.412 N 
HETATM   34  C23 UNL     1      22.519   5.254  47.477  1.00  0.00     0.143 C 
HETATM   35  C24 UNL     1      20.683   5.183  49.038  1.00  0.00     0.143 C 
ENDBRANCH  28  33
ENDBRANCH  27  28
ENDBRANCH  23  26
ENDBRANCH  20  22
ENDBRANCH  19  20
ENDBRANCH  18  19
ENDBRANCH   1  17
TORSDOF 10
ENDMDL
MODEL 4
REMARK VINA RESULT:      -7.6      3.722      6.214
REMARK  10 active torsions:
REMARK  status: ('A' for Active; 'I' for Inactive)
REMARK    1  A    between atoms: C2_2  and  C3_3 
REMARK    2  A    between atoms: C2_2  and  N3_22 
REMARK    3  A    between atoms: C3_3  and  C4_4 
REMARK    4  A    between atoms: C5_5  and  C6_6 
REMARK    5  A    between atoms: C8_8  and  C9_9 
REMARK       I    between atoms: N3_22  and  C18_23 
REMARK    6  A    between atoms: C18_23  and  C19_25 
REMARK    7  A    between atoms: C20_26  and  C21_27 
REMARK    8  A    between atoms: C21_27  and  C22_28 
REMARK    9  A    between atoms: C21_27  and  N5_30 
REMARK   10  A    between atoms: C22_28  and  N4_29 
ROOT
HETATM    1  C6  UNL     1      23.477   1.893  51.098  1.00  0.00     0.057 A 
HETATM    2  C7  UNL     1      24.793   1.678  51.492  1.00  0.00     0.045 A 
HETATM    3  C8  UNL     1      25.054   0.852  52.557  1.00  0.00    -0.002 A 
HETATM    4  C15 UNL     1      24.101   0.198  53.289  1.00  0.00     0.073 A 
HETATM    5  C16 UNL     1      24.408  -0.648  54.384  1.00  0.00     0.102 C 
HETATM    6  N1  UNL     1      24.639  -1.340  55.279  1.00  0.00    -0.191 NA
HETATM    7  C17 UNL     1      22.809   0.458  52.842  1.00  0.00     0.140 A 
HETATM    8  N2  UNL     1      22.534   1.259  51.808  1.00  0.00    -0.260 NA
ENDROOT
BRANCH   3   9
HETATM    9  C9  UNL     1      26.466   0.690  52.891  1.00  0.00    -0.022 A 
HETATM   10  C10 UNL     1      27.243   1.737  53.279  1.00  0.00     0.015 A 
HETATM   11  C11 UNL     1      28.598   1.658  53.612  1.00  0.00     0.045 A 
HETATM   12  C12 UNL     1      29.192   0.406  53.538  1.00  0.00     0.138 A 
HETATM   13  F1  UNL     1      30.507   0.277  53.853  1.00  0.00    -0.204 F 
HETATM   14  C13 UNL     1      28.457  -0.687  53.154  1.00  0.00     0.073 A 
HETATM   15 CL1  UNL     1      29.265  -2.233  53.082  1.00  0.00    -0.081 Cl
HETATM   16  C14 UNL     1      27.105  -0.553  52.831  1.00  0.00     0.039 A 
ENDBRANCH   3   9
BRANCH   1  17
HETATM   17  C5  UNL     1      23.033   2.733  50.001  1.00  0.00     0.028 C 
HETATM   18  C4  UNL     1      22.285   3.817  50.023  1.00  0.00    -0.018 C 
BRANCH  18  19
HETATM   19  C3  UNL     1      21.628   4.587  51.085  1.00  0.00     0.083 C 
BRANCH  19  20
HETATM   20  C2  UNL     1      22.666   5.369  51.814  1.00  0.00     0.006 C 
HETATM   21  C1  UNL     1      23.292   4.840  52.850  1.00  0.00     0.038 C 
BRANCH  20  22
HETATM   22  N3  UNL     1      22.965   6.686  51.371  1.00  0.00    -0.328 N 
HETATM   23  C18 UNL     1      24.105   7.028  50.609  1.00  0.00     0.245 C 
HETATM   24  O1  UNL     1      24.776   5.975  50.410  1.00  0.00    -0.268 OA
HETATM   25  H12 UNL     1      22.318   7.475  51.613  1.00  0.00     0.169 HD
BRANCH  23  26
HETATM   26  C19 UNL     1      24.528   8.315  50.094  1.00  0.00     0.072 C 
HETATM   27  C20 UNL     1      25.667   8.859  49.719  1.00  0.00     0.005 C 
BRANCH  27  28
HETATM   28  C21 UNL     1      27.085   8.429  49.636  1.00  0.00     0.129 C 
BRANCH  28  29
HETATM   29  C22 UNL     1      27.262   7.359  48.615  1.00  0.00     0.295 C 
BRANCH  29  30
HETATM   30  N4  UNL     1      27.431   6.054  49.259  1.00  0.00     0.080 N 
HETATM   31  H18 UNL     1      26.576   5.488  49.215  1.00  0.00     0.312 HD
HETATM   32  H19 UNL     1      28.311   5.579  48.982  1.00  0.00     0.312 HD
ENDBRANCH  29  30
ENDBRANCH  28  29
BRANCH  28  33
HETATM   33  N5  UNL     1      28.012   9.518  49.513  1.00  0.00    -0.412 N 
HETATM   34  C23 UNL     1      27.486  10.658  48.843  1.00  0.00     0.143 C 
HETATM   35  C24 UNL     1      29.360   9.195  49.247  1.00  0.00     0.143 C 
ENDBRANCH  28  33
ENDBRANCH  27  28
ENDBRANCH  23  26
ENDBRANCH  20  22
ENDBRANCH  19  20
ENDBRANCH  18  19
ENDBRANCH   1  17
TORSDOF 10
ENDMDL
MODEL 5
REMARK VINA RESULT:      -7.5      3.608      6.494
REMARK  10 active torsions:
REMARK  status: ('A' for Active; 'I' for Inactive)
REMARK    1  A    between atoms: C2_2  and  C3_3 
REMARK    2  A    between atoms: C2_2  and  N3_22 
REMARK    3  A    between atoms: C3_3  and  C4_4 
REMARK    4  A    between atoms: C5_5  and  C6_6 
REMARK    5  A    between atoms: C8_8  and  C9_9 
REMARK       I    between atoms: N3_22  and  C18_23 
REMARK    6  A    between atoms: C18_23  and  C19_25 
REMARK    7  A    between atoms: C20_26  and  C21_27 
REMARK    8  A    between atoms: C21_27  and  C22_28 
REMARK    9  A    between atoms: C21_27  and  N5_30 
REMARK   10  A    between atoms: C22_28  and  N4_29 
ROOT
HETATM    1  C6  UNL     1      23.171  -0.425  53.269  1.00  0.00     0.057 A 
HETATM    2  C7  UNL     1      24.536  -0.544  53.504  1.00  0.00     0.045 A 
HETATM    3  C8  UNL     1      25.411   0.286  52.846  1.00  0.00    -0.002 A 
HETATM    4  C15 UNL     1      25.045   1.252  51.950  1.00  0.00     0.073 A 
HETATM    5  C16 UNL     1      25.978   2.090  51.289  1.00  0.00     0.102 C 
HETATM    6  N1  UNL     1      26.722   2.781  50.740  1.00  0.00    -0.191 NA
HETATM    7  C17 UNL     1      23.668   1.315  51.762  1.00  0.00     0.140 A 
HETATM    8  N2  UNL     1      22.800   0.518  52.391  1.00  0.00    -0.260 NA
ENDROOT
BRANCH   3   9
HETATM    9  C9  UNL     1      26.822   0.083  53.163  1.00  0.00    -0.022 A 
HETATM   10  C10 UNL     1      27.470  -1.077  52.871  1.00  0.00     0.015 A 
HETATM   11  C11 UNL     1      28.814  -1.342  53.144  1.00  0.00     0.045 A 
HETATM   12  C12 UNL     1      29.541  -0.335  53.764  1.00  0.00     0.138 A 
HETATM   13  F1  UNL     1      30.852  -0.545  54.050  1.00  0.00    -0.204 F 
HETATM   14  C13 UNL     1      28.940   0.856  54.082  1.00  0.00     0.073 A 
HETATM   15 CL1  UNL     1      29.911   2.081  54.861  1.00  0.00    -0.081 Cl
HETATM   16  C14 UNL     1      27.592   1.070  53.787  1.00  0.00     0.039 A 
ENDBRANCH   3   9
BRANCH   1  17
HETATM   17  C5  UNL     1      22.120  -1.219  53.876  1.00  0.00     0.028 C 
HETATM   18  C4  UNL     1      20.843  -0.940  54.039  1.00  0.00    -0.018 C 
BRANCH  18  19
HETATM   19  C3  UNL     1      19.995   0.209  53.702  1.00  0.00     0.083 C 
BRANCH  19  20
HETATM   20  C2  UNL     1      19.315  -0.070  52.405  1.00  0.00     0.006 C 
HETATM   21  C1  UNL     1      18.087  -0.558  52.389  1.00  0.00     0.038 C 
BRANCH  20  22
HETATM   22  N3  UNL     1      20.011   0.202  51.197  1.00  0.00    -0.328 N 
HETATM   23  C18 UNL     1      19.947   1.430  50.501  1.00  0.00     0.245 C 
HETATM   24  O1  UNL     1      19.178   2.205  51.141  1.00  0.00    -0.268 OA
HETATM   25  H12 UNL     1      20.617  -0.539  50.769  1.00  0.00     0.169 HD
BRANCH  23  26
HETATM   26  C19 UNL     1      20.599   1.840  49.274  1.00  0.00     0.072 C 
HETATM   27  C20 UNL     1      21.434   2.794  48.915  1.00  0.00     0.005 C 
BRANCH  27  28
HETATM   28  C21 UNL     1      22.123   3.924  49.585  1.00  0.00     0.129 C 
BRANCH  28  29
HETATM   29  C22 UNL     1      23.068   4.603  48.655  1.00  0.00     0.295 C 
BRANCH  29  30
HETATM   30  N4  UNL     1      24.448   4.462  49.126  1.00  0.00     0.080 N 
HETATM   31  H18 UNL     1      24.521   4.566  50.145  1.00  0.00     0.312 HD
HETATM   32  H19 UNL     1      24.933   3.644  48.712  1.00  0.00     0.312 HD
ENDBRANCH  29  30
ENDBRANCH  28  29
BRANCH  28  33
HETATM   33  N5  UNL     1      21.234   4.816  50.274  1.00  0.00    -0.412 N 
HETATM   34  C23 UNL     1      20.378   5.562  49.417  1.00  0.00     0.143 C 
HETATM   35  C24 UNL     1      21.740   5.491  51.406  1.00  0.00     0.143 C 
ENDBRANCH  28  33
ENDBRANCH  27  28
ENDBRANCH  23  26
ENDBRANCH  20  22
ENDBRANCH  19  20
ENDBRANCH  18  19
ENDBRANCH   1  17
TORSDOF 10
ENDMDL
MODEL 6
REMARK VINA RESULT:      -7.5      4.094      6.108
REMARK  10 active torsions:
REMARK  status: ('A' for Active; 'I' for Inactive)
REMARK    1  A    between atoms: C2_2  and  C3_3 
REMARK    2  A    between atoms: C2_2  and  N3_22 
REMARK    3  A    between atoms: C3_3  and  C4_4 
REMARK    4  A    between atoms: C5_5  and  C6_6 
REMARK    5  A    between atoms: C8_8  and  C9_9 
REMARK       I    between atoms: N3_22  and  C18_23 
REMARK    6  A    between atoms: C18_23  and  C19_25 
REMARK    7  A    between atoms: C20_26  and  C21_27 
REMARK    8  A    between atoms: C21_27  and  C22_28 
REMARK    9  A    between atoms: C21_27  and  N5_30 
REMARK   10  A    between atoms: C22_28  and  N4_29 
ROOT
HETATM    1  C6  UNL     1      22.435   2.090  51.606  1.00  0.00     0.057 A 
HETATM    2  C7  UNL     1      23.697   1.664  52.005  1.00  0.00     0.045 A 
HETATM    3  C8  UNL     1      23.810   0.708  52.985  1.00  0.00    -0.002 A 
HETATM    4  C15 UNL     1      22.754   0.118  53.625  1.00  0.00     0.073 A 
HETATM    5  C16 UNL     1      22.910  -0.866  54.633  1.00  0.00     0.102 C 
HETATM    6  N1  UNL     1      23.016  -1.667  55.457  1.00  0.00    -0.191 NA
HETATM    7  C17 UNL     1      21.525   0.591  53.177  1.00  0.00     0.140 A 
HETATM    8  N2  UNL     1      21.393   1.520  52.226  1.00  0.00    -0.260 NA
ENDROOT
BRANCH   3   9
HETATM    9  C9  UNL     1      25.176   0.328  53.332  1.00  0.00    -0.022 A 
HETATM   10  C10 UNL     1      25.958   1.093  54.139  1.00  0.00     0.015 A 
HETATM   11  C11 UNL     1      27.271   0.794  54.513  1.00  0.00     0.045 A 
HETATM   12  C12 UNL     1      27.815  -0.382  54.015  1.00  0.00     0.138 A 
HETATM   13  F1  UNL     1      29.087  -0.717  54.349  1.00  0.00    -0.204 F 
HETATM   14  C13 UNL     1      27.072  -1.194  53.196  1.00  0.00     0.073 A 
HETATM   15 CL1  UNL     1      27.815  -2.659  52.603  1.00  0.00    -0.081 Cl
HETATM   16  C14 UNL     1      25.763  -0.848  52.853  1.00  0.00     0.039 A 
ENDBRANCH   3   9
BRANCH   1  17
HETATM   17  C5  UNL     1      22.143   3.086  50.592  1.00  0.00     0.028 C 
HETATM   18  C4  UNL     1      22.343   4.388  50.612  1.00  0.00    -0.018 C 
BRANCH  18  19
HETATM   19  C3  UNL     1      22.905   5.324  51.592  1.00  0.00     0.083 C 
BRANCH  19  20
HETATM   20  C2  UNL     1      23.893   6.197  50.900  1.00  0.00     0.006 C 
HETATM   21  C1  UNL     1      23.566   7.431  50.556  1.00  0.00     0.038 C 
BRANCH  20  22
HETATM   22  N3  UNL     1      25.187   5.678  50.621  1.00  0.00    -0.328 N 
HETATM   23  C18 UNL     1      25.657   5.371  49.325  1.00  0.00     0.245 C 
HETATM   24  O1  UNL     1      24.737   5.637  48.499  1.00  0.00    -0.268 OA
HETATM   25  H12 UNL     1      25.855   5.499  51.410  1.00  0.00     0.169 HD
BRANCH  23  26
HETATM   26  C19 UNL     1      26.939   4.844  48.901  1.00  0.00     0.072 C 
HETATM   27  C20 UNL     1      28.099   5.350  48.535  1.00  0.00     0.005 C 
BRANCH  27  28
HETATM   28  C21 UNL     1      28.674   6.708  48.374  1.00  0.00     0.129 C 
BRANCH  28  29
HETATM   29  C22 UNL     1      30.162   6.656  48.308  1.00  0.00     0.295 C 
BRANCH  29  30
HETATM   30  N4  UNL     1      30.753   7.283  49.493  1.00  0.00     0.080 N 
HETATM   31  H18 UNL     1      31.729   7.000  49.634  1.00  0.00     0.312 HD
HETATM   32  H19 UNL     1      30.557   8.300  49.549  1.00  0.00     0.312 HD
ENDBRANCH  29  30
ENDBRANCH  28  29
BRANCH  28  33
HETATM   33  N5  UNL     1      28.066   7.470  47.320  1.00  0.00    -0.412 N 
HETATM   34  C23 UNL     1      28.963   7.848  46.282  1.00  0.00     0.143 C 
HETATM   35  C24 UNL     1      27.088   8.420  47.688  1.00  0.00     0.143 C 
ENDBRANCH  28  33
ENDBRANCH  27  28
ENDBRANCH  23  26
ENDBRANCH  20  22
ENDBRANCH  19  20
ENDBRANCH  18  19
ENDBRANCH   1  17
TORSDOF 10
ENDMDL
MODEL 7
REMARK VINA RESULT:      -7.5      4.475      6.560
REMARK  10 active torsions:
REMARK  status: ('A' for Active; 'I' for Inactive)
REMARK    1  A    between atoms: C2_2  and  C3_3 
REMARK    2  A    between atoms: C2_2  and  N3_22 
REMARK    3  A    between atoms: C3_3  and  C4_4 
REMARK    4  A    between atoms: C5_5  and  C6_6 
REMARK    5  A    between atoms: C8_8  and  C9_9 
REMARK       I    between atoms: N3_22  and  C18_23 
REMARK    6  A    between atoms: C18_23  and  C19_25 
REMARK    7  A    between atoms: C20_26  and  C21_27 
REMARK    8  A    between atoms: C21_27  and  C22_28 
REMARK    9  A    between atoms: C21_27  and  N5_30 
REMARK   10  A    between atoms: C22_28  and  N4_29 
ROOT
HETATM    1  C6  UNL     1      26.383   2.519  50.969  1.00  0.00     0.057 A 
HETATM    2  C7  UNL     1      25.182   1.947  51.374  1.00  0.00     0.045 A 
HETATM    3  C8  UNL     1      25.136   1.229  52.543  1.00  0.00    -0.002 A 
HETATM    4  C15 UNL     1      26.203   1.019  53.373  1.00  0.00     0.073 A 
HETATM    5  C16 UNL     1      26.117   0.270  54.574  1.00  0.00     0.102 C 
HETATM    6  N1  UNL     1      26.067  -0.337  55.554  1.00  0.00    -0.191 NA
HETATM    7  C17 UNL     1      27.369   1.617  52.907  1.00  0.00     0.140 A 
HETATM    8  N2  UNL     1      27.436   2.320  51.773  1.00  0.00    -0.260 NA
ENDROOT
BRANCH   3   9
HETATM    9  C9  UNL     1      23.829   0.670  52.882  1.00  0.00    -0.022 A 
HETATM   10  C10 UNL     1      23.677  -0.618  53.290  1.00  0.00     0.015 A 
HETATM   11  C11 UNL     1      22.462  -1.221  53.628  1.00  0.00     0.045 A 
HETATM   12  C12 UNL     1      21.323  -0.433  53.537  1.00  0.00     0.138 A 
HETATM   13  F1  UNL     1      20.118  -0.972  53.856  1.00  0.00    -0.204 F 
HETATM   14  C13 UNL     1      21.416   0.874  53.132  1.00  0.00     0.073 A 
HETATM   15 CL1  UNL     1      19.945   1.810  53.040  1.00  0.00    -0.081 Cl
HETATM   16  C14 UNL     1      22.656   1.427  52.805  1.00  0.00     0.039 A 
ENDBRANCH   3   9
BRANCH   1  17
HETATM   17  C5  UNL     1      26.601   3.302  49.766  1.00  0.00     0.028 C 
HETATM   18  C4  UNL     1      26.106   4.473  49.425  1.00  0.00    -0.018 C 
BRANCH  18  19
HETATM   19  C3  UNL     1      25.188   5.423  50.064  1.00  0.00     0.083 C 
BRANCH  19  20
HETATM   20  C2  UNL     1      25.774   6.789  49.964  1.00  0.00     0.006 C 
HETATM   21  C1  UNL     1      25.109   7.834  50.423  1.00  0.00     0.038 C 
BRANCH  20  22
HETATM   22  N3  UNL     1      27.057   6.940  49.370  1.00  0.00    -0.328 N 
HETATM   23  C18 UNL     1      27.270   7.261  48.011  1.00  0.00     0.245 C 
HETATM   24  O1  UNL     1      26.142   7.382  47.453  1.00  0.00    -0.268 OA
HETATM   25  H12 UNL     1      27.918   6.807  49.954  1.00  0.00     0.169 HD
BRANCH  23  26
HETATM   26  C19 UNL     1      28.509   7.446  47.282  1.00  0.00     0.072 C 
HETATM   27  C20 UNL     1      29.790   7.498  47.585  1.00  0.00     0.005 C 
BRANCH  27  28
HETATM   28  C21 UNL     1      30.605   7.397  48.820  1.00  0.00     0.129 C 
BRANCH  28  29
HETATM   29  C22 UNL     1      31.300   6.081  48.897  1.00  0.00     0.295 C 
BRANCH  29  30
HETATM   30  N4  UNL     1      31.739   5.808  50.267  1.00  0.00     0.080 N 
HETATM   31  H18 UNL     1      31.071   5.219  50.777  1.00  0.00     0.312 HD
HETATM   32  H19 UNL     1      32.736   5.525  50.323  1.00  0.00     0.312 HD
ENDBRANCH  29  30
ENDBRANCH  28  29
BRANCH  28  33
HETATM   33  N5  UNL     1      31.461   8.527  49.042  1.00  0.00    -0.412 N 
HETATM   34  C23 UNL     1      30.781   9.696  49.482  1.00  0.00     0.143 C 
HETATM   35  C24 UNL     1      32.529   8.719  48.139  1.00  0.00     0.143 C 
ENDBRANCH  28  33
ENDBRANCH  27  28
ENDBRANCH  23  26
ENDBRANCH  20  22
ENDBRANCH  19  20
ENDBRANCH  18  19
ENDBRANCH   1  17
TORSDOF 10
ENDMDL
MODEL 8
REMARK VINA RESULT:      -7.5      1.514      2.037
REMARK  10 active torsions:
REMARK  status: ('A' for Active; 'I' for Inactive)
REMARK    1  A    between atoms: C2_2  and  C3_3 
REMARK    2  A    between atoms: C2_2  and  N3_22 
REMARK    3  A    between atoms: C3_3  and  C4_4 
REMARK    4  A    between atoms: C5_5  and  C6_6 
REMARK    5  A    between atoms: C8_8  and  C9_9 
REMARK       I    between atoms: N3_22  and  C18_23 
REMARK    6  A    between atoms: C18_23  and  C19_25 
REMARK    7  A    between atoms: C20_26  and  C21_27 
REMARK    8  A    between atoms: C21_27  and  C22_28 
REMARK    9  A    between atoms: C21_27  and  N5_30 
REMARK   10  A    between atoms: C22_28  and  N4_29 
ROOT
HETATM    1  C6  UNL     1      23.552  -0.709  54.305  1.00  0.00     0.057 A 
HETATM    2  C7  UNL     1      23.129   0.052  53.222  1.00  0.00     0.045 A 
HETATM    3  C8  UNL     1      21.796   0.077  52.892  1.00  0.00    -0.002 A 
HETATM    4  C15 UNL     1      20.814  -0.603  53.559  1.00  0.00     0.073 A 
HETATM    5  C16 UNL     1      19.447  -0.553  53.189  1.00  0.00     0.102 C 
HETATM    6  N1  UNL     1      18.329  -0.526  52.902  1.00  0.00    -0.191 NA
HETATM    7  C17 UNL     1      21.307  -1.343  54.629  1.00  0.00     0.140 A 
HETATM    8  N2  UNL     1      22.600  -1.382  54.967  1.00  0.00    -0.260 NA
ENDROOT
BRANCH   3   9
HETATM    9  C9  UNL     1      21.453   0.906  51.740  1.00  0.00    -0.022 A 
HETATM   10  C10 UNL     1      21.350   0.394  50.485  1.00  0.00     0.015 A 
HETATM   11  C11 UNL     1      21.029   1.125  49.338  1.00  0.00     0.045 A 
HETATM   12  C12 UNL     1      20.796   2.483  49.502  1.00  0.00     0.138 A 
HETATM   13  F1  UNL     1      20.479   3.236  48.417  1.00  0.00    -0.204 F 
HETATM   14  C13 UNL     1      20.885   3.055  50.746  1.00  0.00     0.073 A 
HETATM   15 CL1  UNL     1      20.580   4.769  50.882  1.00  0.00    -0.081 Cl
HETATM   16  C14 UNL     1      21.210   2.279  51.860  1.00  0.00     0.039 A 
ENDBRANCH   3   9
BRANCH   1  17
HETATM   17  C5  UNL     1      24.916  -0.845  54.782  1.00  0.00     0.028 C 
HETATM   18  C4  UNL     1      25.948  -0.045  54.614  1.00  0.00    -0.018 C 
BRANCH  18  19
HETATM   19  C3  UNL     1      26.152   1.233  53.923  1.00  0.00     0.083 C 
BRANCH  19  20
HETATM   20  C2  UNL     1      26.632   0.952  52.541  1.00  0.00     0.006 C 
HETATM   21  C1  UNL     1      26.744  -0.294  52.115  1.00  0.00     0.038 C 
BRANCH  20  22
HETATM   22  N3  UNL     1      26.964   2.047  51.697  1.00  0.00    -0.328 N 
HETATM   23  C18 UNL     1      26.019   2.805  50.970  1.00  0.00     0.245 C 
HETATM   24  O1  UNL     1      24.869   2.333  51.208  1.00  0.00    -0.268 OA
HETATM   25  H12 UNL     1      27.967   2.332  51.587  1.00  0.00     0.169 HD
BRANCH  23  26
HETATM   26  C19 UNL     1      26.215   3.934  50.084  1.00  0.00     0.072 C 
HETATM   27  C20 UNL     1      25.501   4.971  49.695  1.00  0.00     0.005 C 
BRANCH  27  28
HETATM   28  C21 UNL     1      24.141   5.499  49.967  1.00  0.00     0.129 C 
BRANCH  28  29
HETATM   29  C22 UNL     1      24.103   6.240  51.260  1.00  0.00     0.295 C 
BRANCH  29  30
HETATM   30  N4  UNL     1      23.784   5.333  52.365  1.00  0.00     0.080 N 
HETATM   31  H18 UNL     1      24.460   5.409  53.134  1.00  0.00     0.312 HD
HETATM   32  H19 UNL     1      22.782   5.358  52.630  1.00  0.00     0.312 HD
ENDBRANCH  29  30
ENDBRANCH  28  29
BRANCH  28  33
HETATM   33  N5  UNL     1      23.568   6.215  48.863  1.00  0.00    -0.412 N 
HETATM   34  C23 UNL     1      22.925   5.386  47.902  1.00  0.00     0.143 C 
HETATM   35  C24 UNL     1      24.289   7.321  48.363  1.00  0.00     0.143 C 
ENDBRANCH  28  33
ENDBRANCH  27  28
ENDBRANCH  23  26
ENDBRANCH  20  22
ENDBRANCH  19  20
ENDBRANCH  18  19
ENDBRANCH   1  17
TORSDOF 10
ENDMDL
MODEL 9
REMARK VINA RESULT:      -7.5      5.268      7.921
REMARK  10 active torsions:
REMARK  status: ('A' for Active; 'I' for Inactive)
REMARK    1  A    between atoms: C2_2  and  C3_3 
REMARK    2  A    between atoms: C2_2  and  N3_22 
REMARK    3  A    between atoms: C3_3  and  C4_4 
REMARK    4  A    between atoms: C5_5  and  C6_6 
REMARK    5  A    between atoms: C8_8  and  C9_9 
REMARK       I    between atoms: N3_22  and  C18_23 
REMARK    6  A    between atoms: C18_23  and  C19_25 
REMARK    7  A    between atoms: C20_26  and  C21_27 
REMARK    8  A    between atoms: C21_27  and  C22_28 
REMARK    9  A    between atoms: C21_27  and  N5_30 
REMARK   10  A    between atoms: C22_28  and  N4_29 
ROOT
HETATM    1  C6  UNL     1      25.722   3.920  49.976  1.00  0.00     0.057 A 
HETATM    2  C7  UNL     1      26.547   3.077  50.711  1.00  0.00     0.045 A 
HETATM    3  C8  UNL     1      25.987   2.154  51.560  1.00  0.00    -0.002 A 
HETATM    4  C15 UNL     1      24.643   1.986  51.752  1.00  0.00     0.073 A 
HETATM    5  C16 UNL     1      24.102   1.022  52.639  1.00  0.00     0.102 C 
HETATM    6  N1  UNL     1      23.642   0.243  53.356  1.00  0.00    -0.191 NA
HETATM    7  C17 UNL     1      23.879   2.861  50.987  1.00  0.00     0.140 A 
HETATM    8  N2  UNL     1      24.403   3.766  50.156  1.00  0.00    -0.260 NA
ENDROOT
BRANCH   3   9
HETATM    9  C9  UNL     1      26.938   1.316  52.286  1.00  0.00    -0.022 A 
HETATM   10  C10 UNL     1      27.899   1.841  53.091  1.00  0.00     0.015 A 
HETATM   11  C11 UNL     1      28.841   1.103  53.813  1.00  0.00     0.045 A 
HETATM   12  C12 UNL     1      28.783  -0.278  53.693  1.00  0.00     0.138 A 
HETATM   13  F1  UNL     1      29.676  -1.040  54.376  1.00  0.00    -0.204 F 
HETATM   14  C13 UNL     1      27.833  -0.864  52.895  1.00  0.00     0.073 A 
HETATM   15 CL1  UNL     1      27.816  -2.607  52.789  1.00  0.00    -0.081 Cl
HETATM   16  C14 UNL     1      26.915  -0.080  52.194  1.00  0.00     0.039 A 
ENDBRANCH   3   9
BRANCH   1  17
HETATM   17  C5  UNL     1      26.150   4.945  49.041  1.00  0.00     0.028 C 
HETATM   18  C4  UNL     1      26.183   6.254  49.186  1.00  0.00    -0.018 C 
BRANCH  18  19
HETATM   19  C3  UNL     1      25.827   7.173  50.272  1.00  0.00     0.083 C 
BRANCH  19  20
HETATM   20  C2  UNL     1      26.388   8.517  49.957  1.00  0.00     0.006 C 
HETATM   21  C1  UNL     1      25.627   9.441  49.398  1.00  0.00     0.038 C 
BRANCH  20  22
HETATM   22  N3  UNL     1      27.749   8.780  50.271  1.00  0.00    -0.328 N 
HETATM   23  C18 UNL     1      28.759   8.998  49.308  1.00  0.00     0.245 C 
HETATM   24  O1  UNL     1      28.233   8.913  48.161  1.00  0.00    -0.268 OA
HETATM   25  H12 UNL     1      28.051   8.819  51.275  1.00  0.00     0.169 HD
BRANCH  23  26
HETATM   26  C19 UNL     1      30.170   9.276  49.486  1.00  0.00     0.072 C 
HETATM   27  C20 UNL     1      31.301   8.649  49.230  1.00  0.00     0.005 C 
BRANCH  27  28
HETATM   28  C21 UNL     1      31.695   7.349  48.636  1.00  0.00     0.129 C 
BRANCH  28  29
HETATM   29  C22 UNL     1      31.832   6.299  49.685  1.00  0.00     0.295 C 
BRANCH  29  30
HETATM   30  N4  UNL     1      33.033   5.493  49.454  1.00  0.00     0.080 N 
HETATM   31  H18 UNL     1      33.854   5.875  49.937  1.00  0.00     0.312 HD
HETATM   32  H19 UNL     1      32.864   4.476  49.570  1.00  0.00     0.312 HD
ENDBRANCH  29  30
ENDBRANCH  28  29
BRANCH  28  33
HETATM   33  N5  UNL     1      30.887   6.957  47.516  1.00  0.00    -0.412 N 
HETATM   34  C23 UNL     1      30.003   5.875  47.785  1.00  0.00     0.143 C 
HETATM   35  C24 UNL     1      31.492   6.977  46.240  1.00  0.00     0.143 C 
ENDBRANCH  28  33
ENDBRANCH  27  28
ENDBRANCH  23  26
ENDBRANCH  20  22
ENDBRANCH  19  20
ENDBRANCH  18  19
ENDBRANCH   1  17
TORSDOF 10
ENDMDL
