MODEL 1
REMARK VINA RESULT:      -7.5      0.000      0.000
REMARK  5 active torsions:
REMARK  status: ('A' for Active; 'I' for Inactive)
REMARK    1  A    between atoms: O1_2  and  C2_3 
REMARK    2  A    between atoms: N2_9  and  O2_10 
REMARK    3  A    between atoms: C8_12  and  O3_13 
REMARK    4  A    between atoms: C8_12  and  C9_14 
REMARK    5  A    between atoms: C9_14  and  O4_15 
ROOT
HETATM    1  C2  UNL     1      22.927   3.034  49.702  1.00  0.00     0.074 A 
HETATM    2  C3  UNL     1      23.620   2.435  50.665  1.00  0.00     0.048 A 
HETATM    3  C4  UNL     1      24.993   2.864  50.900  1.00  0.00    -0.006 A 
HETATM    4  C5  UNL     1      25.655   2.248  51.864  1.00  0.00     0.131 C 
HETATM    5  N1  UNL     1      24.918   1.235  52.548  1.00  0.00    -0.224 NA
HETATM    6  C6  UNL     1      25.331   0.365  53.436  1.00  0.00     0.241 C 
HETATM    7  N2  UNL     1      26.660   0.233  53.936  1.00  0.00    -0.218 N 
HETATM    8  C7  UNL     1      27.899   0.858  53.546  1.00  0.00     0.090 C 
HETATM    9  C8  UNL     1      28.958   0.078  53.556  1.00  0.00     0.093 C 
HETATM   10  C10 UNL     1      27.972   2.270  53.151  1.00  0.00     0.183 C 
HETATM   11  N3  UNL     1      26.999   2.624  52.141  1.00  0.00    -0.369 N 
HETATM   12  C11 UNL     1      25.657   3.937  50.118  1.00  0.00     0.070 A 
HETATM   13  C12 UNL     1      24.718   4.481  49.091  1.00  0.00    -0.013 A 
HETATM   14  C13 UNL     1      23.480   4.101  48.871  1.00  0.00    -0.032 A 
HETATM   15  C14 UNL     1      22.661   4.738  47.807  1.00  0.00     0.050 C 
HETATM   16  H13 UNL     1      27.310   3.328  51.406  1.00  0.00     0.161 HD
ENDROOT
BRANCH   1  17
HETATM   17  O1  UNL     1      21.601   2.639  49.455  1.00  0.00    -0.355 OA
HETATM   18  C1  UNL     1      21.450   1.354  48.856  1.00  0.00     0.210 C 
ENDBRANCH   1  17
BRANCH   7  19
HETATM   19  O2  UNL     1      26.768  -0.654  54.980  1.00  0.00    -0.282 OA
HETATM   20  H6  UNL     1      27.081  -0.119  55.770  1.00  0.00     0.245 HD
ENDBRANCH   7  19
BRANCH   9  21
HETATM   21  O3  UNL     1      30.082   0.838  53.153  1.00  0.00    -0.361 OA
HETATM   22  H7  UNL     1      30.275   0.983  52.171  1.00  0.00     0.217 HD
ENDBRANCH   9  21
BRANCH   9  23
HETATM   23  C9  UNL     1      29.605  -1.225  53.775  1.00  0.00     0.230 C 
BRANCH  23  24
HETATM   24  O4  UNL     1      28.764  -2.268  53.351  1.00  0.00    -0.394 OA
HETATM   25  H10 UNL     1      28.758  -3.041  53.946  1.00  0.00     0.209 HD
ENDBRANCH  23  24
ENDBRANCH   9  23
TORSDOF 5
ENDMDL
MODEL 2
REMARK VINA RESULT:      -7.5      3.871      5.094
REMARK  5 active torsions:
REMARK  status: ('A' for Active; 'I' for Inactive)
REMARK    1  A    between atoms: O1_2  and  C2_3 
REMARK    2  A    between atoms: N2_9  and  O2_10 
REMARK    3  A    between atoms: C8_12  and  O3_13 
REMARK    4  A    between atoms: C8_12  and  C9_14 
REMARK    5  A    between atoms: C9_14  and  O4_15 
ROOT
HETATM    1  C2  UNL     1      18.577  -0.785  52.922  1.00  0.00     0.074 A 
HETATM    2  C3  UNL     1      19.830  -0.755  53.363  1.00  0.00     0.048 A 
HETATM    3  C4  UNL     1      20.823  -0.035  52.577  1.00  0.00    -0.006 A 
HETATM    4  C5  UNL     1      22.061  -0.024  53.043  1.00  0.00     0.131 C 
HETATM    5  N1  UNL     1      22.249  -0.731  54.268  1.00  0.00    -0.224 NA
HETATM    6  C6  UNL     1      23.361  -1.021  54.896  1.00  0.00     0.241 C 
HETATM    7  N2  UNL     1      24.682  -0.680  54.480  1.00  0.00    -0.218 N 
HETATM    8  C7  UNL     1      25.182  -0.092  53.262  1.00  0.00     0.090 C 
HETATM    9  C8  UNL     1      26.317  -0.586  52.817  1.00  0.00     0.093 C 
HETATM   10  C10 UNL     1      24.466   0.978  52.559  1.00  0.00     0.183 C 
HETATM   11  N3  UNL     1      23.075   0.664  52.319  1.00  0.00    -0.369 N 
HETATM   12  C11 UNL     1      20.507   0.668  51.309  1.00  0.00     0.070 A 
HETATM   13  C12 UNL     1      19.055   0.518  50.987  1.00  0.00    -0.013 A 
HETATM   14  C13 UNL     1      18.152  -0.129  51.687  1.00  0.00    -0.032 A 
HETATM   15  C14 UNL     1      16.737  -0.194  51.240  1.00  0.00     0.050 C 
HETATM   16  H13 UNL     1      22.661   1.004  51.400  1.00  0.00     0.161 HD
ENDROOT
BRANCH   1  17
HETATM   17  O1  UNL     1      17.599  -1.474  53.661  1.00  0.00    -0.355 OA
HETATM   18  C1  UNL     1      17.696  -2.896  53.623  1.00  0.00     0.210 C 
ENDBRANCH   1  17
BRANCH   7  19
HETATM   19  O2  UNL     1      25.644  -0.967  55.417  1.00  0.00    -0.282 OA
HETATM   20  H6  UNL     1      25.370  -1.834  55.843  1.00  0.00     0.245 HD
ENDBRANCH   7  19
BRANCH   9  21
HETATM   21  O3  UNL     1      26.668   0.094  51.626  1.00  0.00    -0.361 OA
HETATM   22  H7  UNL     1      25.957   0.546  51.067  1.00  0.00     0.217 HD
ENDBRANCH   9  21
BRANCH   9  23
HETATM   23  C9  UNL     1      27.453  -1.516  52.916  1.00  0.00     0.230 C 
BRANCH  23  24
HETATM   24  O4  UNL     1      28.294  -1.153  53.982  1.00  0.00    -0.394 OA
HETATM   25  H10 UNL     1      29.117  -0.708  53.706  1.00  0.00     0.209 HD
ENDBRANCH  23  24
ENDBRANCH   9  23
TORSDOF 5
ENDMDL
MODEL 3
REMARK VINA RESULT:      -7.3      3.026      4.625
REMARK  5 active torsions:
REMARK  status: ('A' for Active; 'I' for Inactive)
REMARK    1  A    between atoms: O1_2  and  C2_3 
REMARK    2  A    between atoms: N2_9  and  O2_10 
REMARK    3  A    between atoms: C8_12  and  O3_13 
REMARK    4  A    between atoms: C8_12  and  C9_14 
REMARK    5  A    between atoms: C9_14  and  O4_15 
ROOT
HETATM    1  C2  UNL     1      20.381   0.699  52.671  1.00  0.00     0.074 A 
HETATM    2  C3  UNL     1      21.639   1.053  52.430  1.00  0.00     0.048 A 
HETATM    3  C4  UNL     1      22.704   0.150  52.846  1.00  0.00    -0.006 A 
HETATM    4  C5  UNL     1      23.944   0.532  52.593  1.00  0.00     0.131 C 
HETATM    5  N1  UNL     1      24.063   1.794  51.937  1.00  0.00    -0.224 NA
HETATM    6  C6  UNL     1      25.138   2.499  51.685  1.00  0.00     0.241 C 
HETATM    7  N2  UNL     1      26.479   2.148  52.021  1.00  0.00    -0.218 N 
HETATM    8  C7  UNL     1      27.019   1.072  52.813  1.00  0.00     0.090 C 
HETATM    9  C8  UNL     1      28.039   1.387  53.580  1.00  0.00     0.093 C 
HETATM   10  C10 UNL     1      26.459  -0.284  52.776  1.00  0.00     0.183 C 
HETATM   11  N3  UNL     1      25.027  -0.309  52.975  1.00  0.00    -0.369 N 
HETATM   12  C11 UNL     1      22.455  -1.146  53.526  1.00  0.00     0.070 A 
HETATM   13  C12 UNL     1      20.987  -1.360  53.703  1.00  0.00    -0.013 A 
HETATM   14  C13 UNL     1      20.019  -0.553  53.333  1.00  0.00    -0.032 A 
HETATM   15  C14 UNL     1      18.596  -0.900  53.577  1.00  0.00     0.050 C 
HETATM   16  H13 UNL     1      24.637  -1.127  53.532  1.00  0.00     0.161 HD
ENDROOT
BRANCH   1  17
HETATM   17  O1  UNL     1      19.334   1.552  52.280  1.00  0.00    -0.355 OA
HETATM   18  C1  UNL     1      19.732   2.866  51.890  1.00  0.00     0.210 C 
ENDBRANCH   1  17
BRANCH   7  19
HETATM   19  O2  UNL     1      27.418   2.996  51.487  1.00  0.00    -0.282 OA
HETATM   20  H6  UNL     1      27.975   2.440  50.863  1.00  0.00     0.245 HD
ENDBRANCH   7  19
BRANCH   9  21
HETATM   21  O3  UNL     1      28.449   0.230  54.286  1.00  0.00    -0.361 OA
HETATM   22  H7  UNL     1      27.771  -0.328  54.787  1.00  0.00     0.217 HD
ENDBRANCH   9  21
BRANCH   9  23
HETATM   23  C9  UNL     1      29.012   2.357  54.109  1.00  0.00     0.230 C 
BRANCH  23  24
HETATM   24  O4  UNL     1      29.557   3.125  53.066  1.00  0.00    -0.394 OA
HETATM   25  H10 UNL     1      29.203   4.032  53.013  1.00  0.00     0.209 HD
ENDBRANCH  23  24
ENDBRANCH   9  23
TORSDOF 5
ENDMDL
MODEL 4
REMARK VINA RESULT:      -7.3      3.998      6.702
REMARK  5 active torsions:
REMARK  status: ('A' for Active; 'I' for Inactive)
REMARK    1  A    between atoms: O1_2  and  C2_3 
REMARK    2  A    between atoms: N2_9  and  O2_10 
REMARK    3  A    between atoms: C8_12  and  O3_13 
REMARK    4  A    between atoms: C8_12  and  C9_14 
REMARK    5  A    between atoms: C9_14  and  O4_15 
ROOT
HETATM    1  C2  UNL     1      24.333   1.167  52.760  1.00  0.00     0.074 A 
HETATM    2  C3  UNL     1      24.283   2.343  52.142  1.00  0.00     0.048 A 
HETATM    3  C4  UNL     1      25.441   2.766  51.366  1.00  0.00    -0.006 A 
HETATM    4  C5  UNL     1      25.360   3.941  50.764  1.00  0.00     0.131 C 
HETATM    5  N1  UNL     1      24.130   4.636  50.964  1.00  0.00    -0.224 NA
HETATM    6  C6  UNL     1      23.804   5.859  50.626  1.00  0.00     0.241 C 
HETATM    7  N2  UNL     1      24.638   6.803  49.957  1.00  0.00    -0.218 N 
HETATM    8  C7  UNL     1      26.035   6.769  49.606  1.00  0.00     0.090 C 
HETATM    9  C8  UNL     1      26.686   7.902  49.751  1.00  0.00     0.093 C 
HETATM   10  C10 UNL     1      26.692   5.546  49.129  1.00  0.00     0.183 C 
HETATM   11  N3  UNL     1      26.459   4.408  49.991  1.00  0.00    -0.369 N 
HETATM   12  C11 UNL     1      26.674   1.951  51.230  1.00  0.00     0.070 A 
HETATM   13  C12 UNL     1      26.533   0.674  51.993  1.00  0.00    -0.013 A 
HETATM   14  C13 UNL     1      25.494   0.283  52.696  1.00  0.00    -0.032 A 
HETATM   15  C14 UNL     1      25.497  -1.022  53.406  1.00  0.00     0.050 C 
HETATM   16  H13 UNL     1      27.269   3.727  50.110  1.00  0.00     0.161 HD
ENDROOT
BRANCH   1  17
HETATM   17  O1  UNL     1      23.228   0.734  53.516  1.00  0.00    -0.355 OA
HETATM   18  C1  UNL     1      22.086   0.343  52.756  1.00  0.00     0.210 C 
ENDBRANCH   1  17
BRANCH   7  19
HETATM   19  O2  UNL     1      23.979   7.948  49.584  1.00  0.00    -0.282 OA
HETATM   20  H6  UNL     1      24.505   8.712  49.969  1.00  0.00     0.245 HD
ENDBRANCH   7  19
BRANCH   9  21
HETATM   21  O3  UNL     1      28.033   7.702  49.365  1.00  0.00    -0.361 OA
HETATM   22  H7  UNL     1      28.283   6.927  48.766  1.00  0.00     0.217 HD
ENDBRANCH   9  21
BRANCH   9  23
HETATM   23  C9  UNL     1      26.743   9.325  50.123  1.00  0.00     0.230 C 
BRANCH  23  24
HETATM   24  O4  UNL     1      27.593   9.511  51.226  1.00  0.00    -0.394 OA
HETATM   25  H10 UNL     1      28.048   8.699  51.519  1.00  0.00     0.209 HD
ENDBRANCH  23  24
ENDBRANCH   9  23
TORSDOF 5
ENDMDL
MODEL 5
REMARK VINA RESULT:      -7.0      1.509      1.994
REMARK  5 active torsions:
REMARK  status: ('A' for Active; 'I' for Inactive)
REMARK    1  A    between atoms: O1_2  and  C2_3 
REMARK    2  A    between atoms: N2_9  and  O2_10 
REMARK    3  A    between atoms: C8_12  and  O3_13 
REMARK    4  A    between atoms: C8_12  and  C9_14 
REMARK    5  A    between atoms: C9_14  and  O4_15 
ROOT
HETATM    1  C2  UNL     1      21.394   1.111  50.727  1.00  0.00     0.074 A 
HETATM    2  C3  UNL     1      22.373   0.889  51.599  1.00  0.00     0.048 A 
HETATM    3  C4  UNL     1      23.601   1.662  51.472  1.00  0.00    -0.006 A 
HETATM    4  C5  UNL     1      24.555   1.418  52.355  1.00  0.00     0.131 C 
HETATM    5  N1  UNL     1      24.239   0.416  53.321  1.00  0.00    -0.224 NA
HETATM    6  C6  UNL     1      25.011  -0.143  54.219  1.00  0.00     0.241 C 
HETATM    7  N2  UNL     1      26.392   0.138  54.441  1.00  0.00    -0.218 N 
HETATM    8  C7  UNL     1      27.336   0.945  53.709  1.00  0.00     0.090 C 
HETATM    9  C8  UNL     1      28.550   0.450  53.610  1.00  0.00     0.093 C 
HETATM   10  C10 UNL     1      26.964   2.229  53.105  1.00  0.00     0.183 C 
HETATM   11  N3  UNL     1      25.778   2.143  52.283  1.00  0.00    -0.369 N 
HETATM   12  C11 UNL     1      23.816   2.686  50.419  1.00  0.00     0.070 A 
HETATM   13  C12 UNL     1      22.607   2.785  49.545  1.00  0.00    -0.013 A 
HETATM   14  C13 UNL     1      21.496   2.092  49.650  1.00  0.00    -0.032 A 
HETATM   15  C14 UNL     1      20.371   2.300  48.702  1.00  0.00     0.050 C 
HETATM   16  H13 UNL     1      25.762   2.742  51.403  1.00  0.00     0.161 HD
ENDROOT
BRANCH   1  17
HETATM   17  O1  UNL     1      20.199   0.378  50.827  1.00  0.00    -0.355 OA
HETATM   18  C1  UNL     1      19.650   0.283  52.141  1.00  0.00     0.210 C 
ENDBRANCH   1  17
BRANCH   7  19
HETATM   19  O2  UNL     1      26.904  -0.477  55.556  1.00  0.00    -0.282 OA
HETATM   20  H6  UNL     1      27.002   0.240  56.252  1.00  0.00     0.245 HD
ENDBRANCH   7  19
BRANCH   9  21
HETATM   21  O3  UNL     1      29.349   1.356  52.871  1.00  0.00    -0.361 OA
HETATM   22  H7  UNL     1      30.357   1.289  52.901  1.00  0.00     0.217 HD
ENDBRANCH   9  21
BRANCH   9  23
HETATM   23  C9  UNL     1      29.548  -0.599  53.876  1.00  0.00     0.230 C 
BRANCH  23  24
HETATM   24  O4  UNL     1      28.998  -1.871  53.643  1.00  0.00    -0.394 OA
HETATM   25  H10 UNL     1      28.287  -2.117  54.263  1.00  0.00     0.209 HD
ENDBRANCH  23  24
ENDBRANCH   9  23
TORSDOF 5
ENDMDL
MODEL 6
REMARK VINA RESULT:      -6.9      3.419      7.370
REMARK  5 active torsions:
REMARK  status: ('A' for Active; 'I' for Inactive)
REMARK    1  A    between atoms: O1_2  and  C2_3 
REMARK    2  A    between atoms: N2_9  and  O2_10 
REMARK    3  A    between atoms: C8_12  and  O3_13 
REMARK    4  A    between atoms: C8_12  and  C9_14 
REMARK    5  A    between atoms: C9_14  and  O4_15 
ROOT
HETATM    1  C2  UNL     1      26.598   1.280  52.526  1.00  0.00     0.074 A 
HETATM    2  C3  UNL     1      25.281   1.460  52.560  1.00  0.00     0.048 A 
HETATM    3  C4  UNL     1      24.477   0.537  53.350  1.00  0.00    -0.006 A 
HETATM    4  C5  UNL     1      23.171   0.743  53.364  1.00  0.00     0.131 C 
HETATM    5  N1  UNL     1      22.730   1.859  52.590  1.00  0.00    -0.224 NA
HETATM    6  C6  UNL     1      21.510   2.230  52.292  1.00  0.00     0.241 C 
HETATM    7  N2  UNL     1      20.305   1.578  52.689  1.00  0.00    -0.218 N 
HETATM    8  C7  UNL     1      20.069   0.324  53.359  1.00  0.00     0.090 C 
HETATM    9  C8  UNL     1      19.043  -0.371  52.921  1.00  0.00     0.093 C 
HETATM   10  C10 UNL     1      20.926  -0.152  54.451  1.00  0.00     0.183 C 
HETATM   11  N3  UNL     1      22.333  -0.125  54.117  1.00  0.00    -0.369 N 
HETATM   12  C11 UNL     1      25.053  -0.595  54.118  1.00  0.00     0.070 A 
HETATM   13  C12 UNL     1      26.538  -0.627  53.952  1.00  0.00    -0.013 A 
HETATM   14  C13 UNL     1      27.272   0.200  53.242  1.00  0.00    -0.032 A 
HETATM   15  C14 UNL     1      28.747   0.044  53.169  1.00  0.00     0.050 C 
HETATM   16  H13 UNL     1      22.929  -0.919  54.501  1.00  0.00     0.161 HD
ENDROOT
BRANCH   1  17
HETATM   17  O1  UNL     1      27.397   2.156  51.771  1.00  0.00    -0.355 OA
HETATM   18  C1  UNL     1      26.692   2.976  50.840  1.00  0.00     0.210 C 
ENDBRANCH   1  17
BRANCH   7  19
HETATM   19  O2  UNL     1      19.170   2.282  52.371  1.00  0.00    -0.282 OA
HETATM   20  H6  UNL     1      18.623   2.327  53.212  1.00  0.00     0.245 HD
ENDBRANCH   7  19
BRANCH   9  21
HETATM   21  O3  UNL     1      18.948  -1.563  53.678  1.00  0.00    -0.361 OA
HETATM   22  H7  UNL     1      18.774  -2.447  53.218  1.00  0.00     0.217 HD
ENDBRANCH   9  21
BRANCH   9  23
HETATM   23  C9  UNL     1      17.899  -0.561  52.014  1.00  0.00     0.230 C 
BRANCH  23  24
HETATM   24  O4  UNL     1      18.183  -0.028  50.746  1.00  0.00    -0.394 OA
HETATM   25  H10 UNL     1      17.734  -0.487  50.012  1.00  0.00     0.209 HD
ENDBRANCH  23  24
ENDBRANCH   9  23
TORSDOF 5
ENDMDL
MODEL 7
REMARK VINA RESULT:      -6.7      2.940      7.862
REMARK  5 active torsions:
REMARK  status: ('A' for Active; 'I' for Inactive)
REMARK    1  A    between atoms: O1_2  and  C2_3 
REMARK    2  A    between atoms: N2_9  and  O2_10 
REMARK    3  A    between atoms: C8_12  and  O3_13 
REMARK    4  A    between atoms: C8_12  and  C9_14 
REMARK    5  A    between atoms: C9_14  and  O4_15 
ROOT
HETATM    1  C2  UNL     1      26.682   1.497  52.558  1.00  0.00     0.074 A 
HETATM    2  C3  UNL     1      25.766   2.443  52.375  1.00  0.00     0.048 A 
HETATM    3  C4  UNL     1      24.361   2.066  52.439  1.00  0.00    -0.006 A 
HETATM    4  C5  UNL     1      23.475   3.030  52.253  1.00  0.00     0.131 C 
HETATM    5  N1  UNL     1      24.032   4.322  52.012  1.00  0.00    -0.224 NA
HETATM    6  C6  UNL     1      23.433   5.431  51.655  1.00  0.00     0.241 C 
HETATM    7  N2  UNL     1      22.037   5.600  51.420  1.00  0.00    -0.218 N 
HETATM    8  C7  UNL     1      20.953   4.652  51.355  1.00  0.00     0.090 C 
HETATM    9  C8  UNL     1      20.052   4.881  50.425  1.00  0.00     0.093 C 
HETATM   10  C10 UNL     1      20.866   3.500  52.260  1.00  0.00     0.183 C 
HETATM   11  N3  UNL     1      22.086   2.724  52.304  1.00  0.00    -0.369 N 
HETATM   12  C11 UNL     1      23.898   0.680  52.698  1.00  0.00     0.070 A 
HETATM   13  C12 UNL     1      25.072  -0.229  52.875  1.00  0.00    -0.013 A 
HETATM   14  C13 UNL     1      26.342   0.100  52.819  1.00  0.00    -0.032 A 
HETATM   15  C14 UNL     1      27.406  -0.918  53.016  1.00  0.00     0.050 C 
HETATM   16  H13 UNL     1      21.977   1.669  52.396  1.00  0.00     0.161 HD
ENDROOT
BRANCH   1  17
HETATM   17  O1  UNL     1      28.046   1.833  52.501  1.00  0.00    -0.355 OA
HETATM   18  C1  UNL     1      28.578   2.424  53.686  1.00  0.00     0.210 C 
ENDBRANCH   1  17
BRANCH   7  19
HETATM   19  O2  UNL     1      21.669   6.908  51.221  1.00  0.00    -0.282 OA
HETATM   20  H6  UNL     1      21.314   6.959  50.282  1.00  0.00     0.245 HD
ENDBRANCH   7  19
BRANCH   9  21
HETATM   21  O3  UNL     1      19.064   3.870  50.495  1.00  0.00    -0.361 OA
HETATM   22  H7  UNL     1      19.311   2.902  50.337  1.00  0.00     0.217 HD
ENDBRANCH   9  21
BRANCH   9  23
HETATM   23  C9  UNL     1      19.519   5.671  49.303  1.00  0.00     0.230 C 
BRANCH  23  24
HETATM   24  O4  UNL     1      19.068   6.923  49.755  1.00  0.00    -0.394 OA
HETATM   25  H10 UNL     1      18.207   7.193  49.384  1.00  0.00     0.209 HD
ENDBRANCH  23  24
ENDBRANCH   9  23
TORSDOF 5
ENDMDL
MODEL 8
REMARK VINA RESULT:      -6.6      4.013      6.698
REMARK  5 active torsions:
REMARK  status: ('A' for Active; 'I' for Inactive)
REMARK    1  A    between atoms: O1_2  and  C2_3 
REMARK    2  A    between atoms: N2_9  and  O2_10 
REMARK    3  A    between atoms: C8_12  and  O3_13 
REMARK    4  A    between atoms: C8_12  and  C9_14 
REMARK    5  A    between atoms: C9_14  and  O4_15 
ROOT
HETATM    1  C2  UNL     1      21.579   0.237  53.661  1.00  0.00     0.074 A 
HETATM    2  C3  UNL     1      21.768   1.260  52.834  1.00  0.00     0.048 A 
HETATM    3  C4  UNL     1      23.104   1.478  52.297  1.00  0.00    -0.006 A 
HETATM    4  C5  UNL     1      23.259   2.504  51.477  1.00  0.00     0.131 C 
HETATM    5  N1  UNL     1      22.076   3.263  51.233  1.00  0.00    -0.224 NA
HETATM    6  C6  UNL     1      21.936   4.399  50.596  1.00  0.00     0.241 C 
HETATM    7  N2  UNL     1      22.974   5.158  49.979  1.00  0.00    -0.218 N 
HETATM    8  C7  UNL     1      24.408   5.008  49.992  1.00  0.00     0.090 C 
HETATM    9  C8  UNL     1      25.095   6.127  50.068  1.00  0.00     0.093 C 
HETATM   10  C10 UNL     1      25.058   3.694  49.936  1.00  0.00     0.183 C 
HETATM   11  N3  UNL     1      24.542   2.767  50.919  1.00  0.00    -0.369 N 
HETATM   12  C11 UNL     1      24.267   0.615  52.625  1.00  0.00     0.070 A 
HETATM   13  C12 UNL     1      23.851  -0.472  53.563  1.00  0.00    -0.013 A 
HETATM   14  C13 UNL     1      22.650  -0.676  54.054  1.00  0.00    -0.032 A 
HETATM   15  C14 UNL     1      22.384  -1.805  54.983  1.00  0.00     0.050 C 
HETATM   16  H13 UNL     1      25.244   2.101  51.361  1.00  0.00     0.161 HD
ENDROOT
BRANCH   1  17
HETATM   17  O1  UNL     1      20.299   0.005  54.195  1.00  0.00    -0.355 OA
HETATM   18  C1  UNL     1      19.338  -0.505  53.272  1.00  0.00     0.210 C 
ENDBRANCH   1  17
BRANCH   7  19
HETATM   19  O2  UNL     1      22.514   6.221  49.242  1.00  0.00    -0.282 OA
HETATM   20  H6  UNL     1      22.141   5.833  48.394  1.00  0.00     0.245 HD
ENDBRANCH   7  19
BRANCH   9  21
HETATM   21  O3  UNL     1      26.475   5.809  50.069  1.00  0.00    -0.361 OA
HETATM   22  H7  UNL     1      27.119   6.331  49.489  1.00  0.00     0.217 HD
ENDBRANCH   9  21
BRANCH   9  23
HETATM   23  C9  UNL     1      25.178   7.593  50.160  1.00  0.00     0.230 C 
BRANCH  23  24
HETATM   24  O4  UNL     1      24.232   8.082  51.077  1.00  0.00    -0.394 OA
HETATM   25  H10 UNL     1      23.501   8.582  50.666  1.00  0.00     0.209 HD
ENDBRANCH  23  24
ENDBRANCH   9  23
TORSDOF 5
ENDMDL
MODEL 9
REMARK VINA RESULT:      -6.6      4.464      6.823
REMARK  5 active torsions:
REMARK  status: ('A' for Active; 'I' for Inactive)
REMARK    1  A    between atoms: O1_2  and  C2_3 
REMARK    2  A    between atoms: N2_9  and  O2_10 
REMARK    3  A    between atoms: C8_12  and  O3_13 
REMARK    4  A    between atoms: C8_12  and  C9_14 
REMARK    5  A    between atoms: C9_14  and  O4_15 
ROOT
HETATM    1  C2  UNL     1      23.536   2.904  51.189  1.00  0.00     0.074 A 
HETATM    2  C3  UNL     1      24.120   3.845  50.453  1.00  0.00     0.048 A 
HETATM    3  C4  UNL     1      25.554   3.750  50.220  1.00  0.00    -0.006 A 
HETATM    4  C5  UNL     1      26.104   4.701  49.484  1.00  0.00     0.131 C 
HETATM    5  N1  UNL     1      25.199   5.700  49.017  1.00  0.00    -0.224 NA
HETATM    6  C6  UNL     1      25.453   6.827  48.400  1.00  0.00     0.241 C 
HETATM    7  N2  UNL     1      26.741   7.325  48.043  1.00  0.00    -0.218 N 
HETATM    8  C7  UNL     1      28.069   6.861  48.357  1.00  0.00     0.090 C 
HETATM    9  C8  UNL     1      28.954   7.799  48.612  1.00  0.00     0.093 C 
HETATM   10  C10 UNL     1      28.409   5.433  48.400  1.00  0.00     0.183 C 
HETATM   11  N3  UNL     1      27.502   4.662  49.221  1.00  0.00    -0.369 N 
HETATM   12  C11 UNL     1      26.399   2.656  50.762  1.00  0.00     0.070 A 
HETATM   13  C12 UNL     1      25.561   1.706  51.556  1.00  0.00    -0.013 A 
HETATM   14  C13 UNL     1      24.268   1.782  51.773  1.00  0.00    -0.032 A 
HETATM   15  C14 UNL     1      23.566   0.758  52.588  1.00  0.00     0.050 C 
HETATM   16  H13 UNL     1      27.928   3.864  49.782  1.00  0.00     0.161 HD
ENDROOT
BRANCH   1  17
HETATM   17  O1  UNL     1      22.153   2.972  51.430  1.00  0.00    -0.355 OA
HETATM   18  C1  UNL     1      21.705   4.159  52.082  1.00  0.00     0.210 C 
ENDBRANCH   1  17
BRANCH   7  19
HETATM   19  O2  UNL     1      26.696   8.450  47.258  1.00  0.00    -0.282 OA
HETATM   20  H6  UNL     1      25.837   8.917  47.487  1.00  0.00     0.245 HD
ENDBRANCH   7  19
BRANCH   9  21
HETATM   21  O3  UNL     1      30.197   7.183  48.897  1.00  0.00    -0.361 OA
HETATM   22  H7  UNL     1      31.044   7.734  48.930  1.00  0.00     0.217 HD
ENDBRANCH   9  21
BRANCH   9  23
HETATM   23  C9  UNL     1      29.337   9.212  48.764  1.00  0.00     0.230 C 
BRANCH  23  24
HETATM   24  O4  UNL     1      29.053   9.661  50.065  1.00  0.00    -0.394 OA
HETATM   25  H10 UNL     1      29.587   9.231  50.760  1.00  0.00     0.209 HD
ENDBRANCH  23  24
ENDBRANCH   9  23
TORSDOF 5
ENDMDL
