MODEL 1
REMARK VINA RESULT:      -8.2      0.000      0.000
REMARK  6 active torsions:
REMARK  status: ('A' for Active; 'I' for Inactive)
REMARK    1  A    between atoms: N1_1  and  C1_2 
REMARK    2  A    between atoms: N2_9  and  C6_10 
REMARK    3  A    between atoms: C11_16  and  N4_17 
REMARK       I    between atoms: N4_17  and  C12_18 
REMARK       I    between atoms: C12_18  and  N5_20 
REMARK    4  A    between atoms: N5_20  and  C13_21 
REMARK    5  A    between atoms: C13_21  and  C14_22 
REMARK    6  A    between atoms: C14_22  and  N6_23 
ROOT
HETATM    1  C6  UNL     1      24.344   4.980  50.218  1.00  0.00     0.136 C 
HETATM    2  C7  UNL     1      24.008   4.092  48.965  1.00  0.00     0.324 C 
HETATM    3  N3  UNL     1      23.600   5.372  48.639  1.00  0.00     0.326 N 
HETATM    4  C8  UNL     1      25.036   5.999  48.730  1.00  0.00     0.221 A 
HETATM    5  C9  UNL     1      26.279   5.446  48.988  1.00  0.00     0.050 A 
HETATM    6  C10 UNL     1      25.510   5.821  50.181  1.00  0.00     0.094 A 
HETATM    7  C11 UNL     1      25.566   7.346  49.901  1.00  0.00     0.007 C 
HETATM    8  C19 UNL     1      24.365   7.313  49.225  1.00  0.00     0.087 C 
ENDROOT
BRANCH   7   9
HETATM    9  N4  UNL     1      26.667   8.218  50.421  1.00  0.00    -0.315 N 
HETATM   10  C12 UNL     1      27.785   8.743  49.695  1.00  0.00     0.320 C 
HETATM   11  O1  UNL     1      27.787   8.424  48.453  1.00  0.00    -0.247 OA
HETATM   12  N5  UNL     1      28.813   9.532  50.195  1.00  0.00    -0.341 N 
HETATM   13  H11 UNL     1      28.624   9.642  51.233  1.00  0.00     0.164 HD
HETATM   14  H10 UNL     1      26.606   8.482  51.409  1.00  0.00     0.170 HD
BRANCH  12  15
HETATM   15  C13 UNL     1      29.663   9.838  49.070  1.00  0.00     0.154 C 
BRANCH  15  16
HETATM   16  C14 UNL     1      31.072   9.362  49.153  1.00  0.00     0.292 C 
BRANCH  16  17
HETATM   17  N6  UNL     1      31.363   8.383  48.165  1.00  0.00     0.094 N 
HETATM   18  C15 UNL     1      30.893   7.072  48.632  1.00  0.00     0.298 C 
HETATM   19  C16 UNL     1      31.906   6.541  49.601  1.00  0.00     0.198 C 
HETATM   20  O2  UNL     1      33.021   6.079  48.887  1.00  0.00    -0.388 OA
HETATM   21  C17 UNL     1      33.147   6.792  47.692  1.00  0.00     0.198 C 
HETATM   22  C18 UNL     1      32.787   8.249  47.943  1.00  0.00     0.298 C 
ENDBRANCH  16  17
ENDBRANCH  15  16
ENDBRANCH  12  15
ENDBRANCH   7   9
BRANCH   1  23
HETATM   23  N2  UNL     1      24.517   3.894  51.242  1.00  0.00    -0.348 N 
HETATM   24  C1  UNL     1      23.749   3.929  52.473  1.00  0.00     0.345 A 
HETATM   25  C2  UNL     1      24.186   2.819  53.335  1.00  0.00     0.073 A 
HETATM   26  C3  UNL     1      25.037   1.848  53.088  1.00  0.00     0.139 A 
HETATM   27  F1  UNL     1      25.234   0.947  54.087  1.00  0.00    -0.204 F 
HETATM   28  C4  UNL     1      25.691   1.878  51.783  1.00  0.00     0.087 A 
HETATM   29 CL1  UNL     1      26.806   0.587  51.446  1.00  0.00    -0.080 Cl
HETATM   30  C5  UNL     1      25.421   2.870  50.913  1.00  0.00     0.115 A 
BRANCH  24  31
HETATM   31  N1  UNL     1      23.713   5.217  53.086  1.00  0.00     0.105 N 
HETATM   32  H1  UNL     1      24.595   5.630  53.376  1.00  0.00     0.315 HD
HETATM   33  H2  UNL     1      22.941   5.229  53.810  1.00  0.00     0.315 HD
ENDBRANCH  24  31
ENDBRANCH   1  23
TORSDOF 6
ENDMDL
MODEL 2
REMARK VINA RESULT:      -7.9      1.357      1.449
REMARK  6 active torsions:
REMARK  status: ('A' for Active; 'I' for Inactive)
REMARK    1  A    between atoms: N1_1  and  C1_2 
REMARK    2  A    between atoms: N2_9  and  C6_10 
REMARK    3  A    between atoms: C11_16  and  N4_17 
REMARK       I    between atoms: N4_17  and  C12_18 
REMARK       I    between atoms: C12_18  and  N5_20 
REMARK    4  A    between atoms: N5_20  and  C13_21 
REMARK    5  A    between atoms: C13_21  and  C14_22 
REMARK    6  A    between atoms: C14_22  and  N6_23 
ROOT
HETATM    1  C6  UNL     1      23.998   3.947  50.412  1.00  0.00     0.136 C 
HETATM    2  C7  UNL     1      23.705   3.155  49.086  1.00  0.00     0.324 C 
HETATM    3  N3  UNL     1      23.121   4.397  48.920  1.00  0.00     0.326 N 
HETATM    4  C8  UNL     1      24.469   5.195  49.015  1.00  0.00     0.221 A 
HETATM    5  C9  UNL     1      25.785   4.787  49.156  1.00  0.00     0.050 A 
HETATM    6  C10 UNL     1      25.045   4.934  50.415  1.00  0.00     0.094 A 
HETATM    7  C11 UNL     1      24.892   6.473  50.301  1.00  0.00     0.007 C 
HETATM    8  C19 UNL     1      23.668   6.352  49.678  1.00  0.00     0.087 C 
ENDROOT
BRANCH   7   9
HETATM    9  N4  UNL     1      25.903   7.425  50.863  1.00  0.00    -0.315 N 
HETATM   10  C12 UNL     1      26.772   8.305  50.141  1.00  0.00     0.320 C 
HETATM   11  O1  UNL     1      26.613   8.257  48.870  1.00  0.00    -0.247 OA
HETATM   12  N5  UNL     1      27.723   9.167  50.674  1.00  0.00    -0.341 N 
HETATM   13  H11 UNL     1      27.701   9.018  51.724  1.00  0.00     0.164 HD
HETATM   14  H10 UNL     1      25.970   7.460  51.884  1.00  0.00     0.170 HD
BRANCH  12  15
HETATM   15  C13 UNL     1      28.301   9.865  49.552  1.00  0.00     0.154 C 
BRANCH  15  16
HETATM   16  C14 UNL     1      29.788   9.909  49.491  1.00  0.00     0.292 C 
BRANCH  16  17
HETATM   17  N6  UNL     1      30.299   9.181  48.382  1.00  0.00     0.094 N 
HETATM   18  C15 UNL     1      30.482   7.776  48.770  1.00  0.00     0.298 C 
HETATM   19  C16 UNL     1      31.760   7.680  49.548  1.00  0.00     0.198 C 
HETATM   20  O2  UNL     1      32.842   7.756  48.659  1.00  0.00    -0.388 OA
HETATM   21  C17 UNL     1      32.480   8.502  47.535  1.00  0.00     0.198 C 
HETATM   22  C18 UNL     1      31.600   9.663  47.972  1.00  0.00     0.298 C 
ENDBRANCH  16  17
ENDBRANCH  15  16
ENDBRANCH  12  15
ENDBRANCH   7   9
BRANCH   1  23
HETATM   23  N2  UNL     1      24.366   2.795  51.303  1.00  0.00    -0.348 N 
HETATM   24  C1  UNL     1      23.337   1.891  51.782  1.00  0.00     0.345 A 
HETATM   25  C2  UNL     1      23.947   0.928  52.712  1.00  0.00     0.073 A 
HETATM   26  C3  UNL     1      25.209   0.760  53.038  1.00  0.00     0.139 A 
HETATM   27  F1  UNL     1      25.477  -0.233  53.928  1.00  0.00    -0.204 F 
HETATM   28  C4  UNL     1      26.163   1.684  52.432  1.00  0.00     0.087 A 
HETATM   29 CL1  UNL     1      27.835   1.456  52.849  1.00  0.00    -0.080 Cl
HETATM   30  C5  UNL     1      25.732   2.651  51.598  1.00  0.00     0.115 A 
BRANCH  24  31
HETATM   31  N1  UNL     1      22.167   2.559  52.256  1.00  0.00     0.105 N 
HETATM   32  H1  UNL     1      21.918   3.445  51.823  1.00  0.00     0.315 HD
HETATM   33  H2  UNL     1      22.175   2.552  53.314  1.00  0.00     0.315 HD
ENDBRANCH  24  31
ENDBRANCH   1  23
TORSDOF 6
ENDMDL
MODEL 3
REMARK VINA RESULT:      -7.9      4.099      7.705
REMARK  6 active torsions:
REMARK  status: ('A' for Active; 'I' for Inactive)
REMARK    1  A    between atoms: N1_1  and  C1_2 
REMARK    2  A    between atoms: N2_9  and  C6_10 
REMARK    3  A    between atoms: C11_16  and  N4_17 
REMARK       I    between atoms: N4_17  and  C12_18 
REMARK       I    between atoms: C12_18  and  N5_20 
REMARK    4  A    between atoms: N5_20  and  C13_21 
REMARK    5  A    between atoms: C13_21  and  C14_22 
REMARK    6  A    between atoms: C14_22  and  N6_23 
ROOT
HETATM    1  C6  UNL     1      26.123   6.950  48.483  1.00  0.00     0.136 C 
HETATM    2  C7  UNL     1      25.725   8.352  47.893  1.00  0.00     0.324 C 
HETATM    3  N3  UNL     1      24.608   7.550  47.745  1.00  0.00     0.326 N 
HETATM    4  C8  UNL     1      24.404   7.316  49.283  1.00  0.00     0.221 A 
HETATM    5  C9  UNL     1      25.075   7.796  50.396  1.00  0.00     0.050 A 
HETATM    6  C10 UNL     1      25.658   6.590  49.796  1.00  0.00     0.094 A 
HETATM    7  C11 UNL     1      24.460   5.671  50.154  1.00  0.00     0.007 C 
HETATM    8  C19 UNL     1      23.858   5.901  48.935  1.00  0.00     0.087 C 
ENDROOT
BRANCH   7   9
HETATM    9  N4  UNL     1      24.389   4.912  51.443  1.00  0.00    -0.315 N 
HETATM   10  C12 UNL     1      24.293   3.494  51.619  1.00  0.00     0.320 C 
HETATM   11  O1  UNL     1      24.297   2.838  50.518  1.00  0.00    -0.247 OA
HETATM   12  N5  UNL     1      24.204   2.803  52.821  1.00  0.00    -0.341 N 
HETATM   13  H11 UNL     1      24.187   3.539  53.585  1.00  0.00     0.164 HD
HETATM   14  H10 UNL     1      24.428   5.473  52.300  1.00  0.00     0.170 HD
BRANCH  12  15
HETATM   15  C13 UNL     1      24.175   1.404  52.475  1.00  0.00     0.154 C 
BRANCH  15  16
HETATM   16  C14 UNL     1      24.893   0.476  53.392  1.00  0.00     0.292 C 
BRANCH  16  17
HETATM   17  N6  UNL     1      26.213   0.921  53.676  1.00  0.00     0.094 N 
HETATM   18  C15 UNL     1      27.119   0.448  52.621  1.00  0.00     0.298 C 
HETATM   19  C16 UNL     1      27.436  -0.990  52.902  1.00  0.00     0.198 C 
HETATM   20  O2  UNL     1      28.354  -1.056  53.960  1.00  0.00    -0.388 OA
HETATM   21  C17 UNL     1      28.194   0.052  54.796  1.00  0.00     0.198 C 
HETATM   22  C18 UNL     1      26.712   0.372  54.918  1.00  0.00     0.298 C 
ENDBRANCH  16  17
ENDBRANCH  15  16
ENDBRANCH  12  15
ENDBRANCH   7   9
BRANCH   1  23
HETATM   23  N2  UNL     1      27.617   7.106  48.484  1.00  0.00    -0.348 N 
HETATM   24  C1  UNL     1      28.465   5.982  48.132  1.00  0.00     0.345 A 
HETATM   25  C2  UNL     1      29.871   6.372  48.317  1.00  0.00     0.073 A 
HETATM   26  C3  UNL     1      30.383   7.540  48.638  1.00  0.00     0.139 A 
HETATM   27  F1  UNL     1      31.739   7.603  48.725  1.00  0.00    -0.204 F 
HETATM   28  C4  UNL     1      29.431   8.616  48.895  1.00  0.00     0.087 A 
HETATM   29 CL1  UNL     1      30.104  10.165  49.306  1.00  0.00    -0.080 Cl
HETATM   30  C5  UNL     1      28.107   8.382  48.811  1.00  0.00     0.115 A 
BRANCH  24  31
HETATM   31  N1  UNL     1      28.072   4.757  48.749  1.00  0.00     0.105 N 
HETATM   32  H1  UNL     1      28.185   3.899  48.216  1.00  0.00     0.315 HD
HETATM   33  H2  UNL     1      27.126   4.892  49.205  1.00  0.00     0.315 HD
ENDBRANCH  24  31
ENDBRANCH   1  23
TORSDOF 6
ENDMDL
MODEL 4
REMARK VINA RESULT:      -7.7      2.428      3.863
REMARK  6 active torsions:
REMARK  status: ('A' for Active; 'I' for Inactive)
REMARK    1  A    between atoms: N1_1  and  C1_2 
REMARK    2  A    between atoms: N2_9  and  C6_10 
REMARK    3  A    between atoms: C11_16  and  N4_17 
REMARK       I    between atoms: N4_17  and  C12_18 
REMARK       I    between atoms: C12_18  and  N5_20 
REMARK    4  A    between atoms: N5_20  and  C13_21 
REMARK    5  A    between atoms: C13_21  and  C14_22 
REMARK    6  A    between atoms: C14_22  and  N6_23 
ROOT
HETATM    1  C6  UNL     1      23.692   2.369  52.311  1.00  0.00     0.136 C 
HETATM    2  C7  UNL     1      23.135   1.336  51.265  1.00  0.00     0.324 C 
HETATM    3  N3  UNL     1      22.114   2.243  51.480  1.00  0.00     0.326 N 
HETATM    4  C8  UNL     1      22.913   3.479  50.936  1.00  0.00     0.221 A 
HETATM    5  C9  UNL     1      24.176   3.601  50.382  1.00  0.00     0.050 A 
HETATM    6  C10 UNL     1      24.137   3.656  51.848  1.00  0.00     0.094 A 
HETATM    7  C11 UNL     1      23.365   5.001  51.910  1.00  0.00     0.007 C 
HETATM    8  C19 UNL     1      22.149   4.353  51.973  1.00  0.00     0.087 C 
ENDROOT
BRANCH   7   9
HETATM    9  N4  UNL     1      24.062   6.326  51.946  1.00  0.00    -0.315 N 
HETATM   10  C12 UNL     1      24.399   7.168  50.838  1.00  0.00     0.320 C 
HETATM   11  O1  UNL     1      24.018   6.705  49.705  1.00  0.00    -0.247 OA
HETATM   12  N5  UNL     1      25.067   8.386  50.884  1.00  0.00    -0.341 N 
HETATM   13  H11 UNL     1      25.308   8.552  51.903  1.00  0.00     0.164 HD
HETATM   14  H10 UNL     1      24.314   6.678  52.875  1.00  0.00     0.170 HD
BRANCH  12  15
HETATM   15  C13 UNL     1      25.124   8.860  49.523  1.00  0.00     0.154 C 
BRANCH  15  16
HETATM   16  C14 UNL     1      26.436   9.388  49.057  1.00  0.00     0.292 C 
BRANCH  16  17
HETATM   17  N6  UNL     1      27.512   8.530  49.411  1.00  0.00     0.094 N 
HETATM   18  C15 UNL     1      28.772   9.283  49.345  1.00  0.00     0.298 C 
HETATM   19  C16 UNL     1      29.180   9.366  47.904  1.00  0.00     0.198 C 
HETATM   20  O2  UNL     1      29.700   8.126  47.506  1.00  0.00    -0.388 OA
HETATM   21  C17 UNL     1      29.119   7.104  48.262  1.00  0.00     0.198 C 
HETATM   22  C18 UNL     1      27.649   7.425  48.486  1.00  0.00     0.298 C 
ENDBRANCH  16  17
ENDBRANCH  15  16
ENDBRANCH  12  15
ENDBRANCH   7   9
BRANCH   1  23
HETATM   23  N2  UNL     1      24.854   1.575  52.837  1.00  0.00    -0.348 N 
HETATM   24  C1  UNL     1      24.687   0.169  53.157  1.00  0.00     0.345 A 
HETATM   25  C2  UNL     1      25.937  -0.335  53.746  1.00  0.00     0.073 A 
HETATM   26  C3  UNL     1      27.095   0.268  53.903  1.00  0.00     0.139 A 
HETATM   27  F1  UNL     1      28.086  -0.464  54.477  1.00  0.00    -0.204 F 
HETATM   28  C4  UNL     1      27.162   1.662  53.472  1.00  0.00     0.087 A 
HETATM   29 CL1  UNL     1      28.695   2.459  53.663  1.00  0.00    -0.080 Cl
HETATM   30  C5  UNL     1      26.072   2.265  52.960  1.00  0.00     0.115 A 
BRANCH  24  31
HETATM   31  N1  UNL     1      23.495  -0.110  53.891  1.00  0.00     0.105 N 
HETATM   32  H1  UNL     1      22.684   0.480  53.722  1.00  0.00     0.315 HD
HETATM   33  H2  UNL     1      23.747  -0.262  54.908  1.00  0.00     0.315 HD
ENDBRANCH  24  31
ENDBRANCH   1  23
TORSDOF 6
ENDMDL
MODEL 5
REMARK VINA RESULT:      -7.6      4.139      6.506
REMARK  6 active torsions:
REMARK  status: ('A' for Active; 'I' for Inactive)
REMARK    1  A    between atoms: N1_1  and  C1_2 
REMARK    2  A    between atoms: N2_9  and  C6_10 
REMARK    3  A    between atoms: C11_16  and  N4_17 
REMARK       I    between atoms: N4_17  and  C12_18 
REMARK       I    between atoms: C12_18  and  N5_20 
REMARK    4  A    between atoms: N5_20  and  C13_21 
REMARK    5  A    between atoms: C13_21  and  C14_22 
REMARK    6  A    between atoms: C14_22  and  N6_23 
ROOT
HETATM    1  C6  UNL     1      22.905   0.815  53.301  1.00  0.00     0.136 C 
HETATM    2  C7  UNL     1      22.687  -0.738  53.407  1.00  0.00     0.324 C 
HETATM    3  N3  UNL     1      21.486  -0.163  53.777  1.00  0.00     0.326 N 
HETATM    4  C8  UNL     1      21.229   0.521  52.387  1.00  0.00     0.221 A 
HETATM    5  C9  UNL     1      21.935   0.501  51.195  1.00  0.00     0.050 A 
HETATM    6  C10 UNL     1      22.379   1.515  52.159  1.00  0.00     0.094 A 
HETATM    7  C11 UNL     1      21.075   2.351  52.084  1.00  0.00     0.007 C 
HETATM    8  C19 UNL     1      20.525   1.677  53.154  1.00  0.00     0.087 C 
ENDROOT
BRANCH   7   9
HETATM    9  N4  UNL     1      20.892   3.466  51.100  1.00  0.00    -0.315 N 
HETATM   10  C12 UNL     1      21.361   4.815  51.209  1.00  0.00     0.320 C 
HETATM   11  O1  UNL     1      22.031   5.042  52.278  1.00  0.00    -0.247 OA
HETATM   12  N5  UNL     1      21.164   5.846  50.299  1.00  0.00    -0.341 N 
HETATM   13  H11 UNL     1      20.567   5.444  49.520  1.00  0.00     0.164 HD
HETATM   14  H10 UNL     1      20.385   3.231  50.241  1.00  0.00     0.170 HD
BRANCH  12  15
HETATM   15  C13 UNL     1      21.863   6.988  50.835  1.00  0.00     0.154 C 
BRANCH  15  16
HETATM   16  C14 UNL     1      22.254   8.046  49.862  1.00  0.00     0.292 C 
BRANCH  16  17
HETATM   17  N6  UNL     1      23.651   8.309  49.893  1.00  0.00     0.094 N 
HETATM   18  C15 UNL     1      24.200   8.160  48.539  1.00  0.00     0.298 C 
HETATM   19  C16 UNL     1      24.380   6.694  48.278  1.00  0.00     0.198 C 
HETATM   20  O2  UNL     1      25.511   6.243  48.973  1.00  0.00    -0.388 OA
HETATM   21  C17 UNL     1      25.711   7.027  50.113  1.00  0.00     0.198 C 
HETATM   22  C18 UNL     1      24.360   7.363  50.727  1.00  0.00     0.298 C 
ENDBRANCH  16  17
ENDBRANCH  15  16
ENDBRANCH  12  15
ENDBRANCH   7   9
BRANCH   1  23
HETATM   23  N2  UNL     1      24.408   0.846  53.283  1.00  0.00    -0.348 N 
HETATM   24  C1  UNL     1      25.112   2.084  53.561  1.00  0.00     0.345 A 
HETATM   25  C2  UNL     1      26.553   1.862  53.374  1.00  0.00     0.073 A 
HETATM   26  C3  UNL     1      27.204   0.751  53.108  1.00  0.00     0.139 A 
HETATM   27  F1  UNL     1      28.556   0.852  53.002  1.00  0.00    -0.204 F 
HETATM   28  C4  UNL     1      26.391  -0.448  52.924  1.00  0.00     0.087 A 
HETATM   29 CL1  UNL     1      27.248  -1.922  52.587  1.00  0.00    -0.080 Cl
HETATM   30  C5  UNL     1      25.049  -0.375  53.017  1.00  0.00     0.115 A 
BRANCH  24  31
HETATM   31  N1  UNL     1      24.563   3.215  52.885  1.00  0.00     0.105 N 
HETATM   32  H1  UNL     1      23.682   3.592  53.226  1.00  0.00     0.315 HD
HETATM   33  H2  UNL     1      24.616   3.048  51.841  1.00  0.00     0.315 HD
ENDBRANCH  24  31
ENDBRANCH   1  23
TORSDOF 6
ENDMDL
MODEL 6
REMARK VINA RESULT:      -7.5      2.640      3.758
REMARK  6 active torsions:
REMARK  status: ('A' for Active; 'I' for Inactive)
REMARK    1  A    between atoms: N1_1  and  C1_2 
REMARK    2  A    between atoms: N2_9  and  C6_10 
REMARK    3  A    between atoms: C11_16  and  N4_17 
REMARK       I    between atoms: N4_17  and  C12_18 
REMARK       I    between atoms: C12_18  and  N5_20 
REMARK    4  A    between atoms: N5_20  and  C13_21 
REMARK    5  A    between atoms: C13_21  and  C14_22 
REMARK    6  A    between atoms: C14_22  and  N6_23 
ROOT
HETATM    1  C6  UNL     1      22.359   2.035  51.874  1.00  0.00     0.136 C 
HETATM    2  C7  UNL     1      21.713   1.091  50.796  1.00  0.00     0.324 C 
HETATM    3  N3  UNL     1      21.124   2.329  50.614  1.00  0.00     0.326 N 
HETATM    4  C8  UNL     1      22.462   3.061  50.240  1.00  0.00     0.221 A 
HETATM    5  C9  UNL     1      23.761   2.606  50.090  1.00  0.00     0.050 A 
HETATM    6  C10 UNL     1      23.385   2.957  51.464  1.00  0.00     0.094 A 
HETATM    7  C11 UNL     1      23.231   4.474  51.177  1.00  0.00     0.007 C 
HETATM    8  C19 UNL     1      21.883   4.336  50.918  1.00  0.00     0.087 C 
ENDROOT
BRANCH   7   9
HETATM    9  N4  UNL     1      24.369   5.437  51.316  1.00  0.00    -0.315 N 
HETATM   10  C12 UNL     1      25.073   6.117  50.269  1.00  0.00     0.320 C 
HETATM   11  O1  UNL     1      24.626   5.858  49.096  1.00  0.00    -0.247 OA
HETATM   12  N5  UNL     1      26.144   6.990  50.411  1.00  0.00    -0.341 N 
HETATM   13  H11 UNL     1      26.359   7.029  51.448  1.00  0.00     0.164 HD
HETATM   14  H10 UNL     1      24.670   5.646  52.273  1.00  0.00     0.170 HD
BRANCH  12  15
HETATM   15  C13 UNL     1      26.468   7.440  49.079  1.00  0.00     0.154 C 
BRANCH  15  16
HETATM   16  C14 UNL     1      27.854   7.170  48.605  1.00  0.00     0.292 C 
BRANCH  16  17
HETATM   17  N6  UNL     1      28.545   8.366  48.268  1.00  0.00     0.094 N 
HETATM   18  C15 UNL     1      29.865   8.023  47.722  1.00  0.00     0.298 C 
HETATM   19  C16 UNL     1      30.769   7.706  48.874  1.00  0.00     0.198 C 
HETATM   20  O2  UNL     1      31.148   8.903  49.500  1.00  0.00    -0.388 OA
HETATM   21  C17 UNL     1      30.150   9.865  49.325  1.00  0.00     0.198 C 
HETATM   22  C18 UNL     1      28.789   9.194  49.431  1.00  0.00     0.298 C 
ENDBRANCH  16  17
ENDBRANCH  15  16
ENDBRANCH  12  15
ENDBRANCH   7   9
BRANCH   1  23
HETATM   23  N2  UNL     1      22.932   0.993  52.793  1.00  0.00    -0.348 N 
HETATM   24  C1  UNL     1      22.054   0.047  53.454  1.00  0.00     0.345 A 
HETATM   25  C2  UNL     1      22.853  -0.783  54.368  1.00  0.00     0.073 A 
HETATM   26  C3  UNL     1      24.155  -0.817  54.551  1.00  0.00     0.139 A 
HETATM   27  F1  UNL     1      24.614  -1.709  55.468  1.00  0.00    -0.204 F 
HETATM   28  C4  UNL     1      24.942   0.133  53.771  1.00  0.00     0.087 A 
HETATM   29 CL1  UNL     1      26.665   0.082  53.998  1.00  0.00    -0.080 Cl
HETATM   30  C5  UNL     1      24.330   0.990  52.930  1.00  0.00     0.115 A 
BRANCH  24  31
HETATM   31  N1  UNL     1      20.888   0.649  54.017  1.00  0.00     0.105 N 
HETATM   32  H1  UNL     1      20.996   1.178  54.879  1.00  0.00     0.315 HD
HETATM   33  H2  UNL     1      20.100  -0.057  54.008  1.00  0.00     0.315 HD
ENDBRANCH  24  31
ENDBRANCH   1  23
TORSDOF 6
ENDMDL
MODEL 7
REMARK VINA RESULT:      -7.5      1.999      2.721
REMARK  6 active torsions:
REMARK  status: ('A' for Active; 'I' for Inactive)
REMARK    1  A    between atoms: N1_1  and  C1_2 
REMARK    2  A    between atoms: N2_9  and  C6_10 
REMARK    3  A    between atoms: C11_16  and  N4_17 
REMARK       I    between atoms: N4_17  and  C12_18 
REMARK       I    between atoms: C12_18  and  N5_20 
REMARK    4  A    between atoms: N5_20  and  C13_21 
REMARK    5  A    between atoms: C13_21  and  C14_22 
REMARK    6  A    between atoms: C14_22  and  N6_23 
ROOT
HETATM    1  C6  UNL     1      24.379   5.075  50.204  1.00  0.00     0.136 C 
HETATM    2  C7  UNL     1      23.996   4.203  48.953  1.00  0.00     0.324 C 
HETATM    3  N3  UNL     1      23.622   5.496  48.638  1.00  0.00     0.326 N 
HETATM    4  C8  UNL     1      25.078   6.079  48.709  1.00  0.00     0.221 A 
HETATM    5  C9  UNL     1      26.308   5.487  48.945  1.00  0.00     0.050 A 
HETATM    6  C10 UNL     1      25.569   5.880  50.151  1.00  0.00     0.094 A 
HETATM    7  C11 UNL     1      25.667   7.404  49.876  1.00  0.00     0.007 C 
HETATM    8  C19 UNL     1      24.455   7.411  49.218  1.00  0.00     0.087 C 
ENDROOT
BRANCH   7   9
HETATM    9  N4  UNL     1      26.803   8.240  50.382  1.00  0.00    -0.315 N 
HETATM   10  C12 UNL     1      27.883   8.799  49.625  1.00  0.00     0.320 C 
HETATM   11  O1  UNL     1      27.814   8.549  48.369  1.00  0.00    -0.247 OA
HETATM   12  N5  UNL     1      28.943   9.553  50.110  1.00  0.00    -0.341 N 
HETATM   13  H11 UNL     1      28.813   9.606  51.161  1.00  0.00     0.164 HD
HETATM   14  H10 UNL     1      26.798   8.449  51.385  1.00  0.00     0.170 HD
BRANCH  12  15
HETATM   15  C13 UNL     1      29.733   9.916  48.959  1.00  0.00     0.154 C 
BRANCH  15  16
HETATM   16  C14 UNL     1      29.753  11.360  48.594  1.00  0.00     0.292 C 
BRANCH  16  17
HETATM   17  N6  UNL     1      29.458  11.567  47.219  1.00  0.00     0.094 N 
HETATM   18  C15 UNL     1      30.356  10.741  46.402  1.00  0.00     0.298 C 
HETATM   19  C16 UNL     1      31.679  11.441  46.327  1.00  0.00     0.198 C 
HETATM   20  O2  UNL     1      31.575  12.517  45.433  1.00  0.00    -0.388 OA
HETATM   21  C17 UNL     1      30.260  12.987  45.409  1.00  0.00     0.198 C 
HETATM   22  C18 UNL     1      29.689  12.939  46.819  1.00  0.00     0.298 C 
ENDBRANCH  16  17
ENDBRANCH  15  16
ENDBRANCH  12  15
ENDBRANCH   7   9
BRANCH   1  23
HETATM   23  N2  UNL     1      24.535   3.980  51.221  1.00  0.00    -0.348 N 
HETATM   24  C1  UNL     1      23.769   4.020  52.453  1.00  0.00     0.345 A 
HETATM   25  C2  UNL     1      24.187   2.899  53.308  1.00  0.00     0.073 A 
HETATM   26  C3  UNL     1      25.022   1.915  53.054  1.00  0.00     0.139 A 
HETATM   27  F1  UNL     1      25.205   1.005  54.047  1.00  0.00    -0.204 F 
HETATM   28  C4  UNL     1      25.676   1.942  51.749  1.00  0.00     0.087 A 
HETATM   29 CL1  UNL     1      26.769   0.635  51.403  1.00  0.00    -0.080 Cl
HETATM   30  C5  UNL     1      25.421   2.944  50.885  1.00  0.00     0.115 A 
BRANCH  24  31
HETATM   31  N1  UNL     1      23.754   5.305  53.073  1.00  0.00     0.105 N 
HETATM   32  H1  UNL     1      23.117   5.450  53.851  1.00  0.00     0.315 HD
HETATM   33  H2  UNL     1      23.733   6.048  52.319  1.00  0.00     0.315 HD
ENDBRANCH  24  31
ENDBRANCH   1  23
TORSDOF 6
ENDMDL
MODEL 8
REMARK VINA RESULT:      -7.2      2.140      3.494
REMARK  6 active torsions:
REMARK  status: ('A' for Active; 'I' for Inactive)
REMARK    1  A    between atoms: N1_1  and  C1_2 
REMARK    2  A    between atoms: N2_9  and  C6_10 
REMARK    3  A    between atoms: C11_16  and  N4_17 
REMARK       I    between atoms: N4_17  and  C12_18 
REMARK       I    between atoms: C12_18  and  N5_20 
REMARK    4  A    between atoms: N5_20  and  C13_21 
REMARK    5  A    between atoms: C13_21  and  C14_22 
REMARK    6  A    between atoms: C14_22  and  N6_23 
ROOT
HETATM    1  C6  UNL     1      25.922   7.860  49.192  1.00  0.00     0.136 C 
HETATM    2  C7  UNL     1      25.010   7.965  47.916  1.00  0.00     0.324 C 
HETATM    3  N3  UNL     1      25.584   9.213  48.072  1.00  0.00     0.326 N 
HETATM    4  C8  UNL     1      27.058   8.709  47.881  1.00  0.00     0.221 A 
HETATM    5  C9  UNL     1      27.586   7.460  47.597  1.00  0.00     0.050 A 
HETATM    6  C10 UNL     1      27.344   7.719  49.021  1.00  0.00     0.094 A 
HETATM    7  C11 UNL     1      28.424   8.826  49.141  1.00  0.00     0.007 C 
HETATM    8  C19 UNL     1      27.503   9.818  48.877  1.00  0.00     0.087 C 
ENDROOT
BRANCH   7   9
HETATM    9  N4  UNL     1      29.844   8.524  49.508  1.00  0.00    -0.315 N 
HETATM   10  C12 UNL     1      30.980   8.465  48.637  1.00  0.00     0.320 C 
HETATM   11  O1  UNL     1      30.703   8.732  47.414  1.00  0.00    -0.247 OA
HETATM   12  N5  UNL     1      32.289   8.162  48.987  1.00  0.00    -0.341 N 
HETATM   13  H11 UNL     1      32.276   7.949  50.026  1.00  0.00     0.164 HD
HETATM   14  H10 UNL     1      30.028   8.356  50.502  1.00  0.00     0.170 HD
BRANCH  12  15
HETATM   15  C13 UNL     1      33.062   8.275  47.774  1.00  0.00     0.154 C 
BRANCH  15  16
HETATM   16  C14 UNL     1      33.827   7.068  47.357  1.00  0.00     0.292 C 
BRANCH  16  17
HETATM   17  N6  UNL     1      33.321   5.882  47.957  1.00  0.00     0.094 N 
HETATM   18  C15 UNL     1      34.424   4.932  48.151  1.00  0.00     0.298 C 
HETATM   19  C16 UNL     1      34.694   4.269  46.834  1.00  0.00     0.198 C 
HETATM   20  O2  UNL     1      33.691   3.321  46.586  1.00  0.00    -0.388 OA
HETATM   21  C17 UNL     1      32.507   3.708  47.218  1.00  0.00     0.198 C 
HETATM   22  C18 UNL     1      32.356   5.218  47.108  1.00  0.00     0.298 C 
ENDBRANCH  16  17
ENDBRANCH  15  16
ENDBRANCH  12  15
ENDBRANCH   7   9
BRANCH   1  23
HETATM   23  N2  UNL     1      25.344   6.613  49.799  1.00  0.00    -0.348 N 
HETATM   24  C1  UNL     1      24.114   6.682  50.566  1.00  0.00     0.345 A 
HETATM   25  C2  UNL     1      23.832   5.353  51.130  1.00  0.00     0.073 A 
HETATM   26  C3  UNL     1      24.459   4.213  50.946  1.00  0.00     0.139 A 
HETATM   27  F1  UNL     1      23.953   3.132  51.599  1.00  0.00    -0.204 F 
HETATM   28  C4  UNL     1      25.641   4.255  50.091  1.00  0.00     0.087 A 
HETATM   29 CL1  UNL     1      26.465   2.746  49.832  1.00  0.00    -0.080 Cl
HETATM   30  C5  UNL     1      26.043   5.421  49.549  1.00  0.00     0.115 A 
BRANCH  24  31
HETATM   31  N1  UNL     1      24.078   7.771  51.488  1.00  0.00     0.105 N 
HETATM   32  H1  UNL     1      23.284   8.403  51.447  1.00  0.00     0.315 HD
HETATM   33  H2  UNL     1      25.031   8.233  51.508  1.00  0.00     0.315 HD
ENDBRANCH  24  31
ENDBRANCH   1  23
TORSDOF 6
ENDMDL
MODEL 9
REMARK VINA RESULT:      -7.2      3.734      7.800
REMARK  6 active torsions:
REMARK  status: ('A' for Active; 'I' for Inactive)
REMARK    1  A    between atoms: N1_1  and  C1_2 
REMARK    2  A    between atoms: N2_9  and  C6_10 
REMARK    3  A    between atoms: C11_16  and  N4_17 
REMARK       I    between atoms: N4_17  and  C12_18 
REMARK       I    between atoms: C12_18  and  N5_20 
REMARK    4  A    between atoms: N5_20  and  C13_21 
REMARK    5  A    between atoms: C13_21  and  C14_22 
REMARK    6  A    between atoms: C14_22  and  N6_23 
ROOT
HETATM    1  C6  UNL     1      28.859   8.252  47.850  1.00  0.00     0.136 C 
HETATM    2  C7  UNL     1      29.555   9.532  47.259  1.00  0.00     0.324 C 
HETATM    3  N3  UNL     1      28.206   9.683  46.998  1.00  0.00     0.326 N 
HETATM    4  C8  UNL     1      27.778   9.712  48.508  1.00  0.00     0.221 A 
HETATM    5  C9  UNL     1      28.509   9.663  49.684  1.00  0.00     0.050 A 
HETATM    6  C10 UNL     1      28.173   8.354  49.110  1.00  0.00     0.094 A 
HETATM    7  C11 UNL     1      26.645   8.494  49.345  1.00  0.00     0.007 C 
HETATM    8  C19 UNL     1      26.452   9.017  48.083  1.00  0.00     0.087 C 
ENDROOT
BRANCH   7   9
HETATM    9  N4  UNL     1      25.982   8.035  50.607  1.00  0.00    -0.315 N 
HETATM   10  C12 UNL     1      24.870   7.141  50.735  1.00  0.00     0.320 C 
HETATM   11  O1  UNL     1      24.443   6.688  49.615  1.00  0.00    -0.247 OA
HETATM   12  N5  UNL     1      24.248   6.741  51.912  1.00  0.00    -0.341 N 
HETATM   13  H11 UNL     1      24.741   7.257  52.697  1.00  0.00     0.164 HD
HETATM   14  H10 UNL     1      26.380   8.391  51.481  1.00  0.00     0.170 HD
BRANCH  12  15
HETATM   15  C13 UNL     1      23.219   5.809  51.521  1.00  0.00     0.154 C 
BRANCH  15  16
HETATM   16  C14 UNL     1      23.156   4.531  52.282  1.00  0.00     0.292 C 
BRANCH  16  17
HETATM   17  N6  UNL     1      24.338   3.757  52.124  1.00  0.00     0.094 N 
HETATM   18  C15 UNL     1      24.242   2.977  50.883  1.00  0.00     0.298 C 
HETATM   19  C16 UNL     1      23.378   1.784  51.158  1.00  0.00     0.198 C 
HETATM   20  O2  UNL     1      24.116   0.846  51.894  1.00  0.00    -0.388 OA
HETATM   21  C17 UNL     1      25.086   1.500  52.657  1.00  0.00     0.198 C 
HETATM   22  C18 UNL     1      24.502   2.798  53.195  1.00  0.00     0.298 C 
ENDBRANCH  16  17
ENDBRANCH  15  16
ENDBRANCH  12  15
ENDBRANCH   7   9
BRANCH   1  23
HETATM   23  N2  UNL     1      30.064   7.364  47.984  1.00  0.00    -0.348 N 
HETATM   24  C1  UNL     1      29.911   5.922  47.934  1.00  0.00     0.345 A 
HETATM   25  C2  UNL     1      31.217   5.298  48.195  1.00  0.00     0.073 A 
HETATM   26  C3  UNL     1      32.398   5.854  48.352  1.00  0.00     0.139 A 
HETATM   27  F1  UNL     1      33.441   5.010  48.571  1.00  0.00    -0.204 F 
HETATM   28  C4  UNL     1      32.436   7.313  48.307  1.00  0.00     0.087 A 
HETATM   29 CL1  UNL     1      33.998   8.053  48.499  1.00  0.00    -0.080 Cl
HETATM   30  C5  UNL     1      31.301   8.015  48.125  1.00  0.00     0.115 A 
BRANCH  24  31
HETATM   31  N1  UNL     1      28.821   5.437  48.718  1.00  0.00     0.105 N 
HETATM   32  H1  UNL     1      28.740   4.433  48.850  1.00  0.00     0.315 HD
HETATM   33  H2  UNL     1      27.935   5.932  48.414  1.00  0.00     0.315 HD
ENDBRANCH  24  31
ENDBRANCH   1  23
TORSDOF 6
ENDMDL
