MODEL 1
REMARK VINA RESULT:      -7.6      0.000      0.000
REMARK  4 active torsions:
REMARK  status: ('A' for Active; 'I' for Inactive)
REMARK    1  A    between atoms: O1_2  and  C2_3 
REMARK    2  A    between atoms: C4_5  and  C5_6 
REMARK    3  A    between atoms: C4_5  and  O2_21 
REMARK    4  A    between atoms: N1_10  and  C9_11 
ROOT
HETATM    1  C5  UNL     1      24.892  -0.610  54.295  1.00  0.00     0.066 C 
HETATM    2  C6  UNL     1      23.875  -0.152  53.578  1.00  0.00     0.040 C 
HETATM    3  C7  UNL     1      22.572  -0.655  54.069  1.00  0.00     0.079 C 
HETATM    4  C8  UNL     1      21.501   0.404  54.115  1.00  0.00     0.136 C 
HETATM    5  N1  UNL     1      20.858   0.585  52.829  1.00  0.00    -0.341 N 
HETATM    6  C15 UNL     1      21.356   1.348  51.706  1.00  0.00     0.211 C 
HETATM    7  N2  UNL     1      22.490   1.696  51.197  1.00  0.00    -0.237 NA
HETATM    8  C16 UNL     1      23.823   1.416  51.612  1.00  0.00     0.234 C 
HETATM    9  N3  UNL     1      24.361   0.696  52.539  1.00  0.00    -0.246 NA
ENDROOT
BRANCH   1  10
HETATM   10  C4  UNL     1      26.277  -0.256  54.006  1.00  0.00     0.098 C 
HETATM   11  C2  UNL     1      27.096  -0.913  53.203  1.00  0.00     0.075 C 
HETATM   12  C3  UNL     1      26.811  -2.141  52.417  1.00  0.00     0.079 C 
BRANCH  11  13
HETATM   13  O1  UNL     1      28.392  -0.568  52.943  1.00  0.00    -0.358 OA
HETATM   14  C1  UNL     1      29.539  -1.029  53.605  1.00  0.00     0.209 C 
ENDBRANCH  11  13
BRANCH  10  15
HETATM   15  O2  UNL     1      26.819   0.868  54.615  1.00  0.00    -0.353 OA
HETATM   16  C17 UNL     1      26.925   2.072  53.877  1.00  0.00     0.210 C 
ENDBRANCH  10  15
ENDBRANCH   1  10
BRANCH   5  17
HETATM   17  C9  UNL     1      19.595   0.012  52.510  1.00  0.00     0.035 A 
HETATM   18  C10 UNL     1      18.905   0.337  51.386  1.00  0.00     0.029 A 
HETATM   19  C11 UNL     1      17.682  -0.210  51.088  1.00  0.00     0.002 A 
HETATM   20  C12 UNL     1      17.070  -1.127  51.907  1.00  0.00     0.000 A 
HETATM   21  C13 UNL     1      17.741  -1.487  53.065  1.00  0.00     0.002 A 
HETATM   22  C14 UNL     1      18.966  -0.911  53.323  1.00  0.00     0.029 A 
ENDBRANCH   5  17
TORSDOF 4
ENDMDL
MODEL 2
REMARK VINA RESULT:      -7.4      3.667      7.741
REMARK  4 active torsions:
REMARK  status: ('A' for Active; 'I' for Inactive)
REMARK    1  A    between atoms: O1_2  and  C2_3 
REMARK    2  A    between atoms: C4_5  and  C5_6 
REMARK    3  A    between atoms: C4_5  and  O2_21 
REMARK    4  A    between atoms: N1_10  and  C9_11 
ROOT
HETATM    1  C5  UNL     1      23.658   3.085  50.432  1.00  0.00     0.066 C 
HETATM    2  C6  UNL     1      24.108   2.152  51.261  1.00  0.00     0.040 C 
HETATM    3  C7  UNL     1      25.574   2.233  51.450  1.00  0.00     0.079 C 
HETATM    4  C8  UNL     1      26.001   2.061  52.886  1.00  0.00     0.136 C 
HETATM    5  N1  UNL     1      26.107   0.664  53.260  1.00  0.00    -0.341 N 
HETATM    6  C15 UNL     1      25.027  -0.222  53.631  1.00  0.00     0.211 C 
HETATM    7  N2  UNL     1      23.770  -0.377  53.381  1.00  0.00    -0.237 NA
HETATM    8  C16 UNL     1      22.889   0.365  52.543  1.00  0.00     0.234 C 
HETATM    9  N3  UNL     1      23.022   1.350  51.718  1.00  0.00    -0.246 NA
ENDROOT
BRANCH   1  10
HETATM   10  C4  UNL     1      22.247   3.211  50.085  1.00  0.00     0.098 C 
HETATM   11  C2  UNL     1      21.657   2.686  49.025  1.00  0.00     0.075 C 
HETATM   12  C3  UNL     1      22.272   1.859  47.956  1.00  0.00     0.079 C 
BRANCH  11  13
HETATM   13  O1  UNL     1      20.333   2.813  48.715  1.00  0.00    -0.358 OA
HETATM   14  C1  UNL     1      19.786   3.198  47.483  1.00  0.00     0.209 C 
ENDBRANCH  11  13
BRANCH  10  15
HETATM   15  O2  UNL     1      21.417   3.944  50.923  1.00  0.00    -0.353 OA
HETATM   16  C17 UNL     1      21.879   5.171  51.456  1.00  0.00     0.210 C 
ENDBRANCH  10  15
ENDBRANCH   1  10
BRANCH   5  17
HETATM   17  C9  UNL     1      27.350  -0.027  53.316  1.00  0.00     0.035 A 
HETATM   18  C10 UNL     1      28.513   0.583  53.663  1.00  0.00     0.029 A 
HETATM   19  C11 UNL     1      29.711  -0.084  53.706  1.00  0.00     0.002 A 
HETATM   20  C12 UNL     1      29.818  -1.420  53.401  1.00  0.00     0.000 A 
HETATM   21  C13 UNL     1      28.654  -2.080  53.042  1.00  0.00     0.002 A 
HETATM   22  C14 UNL     1      27.474  -1.368  53.012  1.00  0.00     0.029 A 
ENDBRANCH   5  17
TORSDOF 4
ENDMDL
MODEL 3
REMARK VINA RESULT:      -7.2      3.665      7.810
REMARK  4 active torsions:
REMARK  status: ('A' for Active; 'I' for Inactive)
REMARK    1  A    between atoms: O1_2  and  C2_3 
REMARK    2  A    between atoms: C4_5  and  C5_6 
REMARK    3  A    between atoms: C4_5  and  O2_21 
REMARK    4  A    between atoms: N1_10  and  C9_11 
ROOT
HETATM    1  C5  UNL     1      23.913   2.998  50.445  1.00  0.00     0.066 C 
HETATM    2  C6  UNL     1      24.276   2.040  51.287  1.00  0.00     0.040 C 
HETATM    3  C7  UNL     1      25.747   1.942  51.422  1.00  0.00     0.079 C 
HETATM    4  C8  UNL     1      26.206   1.758  52.846  1.00  0.00     0.136 C 
HETATM    5  N1  UNL     1      26.153   0.371  53.261  1.00  0.00    -0.341 N 
HETATM    6  C15 UNL     1      24.987  -0.363  53.699  1.00  0.00     0.211 C 
HETATM    7  N2  UNL     1      23.712  -0.366  53.499  1.00  0.00    -0.237 NA
HETATM    8  C16 UNL     1      22.897   0.455  52.670  1.00  0.00     0.234 C 
HETATM    9  N3  UNL     1      23.118   1.393  51.809  1.00  0.00    -0.246 NA
ENDROOT
BRANCH   1  10
HETATM   10  C4  UNL     1      22.516   3.289  50.145  1.00  0.00     0.098 C 
HETATM   11  C2  UNL     1      21.777   4.226  50.714  1.00  0.00     0.075 C 
HETATM   12  C3  UNL     1      22.181   5.187  51.772  1.00  0.00     0.079 C 
BRANCH  11  13
HETATM   13  O1  UNL     1      20.469   4.487  50.420  1.00  0.00    -0.358 OA
HETATM   14  C1  UNL     1      19.971   5.542  49.643  1.00  0.00     0.209 C 
ENDBRANCH  11  13
BRANCH  10  15
HETATM   15  O2  UNL     1      21.869   2.532  49.177  1.00  0.00    -0.353 OA
HETATM   16  C17 UNL     1      22.415   2.463  47.872  1.00  0.00     0.210 C 
ENDBRANCH  10  15
ENDBRANCH   1  10
BRANCH   5  17
HETATM   17  C9  UNL     1      27.302  -0.468  53.296  1.00  0.00     0.035 A 
HETATM   18  C10 UNL     1      28.515  -0.033  53.724  1.00  0.00     0.029 A 
HETATM   19  C11 UNL     1      29.623  -0.842  53.746  1.00  0.00     0.002 A 
HETATM   20  C12 UNL     1      29.582  -2.152  53.336  1.00  0.00     0.000 A 
HETATM   21  C13 UNL     1      28.363  -2.637  52.891  1.00  0.00     0.002 A 
HETATM   22  C14 UNL     1      27.277  -1.787  52.887  1.00  0.00     0.029 A 
ENDBRANCH   5  17
TORSDOF 4
ENDMDL
MODEL 4
REMARK VINA RESULT:      -7.1      1.286      2.101
REMARK  4 active torsions:
REMARK  status: ('A' for Active; 'I' for Inactive)
REMARK    1  A    between atoms: O1_2  and  C2_3 
REMARK    2  A    between atoms: C4_5  and  C5_6 
REMARK    3  A    between atoms: C4_5  and  O2_21 
REMARK    4  A    between atoms: N1_10  and  C9_11 
ROOT
HETATM    1  C5  UNL     1      24.362  -0.222  53.513  1.00  0.00     0.066 C 
HETATM    2  C6  UNL     1      23.184   0.034  52.962  1.00  0.00     0.040 C 
HETATM    3  C7  UNL     1      22.070  -0.600  53.702  1.00  0.00     0.079 C 
HETATM    4  C8  UNL     1      20.877   0.304  53.877  1.00  0.00     0.136 C 
HETATM    5  N1  UNL     1      20.010   0.293  52.715  1.00  0.00    -0.341 N 
HETATM    6  C15 UNL     1      20.196   1.025  51.482  1.00  0.00     0.211 C 
HETATM    7  N2  UNL     1      21.166   1.482  50.763  1.00  0.00    -0.237 NA
HETATM    8  C16 UNL     1      22.576   1.419  50.952  1.00  0.00     0.234 C 
HETATM    9  N3  UNL     1      23.360   0.855  51.809  1.00  0.00    -0.246 NA
ENDROOT
BRANCH   1  10
HETATM   10  C4  UNL     1      25.613   0.292  52.967  1.00  0.00     0.098 C 
HETATM   11  C2  UNL     1      26.101   1.506  53.152  1.00  0.00     0.075 C 
HETATM   12  C3  UNL     1      25.510   2.616  53.943  1.00  0.00     0.079 C 
BRANCH  11  13
HETATM   13  O1  UNL     1      27.276   1.972  52.633  1.00  0.00    -0.358 OA
HETATM   14  C1  UNL     1      28.441   2.303  53.339  1.00  0.00     0.209 C 
ENDBRANCH  11  13
BRANCH  10  15
HETATM   15  O2  UNL     1      26.388  -0.543  52.173  1.00  0.00    -0.353 OA
HETATM   16  C17 UNL     1      27.074  -1.628  52.772  1.00  0.00     0.210 C 
ENDBRANCH  10  15
ENDBRANCH   1  10
BRANCH   5  17
HETATM   17  C9  UNL     1      18.810  -0.470  52.656  1.00  0.00     0.035 A 
HETATM   18  C10 UNL     1      17.771  -0.140  51.846  1.00  0.00     0.029 A 
HETATM   19  C11 UNL     1      16.611  -0.872  51.798  1.00  0.00     0.002 A 
HETATM   20  C12 UNL     1      16.420  -1.993  52.570  1.00  0.00     0.000 A 
HETATM   21  C13 UNL     1      17.457  -2.365  53.411  1.00  0.00     0.002 A 
HETATM   22  C14 UNL     1      18.602  -1.598  53.424  1.00  0.00     0.029 A 
ENDBRANCH   5  17
TORSDOF 4
ENDMDL
MODEL 5
REMARK VINA RESULT:      -7.1      4.611      8.030
REMARK  4 active torsions:
REMARK  status: ('A' for Active; 'I' for Inactive)
REMARK    1  A    between atoms: O1_2  and  C2_3 
REMARK    2  A    between atoms: C4_5  and  C5_6 
REMARK    3  A    between atoms: C4_5  and  O2_21 
REMARK    4  A    between atoms: N1_10  and  C9_11 
ROOT
HETATM    1  C5  UNL     1      22.815   1.568  50.850  1.00  0.00     0.066 C 
HETATM    2  C6  UNL     1      23.351   2.778  50.774  1.00  0.00     0.040 C 
HETATM    3  C7  UNL     1      24.161   2.955  49.547  1.00  0.00     0.079 C 
HETATM    4  C8  UNL     1      23.940   4.285  48.872  1.00  0.00     0.136 C 
HETATM    5  N1  UNL     1      24.745   5.336  49.462  1.00  0.00    -0.341 N 
HETATM    6  C15 UNL     1      24.462   6.073  50.674  1.00  0.00     0.211 C 
HETATM    7  N2  UNL     1      23.860   5.891  51.801  1.00  0.00    -0.237 NA
HETATM    8  C16 UNL     1      23.173   4.756  52.318  1.00  0.00     0.234 C 
HETATM    9  N3  UNL     1      22.975   3.544  51.916  1.00  0.00    -0.246 NA
ENDROOT
BRANCH   1  10
HETATM   10  C4  UNL     1      21.975   1.151  51.967  1.00  0.00     0.098 C 
HETATM   11  C2  UNL     1      22.381   0.509  53.048  1.00  0.00     0.075 C 
HETATM   12  C3  UNL     1      23.759   0.067  53.381  1.00  0.00     0.079 C 
BRANCH  11  13
HETATM   13  O1  UNL     1      21.580   0.126  54.086  1.00  0.00    -0.358 OA
HETATM   14  C1  UNL     1      21.137  -1.172  54.378  1.00  0.00     0.209 C 
ENDBRANCH  11  13
BRANCH  10  15
HETATM   15  O2  UNL     1      20.617   1.438  51.924  1.00  0.00    -0.353 OA
HETATM   16  C17 UNL     1      19.773   0.673  51.083  1.00  0.00     0.210 C 
ENDBRANCH  10  15
ENDBRANCH   1  10
BRANCH   5  17
HETATM   17  C9  UNL     1      25.961   5.794  48.883  1.00  0.00     0.035 A 
HETATM   18  C10 UNL     1      27.103   5.058  48.898  1.00  0.00     0.029 A 
HETATM   19  C11 UNL     1      28.276   5.507  48.347  1.00  0.00     0.002 A 
HETATM   20  C12 UNL     1      28.379   6.736  47.741  1.00  0.00     0.000 A 
HETATM   21  C13 UNL     1      27.236   7.519  47.704  1.00  0.00     0.002 A 
HETATM   22  C14 UNL     1      26.081   7.026  48.270  1.00  0.00     0.029 A 
ENDBRANCH   5  17
TORSDOF 4
ENDMDL
MODEL 6
REMARK VINA RESULT:      -7.1      4.181      7.416
REMARK  4 active torsions:
REMARK  status: ('A' for Active; 'I' for Inactive)
REMARK    1  A    between atoms: O1_2  and  C2_3 
REMARK    2  A    between atoms: C4_5  and  C5_6 
REMARK    3  A    between atoms: C4_5  and  O2_21 
REMARK    4  A    between atoms: N1_10  and  C9_11 
ROOT
HETATM    1  C5  UNL     1      25.481   0.775  52.278  1.00  0.00     0.066 C 
HETATM    2  C6  UNL     1      25.321   2.019  51.847  1.00  0.00     0.040 C 
HETATM    3  C7  UNL     1      26.170   2.318  50.672  1.00  0.00     0.079 C 
HETATM    4  C8  UNL     1      25.452   3.092  49.597  1.00  0.00     0.136 C 
HETATM    5  N1  UNL     1      25.449   4.518  49.861  1.00  0.00    -0.341 N 
HETATM    6  C15 UNL     1      24.571   5.235  50.757  1.00  0.00     0.211 C 
HETATM    7  N2  UNL     1      23.917   5.025  51.850  1.00  0.00    -0.237 NA
HETATM    8  C16 UNL     1      23.817   3.862  52.665  1.00  0.00     0.234 C 
HETATM    9  N3  UNL     1      24.365   2.692  52.663  1.00  0.00    -0.246 NA
ENDROOT
BRANCH   1  10
HETATM   10  C4  UNL     1      24.753   0.242  53.424  1.00  0.00     0.098 C 
HETATM   11  C2  UNL     1      23.499  -0.174  53.423  1.00  0.00     0.075 C 
HETATM   12  C3  UNL     1      22.548  -0.200  52.282  1.00  0.00     0.079 C 
BRANCH  11  13
HETATM   13  O1  UNL     1      22.832  -0.672  54.507  1.00  0.00    -0.358 OA
HETATM   14  C1  UNL     1      21.479  -0.486  54.825  1.00  0.00     0.209 C 
ENDBRANCH  11  13
BRANCH  10  15
HETATM   15  O2  UNL     1      25.407   0.149  54.645  1.00  0.00    -0.353 OA
HETATM   16  C17 UNL     1      26.823   0.151  54.675  1.00  0.00     0.210 C 
ENDBRANCH  10  15
ENDBRANCH   1  10
BRANCH   5  17
HETATM   17  C9  UNL     1      26.350   5.421  49.230  1.00  0.00     0.035 A 
HETATM   18  C10 UNL     1      27.540   5.025  48.708  1.00  0.00     0.029 A 
HETATM   19  C11 UNL     1      28.411   5.900  48.110  1.00  0.00     0.002 A 
HETATM   20  C12 UNL     1      28.139   7.242  47.996  1.00  0.00     0.000 A 
HETATM   21  C13 UNL     1      26.934   7.688  48.515  1.00  0.00     0.002 A 
HETATM   22  C14 UNL     1      26.092   6.772  49.108  1.00  0.00     0.029 A 
ENDBRANCH   5  17
TORSDOF 4
ENDMDL
MODEL 7
REMARK VINA RESULT:      -6.5      4.326      6.197
REMARK  4 active torsions:
REMARK  status: ('A' for Active; 'I' for Inactive)
REMARK    1  A    between atoms: O1_2  and  C2_3 
REMARK    2  A    between atoms: C4_5  and  C5_6 
REMARK    3  A    between atoms: C4_5  and  O2_21 
REMARK    4  A    between atoms: N1_10  and  C9_11 
ROOT
HETATM    1  C5  UNL     1      26.706   1.942  51.779  1.00  0.00     0.066 C 
HETATM    2  C6  UNL     1      25.729   2.768  51.429  1.00  0.00     0.040 C 
HETATM    3  C7  UNL     1      25.801   3.144  49.999  1.00  0.00     0.079 C 
HETATM    4  C8  UNL     1      24.461   3.134  49.310  1.00  0.00     0.136 C 
HETATM    5  N1  UNL     1      23.731   4.369  49.518  1.00  0.00    -0.341 N 
HETATM    6  C15 UNL     1      22.962   4.739  50.686  1.00  0.00     0.211 C 
HETATM    7  N2  UNL     1      22.959   4.514  51.957  1.00  0.00    -0.237 NA
HETATM    8  C16 UNL     1      23.823   3.721  52.764  1.00  0.00     0.234 C 
HETATM    9  N3  UNL     1      24.902   3.041  52.557  1.00  0.00    -0.246 NA
ENDROOT
BRANCH   1  10
HETATM   10  C4  UNL     1      26.849   1.429  53.137  1.00  0.00     0.098 C 
HETATM   11  C2  UNL     1      26.357   0.290  53.594  1.00  0.00     0.075 C 
HETATM   12  C3  UNL     1      25.557  -0.719  52.854  1.00  0.00     0.079 C 
BRANCH  11  13
HETATM   13  O1  UNL     1      26.502  -0.176  54.870  1.00  0.00    -0.358 OA
HETATM   14  C1  UNL     1      25.504  -0.728  55.687  1.00  0.00     0.209 C 
ENDBRANCH  11  13
BRANCH  10  15
HETATM   15  O2  UNL     1      27.562   2.180  54.062  1.00  0.00    -0.353 OA
HETATM   16  C17 UNL     1      28.960   2.337  53.897  1.00  0.00     0.210 C 
ENDBRANCH  10  15
ENDBRANCH   1  10
BRANCH   5  17
HETATM   17  C9  UNL     1      23.677   5.407  48.546  1.00  0.00     0.035 A 
HETATM   18  C10 UNL     1      22.707   5.474  47.598  1.00  0.00     0.029 A 
HETATM   19  C11 UNL     1      22.665   6.470  46.655  1.00  0.00     0.002 A 
HETATM   20  C12 UNL     1      23.603   7.472  46.605  1.00  0.00     0.000 A 
HETATM   21  C13 UNL     1      24.611   7.442  47.556  1.00  0.00     0.002 A 
HETATM   22  C14 UNL     1      24.613   6.421  48.482  1.00  0.00     0.029 A 
ENDBRANCH   5  17
TORSDOF 4
ENDMDL
MODEL 8
REMARK VINA RESULT:      -6.4      4.005      5.039
REMARK  4 active torsions:
REMARK  status: ('A' for Active; 'I' for Inactive)
REMARK    1  A    between atoms: O1_2  and  C2_3 
REMARK    2  A    between atoms: C4_5  and  C5_6 
REMARK    3  A    between atoms: C4_5  and  O2_21 
REMARK    4  A    between atoms: N1_10  and  C9_11 
ROOT
HETATM    1  C5  UNL     1      22.853   2.557  48.925  1.00  0.00     0.066 C 
HETATM    2  C6  UNL     1      22.015   2.368  49.935  1.00  0.00     0.040 C 
HETATM    3  C7  UNL     1      21.413   1.016  49.917  1.00  0.00     0.079 C 
HETATM    4  C8  UNL     1      21.359   0.367  51.276  1.00  0.00     0.136 C 
HETATM    5  N1  UNL     1      20.199   0.790  52.036  1.00  0.00    -0.341 N 
HETATM    6  C15 UNL     1      20.046   2.020  52.781  1.00  0.00     0.211 C 
HETATM    7  N2  UNL     1      20.472   3.237  52.740  1.00  0.00    -0.237 NA
HETATM    8  C16 UNL     1      21.354   3.885  51.829  1.00  0.00     0.234 C 
HETATM    9  N3  UNL     1      21.955   3.545  50.737  1.00  0.00    -0.246 NA
ENDROOT
BRANCH   1  10
HETATM   10  C4  UNL     1      23.572   3.811  48.726  1.00  0.00     0.098 C 
HETATM   11  C2  UNL     1      24.766   4.107  49.209  1.00  0.00     0.075 C 
HETATM   12  C3  UNL     1      25.646   3.257  50.050  1.00  0.00     0.079 C 
BRANCH  11  13
HETATM   13  O1  UNL     1      25.426   5.288  49.012  1.00  0.00    -0.358 OA
HETATM   14  C1  UNL     1      26.804   5.465  48.822  1.00  0.00     0.209 C 
ENDBRANCH  11  13
BRANCH  10  15
HETATM   15  O2  UNL     1      22.976   4.808  47.965  1.00  0.00    -0.353 OA
HETATM   16  C17 UNL     1      22.047   4.450  46.958  1.00  0.00     0.210 C 
ENDBRANCH  10  15
ENDBRANCH   1  10
BRANCH   5  17
HETATM   17  C9  UNL     1      19.021  -0.002  52.149  1.00  0.00     0.035 A 
HETATM   18  C10 UNL     1      18.001   0.070  51.256  1.00  0.00     0.029 A 
HETATM   19  C11 UNL     1      16.863  -0.686  51.374  1.00  0.00     0.002 A 
HETATM   20  C12 UNL     1      16.675  -1.572  52.407  1.00  0.00     0.000 A 
HETATM   21  C13 UNL     1      17.693  -1.676  53.342  1.00  0.00     0.002 A 
HETATM   22  C14 UNL     1      18.818  -0.896  53.182  1.00  0.00     0.029 A 
ENDBRANCH   5  17
TORSDOF 4
ENDMDL
MODEL 9
REMARK VINA RESULT:      -6.4      5.279      7.220
REMARK  4 active torsions:
REMARK  status: ('A' for Active; 'I' for Inactive)
REMARK    1  A    between atoms: O1_2  and  C2_3 
REMARK    2  A    between atoms: C4_5  and  C5_6 
REMARK    3  A    between atoms: C4_5  and  O2_21 
REMARK    4  A    between atoms: N1_10  and  C9_11 
ROOT
HETATM    1  C5  UNL     1      26.058   5.258  48.841  1.00  0.00     0.066 C 
HETATM    2  C6  UNL     1      25.358   4.816  49.877  1.00  0.00     0.040 C 
HETATM    3  C7  UNL     1      25.418   3.342  50.005  1.00  0.00     0.079 C 
HETATM    4  C8  UNL     1      25.612   2.872  51.424  1.00  0.00     0.136 C 
HETATM    5  N1  UNL     1      24.360   2.808  52.153  1.00  0.00    -0.341 N 
HETATM    6  C15 UNL     1      23.655   3.908  52.770  1.00  0.00     0.211 C 
HETATM    7  N2  UNL     1      23.498   5.178  52.599  1.00  0.00    -0.237 NA
HETATM    8  C16 UNL     1      24.031   6.058  51.615  1.00  0.00     0.234 C 
HETATM    9  N3  UNL     1      24.756   5.915  50.555  1.00  0.00    -0.246 NA
ENDROOT
BRANCH   1  10
HETATM   10  C4  UNL     1      26.153   6.674  48.505  1.00  0.00     0.098 C 
HETATM   11  C2  UNL     1      25.255   7.376  47.836  1.00  0.00     0.075 C 
HETATM   12  C3  UNL     1      23.963   6.906  47.276  1.00  0.00     0.079 C 
BRANCH  11  13
HETATM   13  O1  UNL     1      25.360   8.703  47.530  1.00  0.00    -0.358 OA
HETATM   14  C1  UNL     1      24.406   9.703  47.768  1.00  0.00     0.209 C 
ENDBRANCH  11  13
BRANCH  10  15
HETATM   15  O2  UNL     1      27.277   7.381  48.910  1.00  0.00    -0.353 OA
HETATM   16  C17 UNL     1      28.514   7.146  48.263  1.00  0.00     0.210 C 
ENDBRANCH  10  15
ENDBRANCH   1  10
BRANCH   5  17
HETATM   17  C9  UNL     1      23.652   1.592  52.362  1.00  0.00     0.035 A 
HETATM   18  C10 UNL     1      22.455   1.330  51.776  1.00  0.00     0.029 A 
HETATM   19  C11 UNL     1      21.770   0.161  51.989  1.00  0.00     0.002 A 
HETATM   20  C12 UNL     1      22.248  -0.830  52.812  1.00  0.00     0.000 A 
HETATM   21  C13 UNL     1      23.468  -0.604  53.430  1.00  0.00     0.002 A 
HETATM   22  C14 UNL     1      24.119   0.587  53.186  1.00  0.00     0.029 A 
ENDBRANCH   5  17
TORSDOF 4
ENDMDL
