MODEL 1
REMARK VINA RESULT:      -7.3      0.000      0.000
REMARK  1 active torsions:
REMARK  status: ('A' for Active; 'I' for Inactive)
REMARK    1  A    between atoms: C3_3  and  N1_5 
ROOT
HETATM    1  N1  UNL     1      22.870   2.370  50.210  1.00  0.00    -0.345 N 
HETATM    2  C4  UNL     1      23.216   1.437  51.297  1.00  0.00     0.126 C 
HETATM    3  C5  UNL     1      23.651   2.076  52.614  1.00  0.00     0.061 C 
HETATM    4  C6  UNL     1      24.168   3.466  52.282  1.00  0.00     0.181 A 
HETATM    5  N2  UNL     1      23.193   4.290  52.664  1.00  0.00    -0.087 NA
HETATM    6  C7  UNL     1      22.865   5.416  52.056  1.00  0.00     0.717 A 
HETATM    7  N3  UNL     1      23.805   5.153  51.216  1.00  0.00    -0.055 NA
HETATM    8  C8  UNL     1      24.583   4.178  51.194  1.00  0.00     0.343 A 
HETATM    9  C9  UNL     1      25.198   3.038  51.507  1.00  0.00     0.292 A 
HETATM   10  C10 UNL     1      26.184   2.375  50.935  1.00  0.00     0.084 A 
HETATM   11 CL1  UNL     1      26.647   0.964  51.796  1.00  0.00    -0.084 Cl
HETATM   12  C11 UNL     1      26.409   3.232  49.802  1.00  0.00     0.258 A 
HETATM   13  N4  UNL     1      25.450   4.047  50.206  1.00  0.00     0.108 N 
HETATM   14  N5  UNL     1      24.743   4.970  49.356  1.00  0.00    -0.115 N 
HETATM   15  C12 UNL     1      23.581   4.300  48.694  1.00  0.00     0.238 C 
HETATM   16  C13 UNL     1      23.420   2.857  48.961  1.00  0.00     0.291 C 
HETATM   17  F1  UNL     1      22.657   2.320  47.930  1.00  0.00    -0.225 F 
HETATM   18  N6  UNL     1      25.081   6.322  49.214  1.00  0.00    -0.165 NA
HETATM   19  C14 UNL     1      24.426   7.243  49.877  1.00  0.00     0.133 C 
HETATM   20  C15 UNL     1      23.371   7.695  50.833  1.00  0.00     0.186 C 
HETATM   21  N7  UNL     1      22.590   6.577  51.358  1.00  0.00    -0.218 N 
HETATM   22  H15 UNL     1      21.584   6.225  51.432  1.00  0.00     0.178 HD
ENDROOT
BRANCH   1  23
HETATM   23  C3  UNL     1      21.581   3.029  50.116  1.00  0.00     0.215 A 
HETATM   24  C2  UNL     1      20.148   3.273  50.182  1.00  0.00     0.185 A 
HETATM   25  C1  UNL     1      19.171   2.471  50.564  1.00  0.00     0.040 C 
HETATM   26  O1  UNL     1      21.061   1.968  50.539  1.00  0.00    -0.343 OA
ENDBRANCH   1  23
TORSDOF 1
ENDMDL
MODEL 2
REMARK VINA RESULT:      -7.2      8.656     10.911
REMARK  1 active torsions:
REMARK  status: ('A' for Active; 'I' for Inactive)
REMARK    1  A    between atoms: C3_3  and  N1_5 
ROOT
HETATM    1  N1  UNL     1      31.506   7.550  47.757  1.00  0.00    -0.345 N 
HETATM    2  C4  UNL     1      31.373   8.496  46.636  1.00  0.00     0.126 C 
HETATM    3  C5  UNL     1      31.921   8.021  45.291  1.00  0.00     0.061 C 
HETATM    4  C6  UNL     1      32.966   6.958  45.590  1.00  0.00     0.181 A 
HETATM    5  N2  UNL     1      32.366   5.804  45.303  1.00  0.00    -0.087 NA
HETATM    6  C7  UNL     1      32.554   4.666  45.948  1.00  0.00     0.717 A 
HETATM    7  N3  UNL     1      33.377   5.311  46.701  1.00  0.00    -0.055 NA
HETATM    8  C8  UNL     1      33.710   6.512  46.645  1.00  0.00     0.343 A 
HETATM    9  C9  UNL     1      33.802   7.787  46.267  1.00  0.00     0.292 A 
HETATM   10  C10 UNL     1      34.490   8.806  46.745  1.00  0.00     0.084 A 
HETATM   11 CL1  UNL     1      34.294  10.247  45.832  1.00  0.00    -0.084 Cl
HETATM   12  C11 UNL     1      35.120   8.154  47.862  1.00  0.00     0.258 A 
HETATM   13  N4  UNL     1      34.529   7.014  47.551  1.00  0.00     0.108 N 
HETATM   14  N5  UNL     1      34.309   5.925  48.469  1.00  0.00    -0.115 N 
HETATM   15  C12 UNL     1      33.031   6.117  49.224  1.00  0.00     0.238 C 
HETATM   16  C13 UNL     1      32.297   7.370  48.958  1.00  0.00     0.291 C 
HETATM   17  F1  UNL     1      31.466   7.611  50.047  1.00  0.00    -0.225 F 
HETATM   18  N6  UNL     1      35.159   4.820  48.594  1.00  0.00    -0.165 NA
HETATM   19  C14 UNL     1      34.870   3.689  48.000  1.00  0.00     0.133 C 
HETATM   20  C15 UNL     1      34.006   2.821  47.145  1.00  0.00     0.186 C 
HETATM   21  N7  UNL     1      32.811   3.522  46.679  1.00  0.00    -0.218 N 
HETATM   22  H15 UNL     1      31.745   3.449  46.690  1.00  0.00     0.178 HD
ENDROOT
BRANCH   1  23
HETATM   23  C3  UNL     1      30.590   6.445  47.971  1.00  0.00     0.215 A 
HETATM   24  C2  UNL     1      29.362   5.687  48.151  1.00  0.00     0.185 A 
HETATM   25  C1  UNL     1      28.108   6.099  48.163  1.00  0.00     0.040 C 
HETATM   26  O1  UNL     1      29.650   7.274  47.905  1.00  0.00    -0.343 OA
ENDBRANCH   1  23
TORSDOF 1
ENDMDL
MODEL 3
REMARK VINA RESULT:      -7.1      2.160      2.950
REMARK  1 active torsions:
REMARK  status: ('A' for Active; 'I' for Inactive)
REMARK    1  A    between atoms: C3_3  and  N1_5 
ROOT
HETATM    1  N1  UNL     1      20.714   1.012  50.497  1.00  0.00    -0.345 N 
HETATM    2  C4  UNL     1      20.202   0.233  51.638  1.00  0.00     0.126 C 
HETATM    3  C5  UNL     1      20.096   0.982  52.965  1.00  0.00     0.061 C 
HETATM    4  C6  UNL     1      21.078   2.140  52.899  1.00  0.00     0.181 A 
HETATM    5  N2  UNL     1      20.321   3.214  52.689  1.00  0.00    -0.087 NA
HETATM    6  C7  UNL     1      20.667   4.260  51.958  1.00  0.00     0.717 A 
HETATM    7  N3  UNL     1      21.779   3.649  51.739  1.00  0.00    -0.055 NA
HETATM    8  C8  UNL     1      22.156   2.536  52.161  1.00  0.00     0.343 A 
HETATM    9  C9  UNL     1      22.186   1.362  52.790  1.00  0.00     0.292 A 
HETATM   10  C10 UNL     1      23.092   0.404  52.838  1.00  0.00     0.084 A 
HETATM   11 CL1  UNL     1      22.652  -0.898  53.866  1.00  0.00    -0.084 Cl
HETATM   12  C11 UNL     1      24.076   0.975  51.957  1.00  0.00     0.258 A 
HETATM   13  N4  UNL     1      23.317   2.041  51.773  1.00  0.00     0.108 N 
HETATM   14  N5  UNL     1      23.413   2.934  50.647  1.00  0.00    -0.115 N 
HETATM   15  C12 UNL     1      22.590   2.434  49.502  1.00  0.00     0.238 C 
HETATM   16  C13 UNL     1      21.918   1.135  49.699  1.00  0.00     0.291 C 
HETATM   17  F1  UNL     1      21.642   0.608  48.442  1.00  0.00    -0.225 F 
HETATM   18  N6  UNL     1      24.143   4.129  50.652  1.00  0.00    -0.165 NA
HETATM   19  C14 UNL     1      23.540   5.275  50.843  1.00  0.00     0.133 C 
HETATM   20  C15 UNL     1      22.329   6.114  51.093  1.00  0.00     0.186 C 
HETATM   21  N7  UNL     1      21.111   5.310  51.177  1.00  0.00    -0.218 N 
HETATM   22  H15 UNL     1      20.146   5.211  50.729  1.00  0.00     0.178 HD
ENDROOT
BRANCH   1  23
HETATM   23  C3  UNL     1      19.885   1.915  49.722  1.00  0.00     0.215 A 
HETATM   24  C2  UNL     1      18.726   2.510  49.074  1.00  0.00     0.185 A 
HETATM   25  C1  UNL     1      17.469   2.108  49.054  1.00  0.00     0.040 C 
HETATM   26  O1  UNL     1      18.910   1.170  49.987  1.00  0.00    -0.343 OA
ENDBRANCH   1  23
TORSDOF 1
ENDMDL
MODEL 4
REMARK VINA RESULT:      -7.0      2.584      4.178
REMARK  1 active torsions:
REMARK  status: ('A' for Active; 'I' for Inactive)
REMARK    1  A    between atoms: C3_3  and  N1_5 
ROOT
HETATM    1  N1  UNL     1      21.823   2.809  50.949  1.00  0.00    -0.345 N 
HETATM    2  C4  UNL     1      21.670   1.884  49.813  1.00  0.00     0.126 C 
HETATM    3  C5  UNL     1      22.541   2.175  48.592  1.00  0.00     0.061 C 
HETATM    4  C6  UNL     1      22.896   3.652  48.643  1.00  0.00     0.181 A 
HETATM    5  N2  UNL     1      24.162   3.681  49.057  1.00  0.00    -0.087 NA
HETATM    6  C7  UNL     1      24.689   4.609  49.837  1.00  0.00     0.717 A 
HETATM    7  N3  UNL     1      23.524   5.159  49.847  1.00  0.00    -0.055 NA
HETATM    8  C8  UNL     1      22.480   4.791  49.272  1.00  0.00     0.343 A 
HETATM    9  C9  UNL     1      21.618   4.096  48.530  1.00  0.00     0.292 A 
HETATM   10  C10 UNL     1      20.335   4.263  48.270  1.00  0.00     0.084 A 
HETATM   11 CL1  UNL     1      19.703   3.094  47.184  1.00  0.00    -0.084 Cl
HETATM   12  C11 UNL     1      20.091   5.435  49.068  1.00  0.00     0.258 A 
HETATM   13  N4  UNL     1      21.354   5.457  49.454  1.00  0.00     0.108 N 
HETATM   14  N5  UNL     1      21.840   6.112  50.642  1.00  0.00    -0.115 N 
HETATM   15  C12 UNL     1      21.732   5.207  51.828  1.00  0.00     0.238 C 
HETATM   16  C13 UNL     1      21.106   3.891  51.592  1.00  0.00     0.291 C 
HETATM   17  F1  UNL     1      20.644   3.419  52.816  1.00  0.00    -0.225 F 
HETATM   18  N6  UNL     1      22.381   7.403  50.660  1.00  0.00    -0.165 NA
HETATM   19  C14 UNL     1      23.679   7.579  50.664  1.00  0.00     0.133 C 
HETATM   20  C15 UNL     1      25.087   7.081  50.657  1.00  0.00     0.186 C 
HETATM   21  N7  UNL     1      25.155   5.621  50.654  1.00  0.00    -0.218 N 
HETATM   22  H15 UNL     1      25.560   4.805  51.211  1.00  0.00     0.178 HD
ENDROOT
BRANCH   1  23
HETATM   23  C3  UNL     1      22.905   2.706  51.911  1.00  0.00     0.215 A 
HETATM   24  C2  UNL     1      23.906   2.146  52.805  1.00  0.00     0.185 A 
HETATM   25  C1  UNL     1      24.193   0.885  53.070  1.00  0.00     0.040 C 
HETATM   26  O1  UNL     1      22.797   1.458  51.826  1.00  0.00    -0.343 OA
ENDBRANCH   1  23
TORSDOF 1
ENDMDL
MODEL 5
REMARK VINA RESULT:      -6.9      2.653      5.151
REMARK  1 active torsions:
REMARK  status: ('A' for Active; 'I' for Inactive)
REMARK    1  A    between atoms: C3_3  and  N1_5 
ROOT
HETATM    1  N1  UNL     1      23.039   4.070  49.218  1.00  0.00    -0.345 N 
HETATM    2  C4  UNL     1      22.759   5.506  49.391  1.00  0.00     0.126 C 
HETATM    3  C5  UNL     1      22.469   5.963  50.820  1.00  0.00     0.061 C 
HETATM    4  C6  UNL     1      21.977   4.744  51.583  1.00  0.00     0.181 A 
HETATM    5  N2  UNL     1      23.012   4.375  52.335  1.00  0.00    -0.087 NA
HETATM    6  C7  UNL     1      23.326   3.128  52.642  1.00  0.00     0.717 A 
HETATM    7  N3  UNL     1      22.305   2.774  51.941  1.00  0.00    -0.055 NA
HETATM    8  C8  UNL     1      21.492   3.494  51.326  1.00  0.00     0.343 A 
HETATM    9  C9  UNL     1      20.865   4.558  50.825  1.00  0.00     0.292 A 
HETATM   10  C10 UNL     1      19.808   4.681  50.047  1.00  0.00     0.084 A 
HETATM   11 CL1  UNL     1      19.372   6.312  49.741  1.00  0.00    -0.084 Cl
HETATM   12  C11 UNL     1      19.513   3.288  49.841  1.00  0.00     0.258 A 
HETATM   13  N4  UNL     1      20.535   2.941  50.603  1.00  0.00     0.108 N 
HETATM   14  N5  UNL     1      21.195   1.662  50.561  1.00  0.00    -0.115 N 
HETATM   15  C12 UNL     1      22.267   1.652  49.517  1.00  0.00     0.238 C 
HETATM   16  C13 UNL     1      22.398   2.877  48.703  1.00  0.00     0.291 C 
HETATM   17  F1  UNL     1      23.044   2.531  47.521  1.00  0.00    -0.225 F 
HETATM   18  N6  UNL     1      20.898   0.596  51.418  1.00  0.00    -0.165 NA
HETATM   19  C14 UNL     1      21.643   0.360  52.469  1.00  0.00     0.133 C 
HETATM   20  C15 UNL     1      22.797   0.652  53.372  1.00  0.00     0.186 C 
HETATM   21  N7  UNL     1      23.580   1.797  52.911  1.00  0.00    -0.218 N 
HETATM   22  H15 UNL     1      24.575   2.067  52.631  1.00  0.00     0.178 HD
ENDROOT
BRANCH   1  23
HETATM   23  C3  UNL     1      24.338   3.481  49.486  1.00  0.00     0.215 A 
HETATM   24  C2  UNL     1      25.779   3.311  49.595  1.00  0.00     0.185 A 
HETATM   25  C1  UNL     1      26.755   4.149  49.299  1.00  0.00     0.040 C 
HETATM   26  O1  UNL     1      24.853   4.553  49.084  1.00  0.00    -0.343 OA
ENDBRANCH   1  23
TORSDOF 1
ENDMDL
MODEL 6
REMARK VINA RESULT:      -6.8      7.794      9.900
REMARK  1 active torsions:
REMARK  status: ('A' for Active; 'I' for Inactive)
REMARK    1  A    between atoms: C3_3  and  N1_5 
ROOT
HETATM    1  N1  UNL     1      30.861   6.435  48.339  1.00  0.00    -0.345 N 
HETATM    2  C4  UNL     1      29.397   6.293  48.429  1.00  0.00     0.126 C 
HETATM    3  C5  UNL     1      28.587   7.037  47.369  1.00  0.00     0.061 C 
HETATM    4  C6  UNL     1      29.457   8.178  46.868  1.00  0.00     0.181 A 
HETATM    5  N2  UNL     1      29.895   7.773  45.678  1.00  0.00    -0.087 NA
HETATM    6  C7  UNL     1      31.085   8.044  45.169  1.00  0.00     0.717 A 
HETATM    7  N3  UNL     1      31.323   8.690  46.258  1.00  0.00    -0.055 NA
HETATM    8  C8  UNL     1      30.578   8.862  47.244  1.00  0.00     0.343 A 
HETATM    9  C9  UNL     1      29.527   8.821  48.063  1.00  0.00     0.292 A 
HETATM   10  C10 UNL     1      29.323   9.311  49.270  1.00  0.00     0.084 A 
HETATM   11 CL1  UNL     1      27.740   9.020  49.865  1.00  0.00    -0.084 Cl
HETATM   12  C11 UNL     1      30.614   9.904  49.498  1.00  0.00     0.258 A 
HETATM   13  N4  UNL     1      31.025   9.507  48.306  1.00  0.00     0.108 N 
HETATM   14  N5  UNL     1      32.405   9.341  47.925  1.00  0.00    -0.115 N 
HETATM   15  C12 UNL     1      32.897   7.978  48.296  1.00  0.00     0.238 C 
HETATM   16  C13 UNL     1      31.945   7.114  49.020  1.00  0.00     0.291 C 
HETATM   17  F1  UNL     1      32.683   6.149  49.698  1.00  0.00    -0.225 F 
HETATM   18  N6  UNL     1      33.157  10.315  47.257  1.00  0.00    -0.165 NA
HETATM   19  C14 UNL     1      33.334  10.244  45.961  1.00  0.00     0.133 C 
HETATM   20  C15 UNL     1      33.142   9.599  44.628  1.00  0.00     0.186 C 
HETATM   21  N7  UNL     1      32.348   8.375  44.717  1.00  0.00    -0.218 N 
HETATM   22  H15 UNL     1      32.393   7.334  44.485  1.00  0.00     0.178 HD
ENDROOT
BRANCH   1  23
HETATM   23  C3  UNL     1      31.675   5.659  47.422  1.00  0.00     0.215 A 
HETATM   24  C2  UNL     1      32.209   4.541  46.660  1.00  0.00     0.185 A 
HETATM   25  C1  UNL     1      31.844   3.272  46.651  1.00  0.00     0.040 C 
HETATM   26  O1  UNL     1      31.002   4.652  47.753  1.00  0.00    -0.343 OA
ENDBRANCH   1  23
TORSDOF 1
ENDMDL
MODEL 7
REMARK VINA RESULT:      -6.7      2.334      4.489
REMARK  1 active torsions:
REMARK  status: ('A' for Active; 'I' for Inactive)
REMARK    1  A    between atoms: C3_3  and  N1_5 
ROOT
HETATM    1  N1  UNL     1      24.226   4.844  51.397  1.00  0.00    -0.345 N 
HETATM    2  C4  UNL     1      25.329   4.153  50.705  1.00  0.00     0.126 C 
HETATM    3  C5  UNL     1      24.926   3.252  49.539  1.00  0.00     0.061 C 
HETATM    4  C6  UNL     1      23.477   2.853  49.767  1.00  0.00     0.181 A 
HETATM    5  N2  UNL     1      22.781   3.599  48.912  1.00  0.00    -0.087 NA
HETATM    6  C7  UNL     1      21.577   4.095  49.136  1.00  0.00     0.717 A 
HETATM    7  N3  UNL     1      21.639   3.532  50.293  1.00  0.00    -0.055 NA
HETATM    8  C8  UNL     1      22.558   2.842  50.778  1.00  0.00     0.343 A 
HETATM    9  C9  UNL     1      23.709   2.186  50.928  1.00  0.00     0.292 A 
HETATM   10  C10 UNL     1      24.212   1.494  51.932  1.00  0.00     0.084 A 
HETATM   11 CL1  UNL     1      25.736   0.789  51.577  1.00  0.00    -0.084 Cl
HETATM   12  C11 UNL     1      23.150   1.672  52.886  1.00  0.00     0.258 A 
HETATM   13  N4  UNL     1      22.467   2.397  52.018  1.00  0.00     0.108 N 
HETATM   14  N5  UNL     1      21.434   3.338  52.365  1.00  0.00    -0.115 N 
HETATM   15  C12 UNL     1      22.020   4.679  52.676  1.00  0.00     0.238 C 
HETATM   16  C13 UNL     1      23.493   4.772  52.644  1.00  0.00     0.291 C 
HETATM   17  F1  UNL     1      23.862   5.871  53.412  1.00  0.00    -0.225 F 
HETATM   18  N6  UNL     1      20.066   3.038  52.363  1.00  0.00    -0.165 NA
HETATM   19  C14 UNL     1      19.313   3.382  51.348  1.00  0.00     0.133 C 
HETATM   20  C15 UNL     1      19.092   4.006  50.009  1.00  0.00     0.186 C 
HETATM   21  N7  UNL     1      20.320   4.573  49.456  1.00  0.00    -0.218 N 
HETATM   22  H15 UNL     1      20.723   5.493  49.091  1.00  0.00     0.178 HD
ENDROOT
BRANCH   1  23
HETATM   23  C3  UNL     1      23.617   6.060  50.893  1.00  0.00     0.215 A 
HETATM   24  C2  UNL     1      23.459   7.398  50.343  1.00  0.00     0.185 A 
HETATM   25  C1  UNL     1      24.374   8.280  49.986  1.00  0.00     0.040 C 
HETATM   26  O1  UNL     1      24.776   6.510  50.717  1.00  0.00    -0.343 OA
ENDBRANCH   1  23
TORSDOF 1
ENDMDL
MODEL 8
REMARK VINA RESULT:      -6.6      6.758      8.592
REMARK  1 active torsions:
REMARK  status: ('A' for Active; 'I' for Inactive)
REMARK    1  A    between atoms: C3_3  and  N1_5 
ROOT
HETATM    1  N1  UNL     1      28.945   7.178  47.517  1.00  0.00    -0.345 N 
HETATM    2  C4  UNL     1      29.640   5.937  47.903  1.00  0.00     0.126 C 
HETATM    3  C5  UNL     1      30.900   6.112  48.750  1.00  0.00     0.061 C 
HETATM    4  C6  UNL     1      31.422   7.514  48.481  1.00  0.00     0.181 A 
HETATM    5  N2  UNL     1      31.081   8.215  49.561  1.00  0.00    -0.087 NA
HETATM    6  C7  UNL     1      30.725   9.488  49.563  1.00  0.00     0.717 A 
HETATM    7  N3  UNL     1      30.898   9.464  48.286  1.00  0.00    -0.055 NA
HETATM    8  C8  UNL     1      31.265   8.514  47.565  1.00  0.00     0.343 A 
HETATM    9  C9  UNL     1      31.666   7.310  47.161  1.00  0.00     0.292 A 
HETATM   10  C10 UNL     1      31.941   6.820  45.967  1.00  0.00     0.084 A 
HETATM   11 CL1  UNL     1      32.486   5.193  46.007  1.00  0.00    -0.084 Cl
HETATM   12  C11 UNL     1      31.644   7.980  45.170  1.00  0.00     0.258 A 
HETATM   13  N4  UNL     1      31.325   8.664  46.254  1.00  0.00     0.108 N 
HETATM   14  N5  UNL     1      30.487   9.836  46.270  1.00  0.00    -0.115 N 
HETATM   15  C12 UNL     1      29.043   9.456  46.364  1.00  0.00     0.238 C 
HETATM   16  C13 UNL     1      28.746   8.010  46.348  1.00  0.00     0.291 C 
HETATM   17  F1  UNL     1      27.425   7.855  45.944  1.00  0.00    -0.225 F 
HETATM   18  N6  UNL     1      30.973  11.149  46.248  1.00  0.00    -0.165 NA
HETATM   19  C14 UNL     1      31.067  11.841  47.356  1.00  0.00     0.133 C 
HETATM   20  C15 UNL     1      30.916  12.013  48.832  1.00  0.00     0.186 C 
HETATM   21  N7  UNL     1      30.365  10.819  49.471  1.00  0.00    -0.218 N 
HETATM   22  H15 UNL     1      29.549  10.503  50.084  1.00  0.00     0.178 HD
ENDROOT
BRANCH   1  23
HETATM   23  C3  UNL     1      28.042   7.885  48.405  1.00  0.00     0.215 A 
HETATM   24  C2  UNL     1      26.978   8.157  49.360  1.00  0.00     0.185 A 
HETATM   25  C1  UNL     1      26.137   7.327  49.948  1.00  0.00     0.040 C 
HETATM   26  O1  UNL     1      27.517   6.777  48.675  1.00  0.00    -0.343 OA
ENDBRANCH   1  23
TORSDOF 1
ENDMDL
MODEL 9
REMARK VINA RESULT:      -6.5      9.157     11.005
REMARK  1 active torsions:
REMARK  status: ('A' for Active; 'I' for Inactive)
REMARK    1  A    between atoms: C3_3  and  N1_5 
ROOT
HETATM    1  N1  UNL     1      31.587   6.973  47.705  1.00  0.00    -0.345 N 
HETATM    2  C4  UNL     1      31.953   6.042  48.787  1.00  0.00     0.126 C 
HETATM    3  C5  UNL     1      33.446   5.911  49.080  1.00  0.00     0.061 C 
HETATM    4  C6  UNL     1      34.183   6.320  47.814  1.00  0.00     0.181 A 
HETATM    5  N2  UNL     1      34.645   7.542  48.071  1.00  0.00    -0.087 NA
HETATM    6  C7  UNL     1      34.755   8.518  47.187  1.00  0.00     0.717 A 
HETATM    7  N3  UNL     1      34.271   7.693  46.323  1.00  0.00    -0.055 NA
HETATM    8  C8  UNL     1      33.925   6.505  46.486  1.00  0.00     0.343 A 
HETATM    9  C9  UNL     1      33.680   5.320  47.044  1.00  0.00     0.292 A 
HETATM   10  C10 UNL     1      33.173   4.201  46.564  1.00  0.00     0.084 A 
HETATM   11 CL1  UNL     1      33.128   2.926  47.712  1.00  0.00    -0.084 Cl
HETATM   12  C11 UNL     1      32.909   4.629  45.216  1.00  0.00     0.258 A 
HETATM   13  N4  UNL     1      33.386   5.831  45.486  1.00  0.00     0.108 N 
HETATM   14  N5  UNL     1      33.077   7.025  44.742  1.00  0.00    -0.115 N 
HETATM   15  C12 UNL     1      31.823   7.660  45.255  1.00  0.00     0.238 C 
HETATM   16  C13 UNL     1      31.120   6.939  46.334  1.00  0.00     0.291 C 
HETATM   17  F1  UNL     1      29.795   7.364  46.332  1.00  0.00    -0.225 F 
HETATM   18  N6  UNL     1      33.875   7.537  43.712  1.00  0.00    -0.165 NA
HETATM   19  C14 UNL     1      34.705   8.524  43.943  1.00  0.00     0.133 C 
HETATM   20  C15 UNL     1      35.349   9.538  44.831  1.00  0.00     0.186 C 
HETATM   21  N7  UNL     1      34.834   9.479  46.197  1.00  0.00    -0.218 N 
HETATM   22  H15 UNL     1      34.364  10.090  46.938  1.00  0.00     0.178 HD
ENDROOT
BRANCH   1  23
HETATM   23  C3  UNL     1      31.499   8.409  47.895  1.00  0.00     0.215 A 
HETATM   24  C2  UNL     1      31.200   9.707  48.480  1.00  0.00     0.185 A 
HETATM   25  C1  UNL     1      30.597  10.004  49.616  1.00  0.00     0.040 C 
HETATM   26  O1  UNL     1      30.916   8.181  48.983  1.00  0.00    -0.343 OA
ENDBRANCH   1  23
TORSDOF 1
ENDMDL
