MODEL 1
REMARK VINA RESULT:      -7.1      0.000      0.000
REMARK  3 active torsions:
REMARK  status: ('A' for Active; 'I' for Inactive)
REMARK    1  A    between atoms: C2_2  and  N1_3 
REMARK    2  A    between atoms: C10_16  and  C11_17 
REMARK    3  A    between atoms: C12_18  and  C13_19 
ROOT
HETATM    1  C1  UNL     1      22.384   1.513  50.746  1.00  0.00     0.051 C 
HETATM    2  C2  UNL     1      22.409   1.928  52.218  1.00  0.00     0.172 C 
HETATM    3  C3  UNL     1      22.660   3.383  52.270  1.00  0.00     0.062 C 
HETATM    4  C4  UNL     1      23.882   4.061  51.915  1.00  0.00     0.116 C 
HETATM    5  N2  UNL     1      24.651   3.778  50.778  1.00  0.00    -0.418 N 
HETATM    6  C5  UNL     1      25.450   2.672  50.684  1.00  0.00     0.143 C 
HETATM    7  C6  UNL     1      26.745   2.666  51.414  1.00  0.00     0.026 C 
HETATM    8  C7  UNL     1      27.068   1.937  52.457  1.00  0.00     0.088 A 
HETATM    9  N3  UNL     1      28.238   1.795  53.244  1.00  0.00    -0.274 N 
HETATM   10  N4  UNL     1      28.281   1.052  54.404  1.00  0.00    -0.168 NA
HETATM   11  C8  UNL     1      27.275   0.413  54.897  1.00  0.00     0.256 A 
HETATM   12  N5  UNL     1      26.022   0.506  54.152  1.00  0.00    -0.226 NA
HETATM   13  C9  UNL     1      25.960   1.215  53.038  1.00  0.00     0.133 A 
HETATM   14  N6  UNL     1      24.573   0.928  53.024  1.00  0.00    -0.265 NA
HETATM   15  C10 UNL     1      23.216   1.025  53.084  1.00  0.00     0.122 C 
HETATM   16  H10 UNL     1      24.955   4.575  50.186  1.00  0.00     0.153 HD
HETATM   17  H14 UNL     1      29.040   2.330  52.812  1.00  0.00     0.189 HD
HETATM   18  H16 UNL     1      24.528   2.006  53.122  1.00  0.00     0.130 HD
ENDROOT
BRANCH   2  19
HETATM   19  N1  UNL     1      21.013   1.636  52.674  1.00  0.00     0.089 N 
HETATM   20  H4  UNL     1      20.477   1.633  51.786  1.00  0.00     0.313 HD
HETATM   21  H5  UNL     1      20.764   2.510  53.216  1.00  0.00     0.313 HD
ENDBRANCH   2  19
BRANCH  15  22
HETATM   22  C11 UNL     1      22.550  -0.354  52.904  1.00  0.00    -0.006 C 
HETATM   23  C12 UNL     1      22.334  -1.269  53.835  1.00  0.00     0.002 C 
BRANCH  23  24
HETATM   24  C13 UNL     1      22.621  -1.314  55.264  1.00  0.00     0.249 C 
HETATM   25  F1  UNL     1      23.993  -1.546  55.426  1.00  0.00    -0.251 F 
ENDBRANCH  23  24
ENDBRANCH  15  22
TORSDOF 3
ENDMDL
MODEL 2
REMARK VINA RESULT:      -6.9      2.006      4.696
REMARK  3 active torsions:
REMARK  status: ('A' for Active; 'I' for Inactive)
REMARK    1  A    between atoms: C2_2  and  N1_3 
REMARK    2  A    between atoms: C10_16  and  C11_17 
REMARK    3  A    between atoms: C12_18  and  C13_19 
ROOT
HETATM    1  C1  UNL     1      23.785   4.028  51.914  1.00  0.00     0.051 C 
HETATM    2  C2  UNL     1      24.190   2.648  51.394  1.00  0.00     0.172 C 
HETATM    3  C3  UNL     1      23.328   2.333  50.236  1.00  0.00     0.062 C 
HETATM    4  C4  UNL     1      21.913   2.060  50.264  1.00  0.00     0.116 C 
HETATM    5  N2  UNL     1      20.972   2.788  51.006  1.00  0.00    -0.418 N 
HETATM    6  C5  UNL     1      20.841   2.657  52.361  1.00  0.00     0.143 C 
HETATM    7  C6  UNL     1      20.152   1.453  52.896  1.00  0.00     0.026 C 
HETATM    8  C7  UNL     1      20.689   0.459  53.565  1.00  0.00     0.088 A 
HETATM    9  N3  UNL     1      20.185  -0.728  54.153  1.00  0.00    -0.274 N 
HETATM   10  N4  UNL     1      20.995  -1.707  54.688  1.00  0.00    -0.168 NA
HETATM   11  C8  UNL     1      22.283  -1.652  54.713  1.00  0.00     0.256 A 
HETATM   12  N5  UNL     1      22.892  -0.463  54.124  1.00  0.00    -0.226 NA
HETATM   13  C9  UNL     1      22.132   0.486  53.604  1.00  0.00     0.133 A 
HETATM   14  N6  UNL     1      23.334   1.118  53.200  1.00  0.00    -0.265 NA
HETATM   15  C10 UNL     1      24.361   1.628  52.465  1.00  0.00     0.122 C 
HETATM   16  H10 UNL     1      20.110   3.102  50.522  1.00  0.00     0.153 HD
HETATM   17  H14 UNL     1      19.130  -0.739  54.115  1.00  0.00     0.189 HD
HETATM   18  H16 UNL     1      22.899   0.929  52.225  1.00  0.00     0.130 HD
ENDROOT
BRANCH   2  19
HETATM   19  N1  UNL     1      25.599   2.862  50.935  1.00  0.00     0.089 N 
HETATM   20  H4  UNL     1      25.495   2.957  49.907  1.00  0.00     0.313 HD
HETATM   21  H5  UNL     1      26.051   1.927  51.143  1.00  0.00     0.313 HD
ENDBRANCH   2  19
BRANCH  15  22
HETATM   22  C11 UNL     1      25.454   2.225  53.375  1.00  0.00    -0.006 C 
HETATM   23  C12 UNL     1      26.341   1.567  54.103  1.00  0.00     0.002 C 
BRANCH  23  24
HETATM   24  C13 UNL     1      26.596   0.145  54.304  1.00  0.00     0.249 C 
HETATM   25  F1  UNL     1      25.833  -0.284  55.398  1.00  0.00    -0.251 F 
ENDBRANCH  23  24
ENDBRANCH  15  22
TORSDOF 3
ENDMDL
MODEL 3
REMARK VINA RESULT:      -6.7      2.749      4.639
REMARK  3 active torsions:
REMARK  status: ('A' for Active; 'I' for Inactive)
REMARK    1  A    between atoms: C2_2  and  N1_3 
REMARK    2  A    between atoms: C10_16  and  C11_17 
REMARK    3  A    between atoms: C12_18  and  C13_19 
ROOT
HETATM    1  C1  UNL     1      21.661   3.151  51.642  1.00  0.00     0.051 C 
HETATM    2  C2  UNL     1      22.342   2.292  50.575  1.00  0.00     0.172 C 
HETATM    3  C3  UNL     1      21.559   1.048  50.431  1.00  0.00     0.062 C 
HETATM    4  C4  UNL     1      21.436  -0.010  51.403  1.00  0.00     0.116 C 
HETATM    5  N2  UNL     1      21.230   0.184  52.775  1.00  0.00    -0.418 N 
HETATM    6  C5  UNL     1      22.224   0.598  53.619  1.00  0.00     0.143 C 
HETATM    7  C6  UNL     1      23.258  -0.386  54.036  1.00  0.00     0.026 C 
HETATM    8  C7  UNL     1      24.527  -0.402  53.695  1.00  0.00     0.088 A 
HETATM    9  N3  UNL     1      25.628  -1.234  54.012  1.00  0.00    -0.274 N 
HETATM   10  N4  UNL     1      26.857  -1.125  53.396  1.00  0.00    -0.168 NA
HETATM   11  C8  UNL     1      27.136  -0.266  52.476  1.00  0.00     0.256 A 
HETATM   12  N5  UNL     1      26.056   0.634  52.082  1.00  0.00    -0.226 NA
HETATM   13  C9  UNL     1      24.870   0.544  52.659  1.00  0.00     0.133 A 
HETATM   14  N6  UNL     1      24.438   1.538  51.747  1.00  0.00    -0.265 NA
HETATM   15  C10 UNL     1      23.820   2.201  50.730  1.00  0.00     0.122 C 
HETATM   16  H10 UNL     1      20.480  -0.365  53.237  1.00  0.00     0.153 HD
HETATM   17  H14 UNL     1      25.364  -1.925  54.766  1.00  0.00     0.189 HD
HETATM   18  H16 UNL     1      23.794   0.723  51.437  1.00  0.00     0.130 HD
ENDROOT
BRANCH   2  19
HETATM   19  N1  UNL     1      22.207   3.124  49.337  1.00  0.00     0.089 N 
HETATM   20  H4  UNL     1      21.421   2.665  48.836  1.00  0.00     0.313 HD
HETATM   21  H5  UNL     1      23.106   2.911  48.821  1.00  0.00     0.313 HD
ENDBRANCH   2  19
BRANCH  15  22
HETATM   22  C11 UNL     1      24.293   3.667  50.653  1.00  0.00    -0.006 C 
HETATM   23  C12 UNL     1      25.452   4.115  50.200  1.00  0.00     0.002 C 
BRANCH  23  24
HETATM   24  C13 UNL     1      26.624   3.444  49.648  1.00  0.00     0.249 C 
HETATM   25  F1  UNL     1      27.199   4.290  48.691  1.00  0.00    -0.251 F 
ENDBRANCH  23  24
ENDBRANCH  15  22
TORSDOF 3
ENDMDL
MODEL 4
REMARK VINA RESULT:      -6.6      2.448      4.228
REMARK  3 active torsions:
REMARK  status: ('A' for Active; 'I' for Inactive)
REMARK    1  A    between atoms: C2_2  and  N1_3 
REMARK    2  A    between atoms: C10_16  and  C11_17 
REMARK    3  A    between atoms: C12_18  and  C13_19 
ROOT
HETATM    1  C1  UNL     1      24.397   2.566  50.333  1.00  0.00     0.051 C 
HETATM    2  C2  UNL     1      23.201   2.929  51.215  1.00  0.00     0.172 C 
HETATM    3  C3  UNL     1      23.708   3.713  52.359  1.00  0.00     0.062 C 
HETATM    4  C4  UNL     1      24.533   3.229  53.438  1.00  0.00     0.116 C 
HETATM    5  N2  UNL     1      25.643   2.388  53.281  1.00  0.00    -0.418 N 
HETATM    6  C5  UNL     1      25.524   1.052  53.013  1.00  0.00     0.143 C 
HETATM    7  C6  UNL     1      25.139   0.137  54.120  1.00  0.00     0.026 C 
HETATM    8  C7  UNL     1      24.006  -0.514  54.259  1.00  0.00     0.088 A 
HETATM    9  N3  UNL     1      23.496  -1.422  55.219  1.00  0.00    -0.274 N 
HETATM   10  N4  UNL     1      22.190  -1.865  55.218  1.00  0.00    -0.168 NA
HETATM   11  C8  UNL     1      21.301  -1.506  54.356  1.00  0.00     0.256 A 
HETATM   12  N5  UNL     1      21.738  -0.565  53.328  1.00  0.00    -0.226 NA
HETATM   13  C9  UNL     1      22.986  -0.128  53.313  1.00  0.00     0.133 A 
HETATM   14  N6  UNL     1      22.596   0.712  52.241  1.00  0.00    -0.265 NA
HETATM   15  C10 UNL     1      22.277   1.790  51.472  1.00  0.00     0.122 C 
HETATM   16  H10 UNL     1      26.523   2.649  53.764  1.00  0.00     0.153 HD
HETATM   17  H14 UNL     1      24.249  -1.693  55.907  1.00  0.00     0.189 HD
HETATM   18  H16 UNL     1      22.866   1.469  52.967  1.00  0.00     0.130 HD
ENDROOT
BRANCH   2  19
HETATM   19  N1  UNL     1      22.379   3.806  50.322  1.00  0.00     0.089 N 
HETATM   20  H4  UNL     1      21.713   4.249  50.984  1.00  0.00     0.313 HD
HETATM   21  H5  UNL     1      21.852   3.101  49.733  1.00  0.00     0.313 HD
ENDBRANCH   2  19
BRANCH  15  22
HETATM   22  C11 UNL     1      21.822   1.356  50.064  1.00  0.00    -0.006 C 
HETATM   23  C12 UNL     1      20.597   1.037  49.678  1.00  0.00     0.002 C 
BRANCH  23  24
HETATM   24  C13 UNL     1      19.322   0.981  50.383  1.00  0.00     0.249 C 
HETATM   25  F1  UNL     1      19.339  -0.136  51.228  1.00  0.00    -0.251 F 
ENDBRANCH  23  24
ENDBRANCH  15  22
TORSDOF 3
ENDMDL
MODEL 5
REMARK VINA RESULT:      -6.4      1.802      4.839
REMARK  3 active torsions:
REMARK  status: ('A' for Active; 'I' for Inactive)
REMARK    1  A    between atoms: C2_2  and  N1_3 
REMARK    2  A    between atoms: C10_16  and  C11_17 
REMARK    3  A    between atoms: C12_18  and  C13_19 
ROOT
HETATM    1  C1  UNL     1      25.631   2.281  53.527  1.00  0.00     0.051 C 
HETATM    2  C2  UNL     1      25.110   1.467  52.341  1.00  0.00     0.172 C 
HETATM    3  C3  UNL     1      25.353   2.254  51.114  1.00  0.00     0.062 C 
HETATM    4  C4  UNL     1      24.700   3.483  50.736  1.00  0.00     0.116 C 
HETATM    5  N2  UNL     1      24.453   4.557  51.602  1.00  0.00    -0.418 N 
HETATM    6  C5  UNL     1      23.460   4.531  52.543  1.00  0.00     0.143 C 
HETATM    7  C6  UNL     1      22.054   4.722  52.099  1.00  0.00     0.026 C 
HETATM    8  C7  UNL     1      21.094   3.826  52.088  1.00  0.00     0.088 A 
HETATM    9  N3  UNL     1      19.724   3.845  51.726  1.00  0.00    -0.274 N 
HETATM   10  N4  UNL     1      18.944   2.710  51.667  1.00  0.00    -0.168 NA
HETATM   11  C8  UNL     1      19.368   1.522  51.930  1.00  0.00     0.256 A 
HETATM   12  N5  UNL     1      20.773   1.405  52.310  1.00  0.00    -0.226 NA
HETATM   13  C9  UNL     1      21.538   2.482  52.371  1.00  0.00     0.133 A 
HETATM   14  N6  UNL     1      22.616   1.605  52.647  1.00  0.00    -0.265 NA
HETATM   15  C10 UNL     1      23.763   0.875  52.564  1.00  0.00     0.122 C 
HETATM   16  H10 UNL     1      24.714   5.509  51.283  1.00  0.00     0.153 HD
HETATM   17  H14 UNL     1      19.411   4.833  51.517  1.00  0.00     0.189 HD
HETATM   18  H16 UNL     1      22.964   2.021  51.709  1.00  0.00     0.130 HD
ENDROOT
BRANCH   2  19
HETATM   19  N1  UNL     1      25.992   0.257  52.350  1.00  0.00     0.089 N 
HETATM   20  H4  UNL     1      26.519   0.362  53.238  1.00  0.00     0.313 HD
HETATM   21  H5  UNL     1      26.648   0.447  51.542  1.00  0.00     0.313 HD
ENDBRANCH   2  19
BRANCH  15  22
HETATM   22  C11 UNL     1      23.949  -0.013  53.811  1.00  0.00    -0.006 C 
HETATM   23  C12 UNL     1      23.138  -0.960  54.252  1.00  0.00     0.002 C 
BRANCH  23  24
HETATM   24  C13 UNL     1      21.865  -1.479  53.763  1.00  0.00     0.249 C 
HETATM   25  F1  UNL     1      20.860  -1.071  54.649  1.00  0.00    -0.251 F 
ENDBRANCH  23  24
ENDBRANCH  15  22
TORSDOF 3
ENDMDL
MODEL 6
REMARK VINA RESULT:      -6.3      8.100     10.989
REMARK  3 active torsions:
REMARK  status: ('A' for Active; 'I' for Inactive)
REMARK    1  A    between atoms: C2_2  and  N1_3 
REMARK    2  A    between atoms: C10_16  and  C11_17 
REMARK    3  A    between atoms: C12_18  and  C13_19 
ROOT
HETATM    1  C1  UNL     1      34.696   6.451  47.945  1.00  0.00     0.051 C 
HETATM    2  C2  UNL     1      33.806   6.044  46.769  1.00  0.00     0.172 C 
HETATM    3  C3  UNL     1      33.541   7.255  45.966  1.00  0.00     0.062 C 
HETATM    4  C4  UNL     1      32.743   8.391  46.357  1.00  0.00     0.116 C 
HETATM    5  N2  UNL     1      32.790   9.007  47.615  1.00  0.00    -0.418 N 
HETATM    6  C5  UNL     1      32.221   8.453  48.729  1.00  0.00     0.143 C 
HETATM    7  C6  UNL     1      30.744   8.524  48.883  1.00  0.00     0.026 C 
HETATM    8  C7  UNL     1      29.888   7.530  48.819  1.00  0.00     0.088 A 
HETATM    9  N3  UNL     1      28.482   7.422  48.962  1.00  0.00    -0.274 N 
HETATM   10  N4  UNL     1      27.785   6.261  48.700  1.00  0.00    -0.168 NA
HETATM   11  C8  UNL     1      28.327   5.162  48.301  1.00  0.00     0.256 A 
HETATM   12  N5  UNL     1      29.776   5.181  48.123  1.00  0.00    -0.226 NA
HETATM   13  C9  UNL     1      30.462   6.285  48.367  1.00  0.00     0.133 A 
HETATM   14  N6  UNL     1      31.602   5.588  47.894  1.00  0.00    -0.265 NA
HETATM   15  C10 UNL     1      32.665   5.169  47.154  1.00  0.00     0.122 C 
HETATM   16  H10 UNL     1      32.872  10.041  47.647  1.00  0.00     0.153 HD
HETATM   17  H14 UNL     1      28.073   8.339  49.288  1.00  0.00     0.189 HD
HETATM   18  H16 UNL     1      31.558   6.376  47.152  1.00  0.00     0.130 HD
ENDROOT
BRANCH   2  19
HETATM   19  N1  UNL     1      34.678   5.103  45.997  1.00  0.00     0.089 N 
HETATM   20  H4  UNL     1      34.481   4.187  46.443  1.00  0.00     0.313 HD
HETATM   21  H5  UNL     1      35.651   5.413  46.277  1.00  0.00     0.313 HD
ENDBRANCH   2  19
BRANCH  15  22
HETATM   22  C11 UNL     1      33.340   3.939  47.795  1.00  0.00    -0.006 C 
HETATM   23  C12 UNL     1      33.071   2.665  47.566  1.00  0.00     0.002 C 
BRANCH  23  24
HETATM   24  C13 UNL     1      32.113   1.997  46.693  1.00  0.00     0.249 C 
HETATM   25  F1  UNL     1      32.426   0.632  46.665  1.00  0.00    -0.251 F 
ENDBRANCH  23  24
ENDBRANCH  15  22
TORSDOF 3
ENDMDL
MODEL 7
REMARK VINA RESULT:      -6.3      2.849      4.012
REMARK  3 active torsions:
REMARK  status: ('A' for Active; 'I' for Inactive)
REMARK    1  A    between atoms: C2_2  and  N1_3 
REMARK    2  A    between atoms: C10_16  and  C11_17 
REMARK    3  A    between atoms: C12_18  and  C13_19 
ROOT
HETATM    1  C1  UNL     1      19.990   2.169  50.005  1.00  0.00     0.051 C 
HETATM    2  C2  UNL     1      19.623   2.365  51.476  1.00  0.00     0.172 C 
HETATM    3  C3  UNL     1      20.367   3.541  51.973  1.00  0.00     0.062 C 
HETATM    4  C4  UNL     1      21.792   3.638  52.172  1.00  0.00     0.116 C 
HETATM    5  N2  UNL     1      22.759   3.170  51.272  1.00  0.00    -0.418 N 
HETATM    6  C5  UNL     1      23.052   1.841  51.130  1.00  0.00     0.143 C 
HETATM    7  C6  UNL     1      23.877   1.179  52.175  1.00  0.00     0.026 C 
HETATM    8  C7  UNL     1      23.487   0.273  53.042  1.00  0.00     0.088 A 
HETATM    9  N3  UNL     1      24.133  -0.461  54.067  1.00  0.00    -0.274 N 
HETATM   10  N4  UNL     1      23.457  -1.268  54.958  1.00  0.00    -0.168 NA
HETATM   11  C8  UNL     1      22.180  -1.442  54.957  1.00  0.00     0.256 A 
HETATM   12  N5  UNL     1      21.429  -0.719  53.934  1.00  0.00    -0.226 NA
HETATM   13  C9  UNL     1      22.059   0.061  53.072  1.00  0.00     0.133 A 
HETATM   14  N6  UNL     1      20.779   0.424  52.585  1.00  0.00    -0.265 NA
HETATM   15  C10 UNL     1      19.643   1.108  52.274  1.00  0.00     0.122 C 
HETATM   16  H10 UNL     1      23.537   3.808  51.020  1.00  0.00     0.153 HD
HETATM   17  H14 UNL     1      25.176  -0.295  54.039  1.00  0.00     0.189 HD
HETATM   18  H16 UNL     1      21.113   1.392  52.941  1.00  0.00     0.130 HD
ENDROOT
BRANCH   2  19
HETATM   19  N1  UNL     1      18.159   2.677  51.419  1.00  0.00     0.089 N 
HETATM   20  H4  UNL     1      18.000   3.199  52.302  1.00  0.00     0.313 HD
HETATM   21  H5  UNL     1      17.719   1.719  51.508  1.00  0.00     0.313 HD
ENDBRANCH   2  19
BRANCH  15  22
HETATM   22  C11 UNL     1      18.623   0.198  51.560  1.00  0.00    -0.006 C 
HETATM   23  C12 UNL     1      17.887  -0.760  52.098  1.00  0.00     0.002 C 
BRANCH  23  24
HETATM   24  C13 UNL     1      17.774  -1.276  53.457  1.00  0.00     0.249 C 
HETATM   25  F1  UNL     1      18.668  -2.347  53.593  1.00  0.00    -0.251 F 
ENDBRANCH  23  24
ENDBRANCH  15  22
TORSDOF 3
ENDMDL
MODEL 8
REMARK VINA RESULT:      -6.3      2.240      4.349
REMARK  3 active torsions:
REMARK  status: ('A' for Active; 'I' for Inactive)
REMARK    1  A    between atoms: C2_2  and  N1_3 
REMARK    2  A    between atoms: C10_16  and  C11_17 
REMARK    3  A    between atoms: C12_18  and  C13_19 
ROOT
HETATM    1  C1  UNL     1      22.098  -1.683  53.202  1.00  0.00     0.051 C 
HETATM    2  C2  UNL     1      22.422  -0.399  53.968  1.00  0.00     0.172 C 
HETATM    3  C3  UNL     1      21.180   0.396  54.057  1.00  0.00     0.062 C 
HETATM    4  C4  UNL     1      20.497   1.052  52.969  1.00  0.00     0.116 C 
HETATM    5  N2  UNL     1      20.265   0.482  51.711  1.00  0.00    -0.418 N 
HETATM    6  C5  UNL     1      21.249   0.344  50.770  1.00  0.00     0.143 C 
HETATM    7  C6  UNL     1      21.681   1.548  50.012  1.00  0.00     0.026 C 
HETATM    8  C7  UNL     1      22.833   2.173  50.098  1.00  0.00     0.088 A 
HETATM    9  N3  UNL     1      23.403   3.295  49.448  1.00  0.00    -0.274 N 
HETATM   10  N4  UNL     1      24.604   3.857  49.828  1.00  0.00    -0.168 NA
HETATM   11  C8  UNL     1      25.330   3.430  50.803  1.00  0.00     0.256 A 
HETATM   12  N5  UNL     1      24.818   2.275  51.535  1.00  0.00    -0.226 NA
HETATM   13  C9  UNL     1      23.668   1.723  51.188  1.00  0.00     0.133 A 
HETATM   14  N6  UNL     1      23.823   0.877  52.313  1.00  0.00    -0.265 NA
HETATM   15  C10 UNL     1      23.675   0.267  53.522  1.00  0.00     0.122 C 
HETATM   16  H10 UNL     1      19.306   0.543  51.318  1.00  0.00     0.153 HD
HETATM   17  H14 UNL     1      22.783   3.618  48.657  1.00  0.00     0.189 HD
HETATM   18  H16 UNL     1      22.916   1.392  52.605  1.00  0.00     0.130 HD
ENDROOT
BRANCH   2  19
HETATM   19  N1  UNL     1      22.799  -0.904  55.326  1.00  0.00     0.089 N 
HETATM   20  H4  UNL     1      22.797  -1.934  55.199  1.00  0.00     0.313 HD
HETATM   21  H5  UNL     1      21.960  -0.634  55.911  1.00  0.00     0.313 HD
ENDBRANCH   2  19
BRANCH  15  22
HETATM   22  C11 UNL     1      24.764  -0.804  53.742  1.00  0.00    -0.006 C 
HETATM   23  C12 UNL     1      26.000  -0.616  54.174  1.00  0.00     0.002 C 
BRANCH  23  24
HETATM   24  C13 UNL     1      26.738   0.577  54.572  1.00  0.00     0.249 C 
HETATM   25  F1  UNL     1      27.994   0.174  55.045  1.00  0.00    -0.251 F 
ENDBRANCH  23  24
ENDBRANCH  15  22
TORSDOF 3
ENDMDL
MODEL 9
REMARK VINA RESULT:      -6.3      2.429      4.837
REMARK  3 active torsions:
REMARK  status: ('A' for Active; 'I' for Inactive)
REMARK    1  A    between atoms: C2_2  and  N1_3 
REMARK    2  A    between atoms: C10_16  and  C11_17 
REMARK    3  A    between atoms: C12_18  and  C13_19 
ROOT
HETATM    1  C1  UNL     1      25.246   2.727  53.547  1.00  0.00     0.051 C 
HETATM    2  C2  UNL     1      25.288   1.453  52.701  1.00  0.00     0.172 C 
HETATM    3  C3  UNL     1      26.454   1.550  51.800  1.00  0.00     0.062 C 
HETATM    4  C4  UNL     1      26.613   2.458  50.691  1.00  0.00     0.116 C 
HETATM    5  N2  UNL     1      26.283   3.820  50.718  1.00  0.00    -0.418 N 
HETATM    6  C5  UNL     1      24.991   4.267  50.665  1.00  0.00     0.143 C 
HETATM    7  C6  UNL     1      24.285   4.247  49.357  1.00  0.00     0.026 C 
HETATM    8  C7  UNL     1      23.284   3.473  49.004  1.00  0.00     0.088 A 
HETATM    9  N3  UNL     1      22.498   3.341  47.832  1.00  0.00    -0.274 N 
HETATM   10  N4  UNL     1      21.577   2.330  47.653  1.00  0.00    -0.168 NA
HETATM   11  C8  UNL     1      21.333   1.407  48.518  1.00  0.00     0.256 A 
HETATM   12  N5  UNL     1      22.101   1.462  49.758  1.00  0.00    -0.226 NA
HETATM   13  C9  UNL     1      22.990   2.422  49.949  1.00  0.00     0.133 A 
HETATM   14  N6  UNL     1      23.323   1.766  51.160  1.00  0.00    -0.265 NA
HETATM   15  C10 UNL     1      23.967   1.065  52.134  1.00  0.00     0.122 C 
HETATM   16  H10 UNL     1      26.984   4.497  50.362  1.00  0.00     0.153 HD
HETATM   17  H14 UNL     1      22.725   4.112  47.147  1.00  0.00     0.189 HD
HETATM   18  H16 UNL     1      24.272   1.675  50.644  1.00  0.00     0.130 HD
ENDROOT
BRANCH   2  19
HETATM   19  N1  UNL     1      25.521   0.380  53.719  1.00  0.00     0.089 N 
HETATM   20  H4  UNL     1      25.200   0.825  54.601  1.00  0.00     0.313 HD
HETATM   21  H5  UNL     1      26.576   0.312  53.740  1.00  0.00     0.313 HD
ENDBRANCH   2  19
BRANCH  15  22
HETATM   22  C11 UNL     1      23.069   0.882  53.375  1.00  0.00    -0.006 C 
HETATM   23  C12 UNL     1      21.917   0.236  53.445  1.00  0.00     0.002 C 
BRANCH  23  24
HETATM   24  C13 UNL     1      21.127  -0.487  52.455  1.00  0.00     0.249 C 
HETATM   25  F1  UNL     1      20.140   0.380  51.968  1.00  0.00    -0.251 F 
ENDBRANCH  23  24
ENDBRANCH  15  22
TORSDOF 3
ENDMDL
