MODEL 1
REMARK VINA RESULT:      -6.8      0.000      0.000
REMARK  8 active torsions:
REMARK  status: ('A' for Active; 'I' for Inactive)
REMARK    1  A    between atoms: C2_2  and  O1_3 
REMARK    2  A    between atoms: O1_3  and  C3_4 
REMARK    3  A    between atoms: C3_4  and  C4_6 
REMARK    4  A    between atoms: C4_6  and  C13_22 
REMARK    5  A    between atoms: C6_8  and  C7_9 
REMARK    6  A    between atoms: C8_10  and  N1_11 
REMARK    7  A    between atoms: N1_11  and  S1_12 
REMARK    8  A    between atoms: S1_12  and  C9_15 
ROOT
HETATM    1  N1  UNL     1      26.820   3.037  51.791  1.00  0.00    -0.297 N 
HETATM    2  H7  UNL     1      27.337   3.785  52.342  1.00  0.00     0.173 HD
ENDROOT
BRANCH   1   3
HETATM    3  C8  UNL     1      26.520   1.694  51.700  1.00  0.00     0.104 A 
HETATM    4  C7  UNL     1      26.619   0.601  51.971  1.00  0.00    -0.035 A 
HETATM    5  C13 UNL     1      27.539   1.195  52.804  1.00  0.00     0.077 A 
BRANCH   4   6
HETATM    6  C6  UNL     1      26.726  -0.401  52.236  1.00  0.00    -0.048 A 
HETATM    7  C5  UNL     1      26.829  -1.511  52.547  1.00  0.00     0.049 A 
HETATM    8  C4  UNL     1      25.897  -0.496  53.283  1.00  0.00     0.090 A 
BRANCH   8   9
HETATM    9  C3  UNL     1      25.016  -0.854  54.498  1.00  0.00     0.273 C 
HETATM   10  O2  UNL     1      25.206  -1.186  55.658  1.00  0.00    -0.264 OA
BRANCH   9  11
HETATM   11  O1  UNL     1      23.676  -0.890  54.576  1.00  0.00    -0.321 OA
BRANCH  11  12
HETATM   12  C2  UNL     1      22.931  -0.066  53.691  1.00  0.00     0.174 C 
HETATM   13  C1  UNL     1      21.686  -0.761  53.248  1.00  0.00     0.034 C 
ENDBRANCH  11  12
ENDBRANCH   9  11
ENDBRANCH   8   9
ENDBRANCH   4   6
ENDBRANCH   1   3
BRANCH   1  14
HETATM   14  S1  UNL     1      25.917   3.519  50.375  1.00  0.00     0.266 S 
HETATM   15  O3  UNL     1      26.536   3.002  49.125  1.00  0.00    -0.200 OA
HETATM   16  O4  UNL     1      25.952   5.041  50.282  1.00  0.00    -0.200 OA
BRANCH  14  17
HETATM   17  C9  UNL     1      24.277   3.066  50.621  1.00  0.00     0.122 A 
HETATM   18  C10 UNL     1      23.341   2.324  50.015  1.00  0.00     0.054 A 
HETATM   19  C11 UNL     1      22.086   2.147  50.472  1.00  0.00     0.041 A 
HETATM   20 BR1  UNL     1      20.762   1.088  49.598  1.00  0.00    -0.049 Br
HETATM   21  C12 UNL     1      21.847   2.853  51.703  1.00  0.00     0.093 A 
HETATM   22 CL1  UNL     1      20.173   2.770  52.545  1.00  0.00    -0.075 Cl
HETATM   23  S2  UNL     1      23.413   3.685  52.082  1.00  0.00    -0.063 SA
ENDBRANCH  14  17
ENDBRANCH   1  14
TORSDOF 8
ENDMDL
MODEL 2
REMARK VINA RESULT:      -6.7      4.116      5.043
REMARK  8 active torsions:
REMARK  status: ('A' for Active; 'I' for Inactive)
REMARK    1  A    between atoms: C2_2  and  O1_3 
REMARK    2  A    between atoms: O1_3  and  C3_4 
REMARK    3  A    between atoms: C3_4  and  C4_6 
REMARK    4  A    between atoms: C4_6  and  C13_22 
REMARK    5  A    between atoms: C6_8  and  C7_9 
REMARK    6  A    between atoms: C8_10  and  N1_11 
REMARK    7  A    between atoms: N1_11  and  S1_12 
REMARK    8  A    between atoms: S1_12  and  C9_15 
ROOT
HETATM    1  N1  UNL     1      25.153   3.886  51.531  1.00  0.00    -0.297 N 
HETATM    2  H7  UNL     1      25.190   4.830  52.019  1.00  0.00     0.173 HD
ENDROOT
BRANCH   1   3
HETATM    3  C8  UNL     1      24.864   2.544  51.670  1.00  0.00     0.104 A 
HETATM    4  C7  UNL     1      24.462   1.633  52.204  1.00  0.00    -0.035 A 
HETATM    5  C13 UNL     1      24.205   2.639  53.107  1.00  0.00     0.077 A 
BRANCH   4   6
HETATM    6  C6  UNL     1      24.085   0.805  52.713  1.00  0.00    -0.048 A 
HETATM    7  C5  UNL     1      23.689  -0.117  53.288  1.00  0.00     0.049 A 
HETATM    8  C4  UNL     1      25.152   0.413  53.421  1.00  0.00     0.090 A 
BRANCH   8   9
HETATM    9  C3  UNL     1      26.225  -0.228  54.325  1.00  0.00     0.273 C 
HETATM   10  O2  UNL     1      26.368  -0.423  55.522  1.00  0.00    -0.264 OA
BRANCH   9  11
HETATM   11  O1  UNL     1      27.392  -0.790  53.968  1.00  0.00    -0.321 OA
BRANCH  11  12
HETATM   12  C2  UNL     1      28.594  -0.190  54.433  1.00  0.00     0.174 C 
HETATM   13  C1  UNL     1      29.762  -0.673  53.640  1.00  0.00     0.034 C 
ENDBRANCH  11  12
ENDBRANCH   9  11
ENDBRANCH   8   9
ENDBRANCH   4   6
ENDBRANCH   1   3
BRANCH   1  14
HETATM   14  S1  UNL     1      25.615   3.797  49.849  1.00  0.00     0.266 S 
HETATM   15  O3  UNL     1      24.524   3.236  49.008  1.00  0.00    -0.200 OA
HETATM   16  O4  UNL     1      26.795   2.837  49.728  1.00  0.00    -0.200 OA
BRANCH  14  17
HETATM   17  C9  UNL     1      26.178   5.351  49.377  1.00  0.00     0.122 A 
HETATM   18  C10 UNL     1      27.082   5.878  48.541  1.00  0.00     0.054 A 
HETATM   19  C11 UNL     1      27.303   7.197  48.380  1.00  0.00     0.041 A 
HETATM   20 BR1  UNL     1      28.594   7.934  47.185  1.00  0.00    -0.049 Br
HETATM   21  C12 UNL     1      26.452   8.001  49.218  1.00  0.00     0.093 A 
HETATM   22 CL1  UNL     1      26.565   9.873  49.182  1.00  0.00    -0.075 Cl
HETATM   23  S2  UNL     1      25.436   6.813  50.136  1.00  0.00    -0.063 SA
ENDBRANCH  14  17
ENDBRANCH   1  14
TORSDOF 8
ENDMDL
MODEL 3
REMARK VINA RESULT:      -6.5      3.430      4.636
REMARK  8 active torsions:
REMARK  status: ('A' for Active; 'I' for Inactive)
REMARK    1  A    between atoms: C2_2  and  O1_3 
REMARK    2  A    between atoms: O1_3  and  C3_4 
REMARK    3  A    between atoms: C3_4  and  C4_6 
REMARK    4  A    between atoms: C4_6  and  C13_22 
REMARK    5  A    between atoms: C6_8  and  C7_9 
REMARK    6  A    between atoms: C8_10  and  N1_11 
REMARK    7  A    between atoms: N1_11  and  S1_12 
REMARK    8  A    between atoms: S1_12  and  C9_15 
ROOT
HETATM    1  N1  UNL     1      22.792   2.397  50.842  1.00  0.00    -0.297 N 
HETATM    2  H7  UNL     1      22.425   2.495  49.848  1.00  0.00     0.173 HD
ENDROOT
BRANCH   1   3
HETATM    3  C8  UNL     1      22.990   1.536  51.901  1.00  0.00     0.104 A 
HETATM    4  C7  UNL     1      22.779   0.623  52.533  1.00  0.00    -0.035 A 
HETATM    5  C13 UNL     1      21.834   0.517  51.538  1.00  0.00     0.077 A 
BRANCH   4   6
HETATM    6  C6  UNL     1      22.567  -0.223  53.103  1.00  0.00    -0.048 A 
HETATM    7  C5  UNL     1      22.355  -1.162  53.745  1.00  0.00     0.049 A 
HETATM    8  C4  UNL     1      23.728  -0.418  53.741  1.00  0.00     0.090 A 
BRANCH   8   9
HETATM    9  C3  UNL     1      24.946  -0.848  54.584  1.00  0.00     0.273 C 
HETATM   10  O2  UNL     1      25.142  -1.192  55.740  1.00  0.00    -0.264 OA
BRANCH   9  11
HETATM   11  O1  UNL     1      26.230  -0.958  54.203  1.00  0.00    -0.321 OA
BRANCH  11  12
HETATM   12  C2  UNL     1      26.500  -1.312  52.854  1.00  0.00     0.174 C 
HETATM   13  C1  UNL     1      26.725  -0.092  52.025  1.00  0.00     0.034 C 
ENDBRANCH  11  12
ENDBRANCH   9  11
ENDBRANCH   8   9
ENDBRANCH   4   6
ENDBRANCH   1   3
BRANCH   1  14
HETATM   14  S1  UNL     1      23.459   3.807  51.629  1.00  0.00     0.266 S 
HETATM   15  O3  UNL     1      23.949   3.492  52.997  1.00  0.00    -0.200 OA
HETATM   16  O4  UNL     1      22.344   4.835  51.791  1.00  0.00    -0.200 OA
BRANCH  14  17
HETATM   17  C9  UNL     1      24.628   4.492  50.571  1.00  0.00     0.122 A 
HETATM   18  C10 UNL     1      24.769   5.582  49.805  1.00  0.00     0.054 A 
HETATM   19  C11 UNL     1      25.854   5.859  49.055  1.00  0.00     0.041 A 
HETATM   20 BR1  UNL     1      26.041   7.415  47.967  1.00  0.00    -0.049 Br
HETATM   21  C12 UNL     1      26.867   4.843  49.163  1.00  0.00     0.093 A 
HETATM   22 CL1  UNL     1      28.478   4.994  48.213  1.00  0.00    -0.075 Cl
HETATM   23  S2  UNL     1      26.183   3.613  50.305  1.00  0.00    -0.063 SA
ENDBRANCH  14  17
ENDBRANCH   1  14
TORSDOF 8
ENDMDL
MODEL 4
REMARK VINA RESULT:      -6.4      3.372      5.027
REMARK  8 active torsions:
REMARK  status: ('A' for Active; 'I' for Inactive)
REMARK    1  A    between atoms: C2_2  and  O1_3 
REMARK    2  A    between atoms: O1_3  and  C3_4 
REMARK    3  A    between atoms: C3_4  and  C4_6 
REMARK    4  A    between atoms: C4_6  and  C13_22 
REMARK    5  A    between atoms: C6_8  and  C7_9 
REMARK    6  A    between atoms: C8_10  and  N1_11 
REMARK    7  A    between atoms: N1_11  and  S1_12 
REMARK    8  A    between atoms: S1_12  and  C9_15 
ROOT
HETATM    1  N1  UNL     1      25.297  -0.772  55.279  1.00  0.00    -0.297 N 
HETATM    2  H7  UNL     1      25.715  -0.818  56.255  1.00  0.00     0.173 HD
ENDROOT
BRANCH   1   3
HETATM    3  C8  UNL     1      24.137  -0.829  54.534  1.00  0.00     0.104 A 
HETATM    4  C7  UNL     1      23.042  -1.048  54.358  1.00  0.00    -0.035 A 
HETATM    5  C13 UNL     1      23.208  -1.418  55.673  1.00  0.00     0.077 A 
BRANCH   4   6
HETATM    6  C6  UNL     1      22.031  -1.257  54.216  1.00  0.00    -0.048 A 
HETATM    7  C5  UNL     1      20.906  -1.468  54.046  1.00  0.00     0.049 A 
HETATM    8  C4  UNL     1      21.620  -0.168  53.553  1.00  0.00     0.090 A 
BRANCH   8   9
HETATM    9  C3  UNL     1      20.911   0.971  52.791  1.00  0.00     0.273 C 
HETATM   10  O2  UNL     1      20.525   2.100  53.051  1.00  0.00    -0.264 OA
BRANCH   9  11
HETATM   11  O1  UNL     1      20.504   0.992  51.511  1.00  0.00    -0.321 OA
BRANCH  11  12
HETATM   12  C2  UNL     1      21.052   1.982  50.650  1.00  0.00     0.174 C 
HETATM   13  C1  UNL     1      22.332   1.505  50.050  1.00  0.00     0.034 C 
ENDBRANCH  11  12
ENDBRANCH   9  11
ENDBRANCH   8   9
ENDBRANCH   4   6
ENDBRANCH   1   3
BRANCH   1  14
HETATM   14  S1  UNL     1      26.370  -0.526  53.922  1.00  0.00     0.266 S 
HETATM   15  O3  UNL     1      26.475  -1.745  53.076  1.00  0.00    -0.200 OA
HETATM   16  O4  UNL     1      27.768  -0.250  54.464  1.00  0.00    -0.200 OA
BRANCH  14  17
HETATM   17  C9  UNL     1      25.857   0.894  53.100  1.00  0.00     0.122 A 
HETATM   18  C10 UNL     1      24.949   1.868  53.253  1.00  0.00     0.054 A 
HETATM   19  C11 UNL     1      24.778   2.899  52.404  1.00  0.00     0.041 A 
HETATM   20 BR1  UNL     1      23.481   4.279  52.634  1.00  0.00    -0.049 Br
HETATM   21  C12 UNL     1      25.687   2.847  51.290  1.00  0.00     0.093 A 
HETATM   22 CL1  UNL     1      25.650   4.171  49.961  1.00  0.00    -0.075 Cl
HETATM   23  S2  UNL     1      26.682   1.356  51.561  1.00  0.00    -0.063 SA
ENDBRANCH  14  17
ENDBRANCH   1  14
TORSDOF 8
ENDMDL
MODEL 5
REMARK VINA RESULT:      -6.3      4.056      5.101
REMARK  8 active torsions:
REMARK  status: ('A' for Active; 'I' for Inactive)
REMARK    1  A    between atoms: C2_2  and  O1_3 
REMARK    2  A    between atoms: O1_3  and  C3_4 
REMARK    3  A    between atoms: C3_4  and  C4_6 
REMARK    4  A    between atoms: C4_6  and  C13_22 
REMARK    5  A    between atoms: C6_8  and  C7_9 
REMARK    6  A    between atoms: C8_10  and  N1_11 
REMARK    7  A    between atoms: N1_11  and  S1_12 
REMARK    8  A    between atoms: S1_12  and  C9_15 
ROOT
HETATM    1  N1  UNL     1      24.430   4.057  51.887  1.00  0.00    -0.297 N 
HETATM    2  H7  UNL     1      24.573   4.918  52.495  1.00  0.00     0.173 HD
ENDROOT
BRANCH   1   3
HETATM    3  C8  UNL     1      24.407   2.678  51.853  1.00  0.00     0.104 A 
HETATM    4  C7  UNL     1      24.299   1.644  52.297  1.00  0.00    -0.035 A 
HETATM    5  C13 UNL     1      24.104   2.456  53.391  1.00  0.00     0.077 A 
BRANCH   4   6
HETATM    6  C6  UNL     1      24.196   0.700  52.726  1.00  0.00    -0.048 A 
HETATM    7  C5  UNL     1      24.104  -0.347  53.210  1.00  0.00     0.049 A 
HETATM    8  C4  UNL     1      25.414   0.504  53.247  1.00  0.00     0.090 A 
BRANCH   8   9
HETATM    9  C3  UNL     1      26.722   0.048  53.925  1.00  0.00     0.273 C 
HETATM   10  O2  UNL     1      27.420  -0.954  53.913  1.00  0.00    -0.264 OA
BRANCH   9  11
HETATM   11  O1  UNL     1      27.493   0.725  54.792  1.00  0.00    -0.321 OA
BRANCH  11  12
HETATM   12  C2  UNL     1      28.766   1.173  54.348  1.00  0.00     0.174 C 
HETATM   13  C1  UNL     1      28.636   2.447  53.581  1.00  0.00     0.034 C 
ENDBRANCH  11  12
ENDBRANCH   9  11
ENDBRANCH   8   9
ENDBRANCH   4   6
ENDBRANCH   1   3
BRANCH   1  14
HETATM   14  S1  UNL     1      24.064   4.283  50.193  1.00  0.00     0.266 S 
HETATM   15  O3  UNL     1      22.798   5.039  50.001  1.00  0.00    -0.200 OA
HETATM   16  O4  UNL     1      23.852   2.910  49.564  1.00  0.00    -0.200 OA
BRANCH  14  17
HETATM   17  C9  UNL     1      25.450   4.973  49.446  1.00  0.00     0.122 A 
HETATM   18  C10 UNL     1      25.797   6.116  48.840  1.00  0.00     0.054 A 
HETATM   19  C11 UNL     1      27.018   6.377  48.334  1.00  0.00     0.041 A 
HETATM   20 BR1  UNL     1      27.499   8.010  47.474  1.00  0.00    -0.049 Br
HETATM   21  C12 UNL     1      27.931   5.279  48.512  1.00  0.00     0.093 A 
HETATM   22 CL1  UNL     1      29.698   5.392  47.892  1.00  0.00    -0.075 Cl
HETATM   23  S2  UNL     1      26.972   4.003  49.371  1.00  0.00    -0.063 SA
ENDBRANCH  14  17
ENDBRANCH   1  14
TORSDOF 8
ENDMDL
MODEL 6
REMARK VINA RESULT:      -6.2      2.325      3.347
REMARK  8 active torsions:
REMARK  status: ('A' for Active; 'I' for Inactive)
REMARK    1  A    between atoms: C2_2  and  O1_3 
REMARK    2  A    between atoms: O1_3  and  C3_4 
REMARK    3  A    between atoms: C3_4  and  C4_6 
REMARK    4  A    between atoms: C4_6  and  C13_22 
REMARK    5  A    between atoms: C6_8  and  C7_9 
REMARK    6  A    between atoms: C8_10  and  N1_11 
REMARK    7  A    between atoms: N1_11  and  S1_12 
REMARK    8  A    between atoms: S1_12  and  C9_15 
ROOT
HETATM    1  N1  UNL     1      24.673   3.757  51.867  1.00  0.00    -0.297 N 
HETATM    2  H7  UNL     1      24.998   4.682  52.277  1.00  0.00     0.173 HD
ENDROOT
BRANCH   1   3
HETATM    3  C8  UNL     1      24.902   2.398  51.801  1.00  0.00     0.104 A 
HETATM    4  C7  UNL     1      25.541   1.466  51.797  1.00  0.00    -0.035 A 
HETATM    5  C13 UNL     1      26.478   2.464  51.941  1.00  0.00     0.077 A 
BRANCH   4   6
HETATM    6  C6  UNL     1      26.148   0.619  51.796  1.00  0.00    -0.048 A 
HETATM    7  C5  UNL     1      26.821  -0.322  51.818  1.00  0.00     0.049 A 
HETATM    8  C4  UNL     1      26.281   0.378  53.107  1.00  0.00     0.090 A 
BRANCH   8   9
HETATM    9  C3  UNL     1      26.581  -0.102  54.541  1.00  0.00     0.273 C 
HETATM   10  O2  UNL     1      25.930  -0.337  55.548  1.00  0.00    -0.264 OA
BRANCH   9  11
HETATM   11  O1  UNL     1      27.768  -0.412  55.087  1.00  0.00    -0.321 OA
BRANCH  11  12
HETATM   12  C2  UNL     1      28.915   0.304  54.647  1.00  0.00     0.174 C 
HETATM   13  C1  UNL     1      29.787  -0.568  53.807  1.00  0.00     0.034 C 
ENDBRANCH  11  12
ENDBRANCH   9  11
ENDBRANCH   8   9
ENDBRANCH   4   6
ENDBRANCH   1   3
BRANCH   1  14
HETATM   14  S1  UNL     1      23.282   3.756  50.810  1.00  0.00     0.266 S 
HETATM   15  O3  UNL     1      23.673   3.572  49.387  1.00  0.00    -0.200 OA
HETATM   16  O4  UNL     1      22.610   5.122  50.904  1.00  0.00    -0.200 OA
BRANCH  14  17
HETATM   17  C9  UNL     1      22.164   2.601  51.418  1.00  0.00     0.122 A 
HETATM   18  C10 UNL     1      21.951   1.909  52.545  1.00  0.00     0.054 A 
HETATM   19  C11 UNL     1      20.941   1.038  52.734  1.00  0.00     0.041 A 
HETATM   20 BR1  UNL     1      20.649   0.060  54.345  1.00  0.00    -0.049 Br
HETATM   21  C12 UNL     1      20.096   0.921  51.575  1.00  0.00     0.093 A 
HETATM   22 CL1  UNL     1      18.616  -0.232  51.581  1.00  0.00    -0.075 Cl
HETATM   23  S2  UNL     1      20.814   2.049  50.351  1.00  0.00    -0.063 SA
ENDBRANCH  14  17
ENDBRANCH   1  14
TORSDOF 8
ENDMDL
MODEL 7
REMARK VINA RESULT:      -6.1      4.879      7.719
REMARK  8 active torsions:
REMARK  status: ('A' for Active; 'I' for Inactive)
REMARK    1  A    between atoms: C2_2  and  O1_3 
REMARK    2  A    between atoms: O1_3  and  C3_4 
REMARK    3  A    between atoms: C3_4  and  C4_6 
REMARK    4  A    between atoms: C4_6  and  C13_22 
REMARK    5  A    between atoms: C6_8  and  C7_9 
REMARK    6  A    between atoms: C8_10  and  N1_11 
REMARK    7  A    between atoms: N1_11  and  S1_12 
REMARK    8  A    between atoms: S1_12  and  C9_15 
ROOT
HETATM    1  N1  UNL     1      26.315   3.926  50.292  1.00  0.00    -0.297 N 
HETATM    2  H7  UNL     1      26.983   3.199  50.686  1.00  0.00     0.173 HD
ENDROOT
BRANCH   1   3
HETATM    3  C8  UNL     1      26.205   5.108  49.589  1.00  0.00     0.104 A 
HETATM    4  C7  UNL     1      26.545   5.901  48.859  1.00  0.00    -0.035 A 
HETATM    5  C13 UNL     1      27.578   4.993  48.809  1.00  0.00     0.077 A 
BRANCH   4   6
HETATM    6  C6  UNL     1      26.877   6.621  48.183  1.00  0.00    -0.048 A 
HETATM    7  C5  UNL     1      27.250   7.435  47.450  1.00  0.00     0.049 A 
HETATM    8  C4  UNL     1      27.214   7.627  49.000  1.00  0.00     0.090 A 
BRANCH   8   9
HETATM    9  C3  UNL     1      27.668   8.912  49.723  1.00  0.00     0.273 C 
HETATM   10  O2  UNL     1      27.143   9.759  50.429  1.00  0.00    -0.264 OA
BRANCH   9  11
HETATM   11  O1  UNL     1      28.890   9.467  49.751  1.00  0.00    -0.321 OA
BRANCH  11  12
HETATM   12  C2  UNL     1      29.140  10.579  48.901  1.00  0.00     0.174 C 
HETATM   13  C1  UNL     1      30.546  11.054  49.058  1.00  0.00     0.034 C 
ENDBRANCH  11  12
ENDBRANCH   9  11
ENDBRANCH   8   9
ENDBRANCH   4   6
ENDBRANCH   1   3
BRANCH   1  14
HETATM   14  S1  UNL     1      24.599   3.704  50.537  1.00  0.00     0.266 S 
HETATM   15  O3  UNL     1      23.869   3.592  49.247  1.00  0.00    -0.200 OA
HETATM   16  O4  UNL     1      24.053   4.942  51.241  1.00  0.00    -0.200 OA
BRANCH  14  17
HETATM   17  C9  UNL     1      24.392   2.379  51.613  1.00  0.00     0.122 A 
HETATM   18  C10 UNL     1      23.431   1.514  51.963  1.00  0.00     0.054 A 
HETATM   19  C11 UNL     1      23.574   0.537  52.880  1.00  0.00     0.041 A 
HETATM   20 BR1  UNL     1      22.197  -0.689  53.369  1.00  0.00    -0.049 Br
HETATM   21  C12 UNL     1      24.892   0.517  53.458  1.00  0.00     0.093 A 
HETATM   22 CL1  UNL     1      25.345  -0.751  54.764  1.00  0.00    -0.075 Cl
HETATM   23  S2  UNL     1      25.782   1.873  52.650  1.00  0.00    -0.063 SA
ENDBRANCH  14  17
ENDBRANCH   1  14
TORSDOF 8
ENDMDL
MODEL 8
REMARK VINA RESULT:      -6.0      3.538      5.294
REMARK  8 active torsions:
REMARK  status: ('A' for Active; 'I' for Inactive)
REMARK    1  A    between atoms: C2_2  and  O1_3 
REMARK    2  A    between atoms: O1_3  and  C3_4 
REMARK    3  A    between atoms: C3_4  and  C4_6 
REMARK    4  A    between atoms: C4_6  and  C13_22 
REMARK    5  A    between atoms: C6_8  and  C7_9 
REMARK    6  A    between atoms: C8_10  and  N1_11 
REMARK    7  A    between atoms: N1_11  and  S1_12 
REMARK    8  A    between atoms: S1_12  and  C9_15 
ROOT
HETATM    1  N1  UNL     1      21.888   1.796  52.718  1.00  0.00    -0.297 N 
HETATM    2  H7  UNL     1      21.164   2.574  52.673  1.00  0.00     0.173 HD
ENDROOT
BRANCH   1   3
HETATM    3  C8  UNL     1      23.203   1.451  52.485  1.00  0.00     0.104 A 
HETATM    4  C7  UNL     1      24.238   1.593  52.055  1.00  0.00    -0.035 A 
HETATM    5  C13 UNL     1      23.579   2.715  51.608  1.00  0.00     0.077 A 
BRANCH   4   6
HETATM    6  C6  UNL     1      25.186   1.742  51.649  1.00  0.00    -0.048 A 
HETATM    7  C5  UNL     1      26.249   1.906  51.221  1.00  0.00     0.049 A 
HETATM    8  C4  UNL     1      25.951   1.770  52.749  1.00  0.00     0.090 A 
BRANCH   8   9
HETATM    9  C3  UNL     1      27.029   1.839  53.849  1.00  0.00     0.273 C 
HETATM   10  O2  UNL     1      27.848   2.660  54.232  1.00  0.00    -0.264 OA
BRANCH   9  11
HETATM   11  O1  UNL     1      27.362   0.902  54.753  1.00  0.00    -0.321 OA
BRANCH  11  12
HETATM   12  C2  UNL     1      28.720   0.487  54.819  1.00  0.00     0.174 C 
HETATM   13  C1  UNL     1      28.975  -0.628  53.861  1.00  0.00     0.034 C 
ENDBRANCH  11  12
ENDBRANCH   9  11
ENDBRANCH   8   9
ENDBRANCH   4   6
ENDBRANCH   1   3
BRANCH   1  14
HETATM   14  S1  UNL     1      21.393   0.228  53.309  1.00  0.00     0.266 S 
HETATM   15  O3  UNL     1      21.493   0.142  54.791  1.00  0.00    -0.200 OA
HETATM   16  O4  UNL     1      22.350  -0.818  52.746  1.00  0.00    -0.200 OA
BRANCH  14  17
HETATM   17  C9  UNL     1      19.838  -0.109  52.659  1.00  0.00     0.122 A 
HETATM   18  C10 UNL     1      19.099   0.239  51.597  1.00  0.00     0.054 A 
HETATM   19  C11 UNL     1      17.856  -0.215  51.344  1.00  0.00     0.041 A 
HETATM   20 BR1  UNL     1      16.815   0.290  49.828  1.00  0.00    -0.049 Br
HETATM   21  C12 UNL     1      17.391  -1.130  52.352  1.00  0.00     0.093 A 
HETATM   22 CL1  UNL     1      15.687  -1.904  52.231  1.00  0.00    -0.075 Cl
HETATM   23  S2  UNL     1      18.753  -1.252  53.543  1.00  0.00    -0.063 SA
ENDBRANCH  14  17
ENDBRANCH   1  14
TORSDOF 8
ENDMDL
MODEL 9
REMARK VINA RESULT:      -6.0      2.405      3.337
REMARK  8 active torsions:
REMARK  status: ('A' for Active; 'I' for Inactive)
REMARK    1  A    between atoms: C2_2  and  O1_3 
REMARK    2  A    between atoms: O1_3  and  C3_4 
REMARK    3  A    between atoms: C3_4  and  C4_6 
REMARK    4  A    between atoms: C4_6  and  C13_22 
REMARK    5  A    between atoms: C6_8  and  C7_9 
REMARK    6  A    between atoms: C8_10  and  N1_11 
REMARK    7  A    between atoms: N1_11  and  S1_12 
REMARK    8  A    between atoms: S1_12  and  C9_15 
ROOT
HETATM    1  N1  UNL     1      25.025   4.036  51.701  1.00  0.00    -0.297 N 
HETATM    2  H7  UNL     1      25.178   4.900  52.302  1.00  0.00     0.173 HD
ENDROOT
BRANCH   1   3
HETATM    3  C8  UNL     1      24.735   2.687  51.700  1.00  0.00     0.104 A 
HETATM    4  C7  UNL     1      24.349   1.722  52.144  1.00  0.00    -0.035 A 
HETATM    5  C13 UNL     1      24.131   2.622  53.162  1.00  0.00     0.077 A 
BRANCH   4   6
HETATM    6  C6  UNL     1      23.987   0.843  52.571  1.00  0.00    -0.048 A 
HETATM    7  C5  UNL     1      23.607  -0.136  53.056  1.00  0.00     0.049 A 
HETATM    8  C4  UNL     1      25.052   0.421  53.266  1.00  0.00     0.090 A 
BRANCH   8   9
HETATM    9  C3  UNL     1      26.125  -0.265  54.135  1.00  0.00     0.273 C 
HETATM   10  O2  UNL     1      26.295  -0.474  55.326  1.00  0.00    -0.264 OA
BRANCH   9  11
HETATM   11  O1  UNL     1      27.261  -0.865  53.741  1.00  0.00    -0.321 OA
BRANCH  11  12
HETATM   12  C2  UNL     1      28.497  -0.262  54.100  1.00  0.00     0.174 C 
HETATM   13  C1  UNL     1      29.643  -1.075  53.600  1.00  0.00     0.034 C 
ENDBRANCH  11  12
ENDBRANCH   9  11
ENDBRANCH   8   9
ENDBRANCH   4   6
ENDBRANCH   1   3
BRANCH   1  14
HETATM   14  S1  UNL     1      25.154   4.193  49.966  1.00  0.00     0.266 S 
HETATM   15  O3  UNL     1      25.946   3.084  49.370  1.00  0.00    -0.200 OA
HETATM   16  O4  UNL     1      25.909   5.482  49.658  1.00  0.00    -0.200 OA
BRANCH  14  17
HETATM   17  C9  UNL     1      23.564   4.377  49.338  1.00  0.00     0.122 A 
HETATM   18  C10 UNL     1      22.857   3.983  48.270  1.00  0.00     0.054 A 
HETATM   19  C11 UNL     1      21.567   4.300  48.044  1.00  0.00     0.041 A 
HETATM   20 BR1  UNL     1      20.571   3.732  46.520  1.00  0.00    -0.049 Br
HETATM   21  C12 UNL     1      21.015   5.124  49.087  1.00  0.00     0.093 A 
HETATM   22 CL1  UNL     1      19.233   5.703  49.006  1.00  0.00    -0.075 Cl
HETATM   23  S2  UNL     1      22.369   5.360  50.269  1.00  0.00    -0.063 SA
ENDBRANCH  14  17
ENDBRANCH   1  14
TORSDOF 8
ENDMDL
