MODEL 1
REMARK VINA RESULT:      -8.4      0.000      0.000
REMARK  5 active torsions:
REMARK  status: ('A' for Active; 'I' for Inactive)
REMARK    1  A    between atoms: O1_2  and  O2_3 
REMARK    2  A    between atoms: O2_3  and  O3_4 
REMARK    3  A    between atoms: O3_4  and  C2_5 
REMARK    4  A    between atoms: C13_17  and  N1_18 
REMARK    5  A    between atoms: N1_18  and  C14_19 
ROOT
HETATM    1  C2  UNL     1      22.555   2.189  51.182  1.00  0.00     0.193 C 
HETATM    2  C3  UNL     1      22.221   0.922  50.448  1.00  0.00     0.040 C 
HETATM    3  C4  UNL     1      21.182   1.036  49.426  1.00  0.00     0.003 C 
HETATM    4  C5  UNL     1      19.813   1.458  49.674  1.00  0.00     0.002 C 
HETATM    5  C6  UNL     1      18.821   0.686  50.442  1.00  0.00     0.027 C 
HETATM    6  C7  UNL     1      18.912   0.494  51.905  1.00  0.00     0.174 C 
HETATM    7  O4  UNL     1      19.983  -0.146  52.450  1.00  0.00    -0.363 OA
HETATM    8  C8  UNL     1      20.240  -0.647  53.681  1.00  0.00     0.130 C 
HETATM    9  C9  UNL     1      21.186   0.039  54.357  1.00  0.00    -0.002 C 
HETATM   10  C10 UNL     1      21.687   1.176  53.558  1.00  0.00     0.033 C 
HETATM   11  C11 UNL     1      23.098   0.913  53.116  1.00  0.00     0.042 C 
HETATM   12  C12 UNL     1      23.595   2.024  52.225  1.00  0.00    -0.033 C 
HETATM   13  C13 UNL     1      24.704   2.735  52.361  1.00  0.00     0.094 C 
ENDROOT
BRANCH   1  14
HETATM   14  O3  UNL     1      23.080   3.065  50.178  1.00  0.00    -0.201 OA
BRANCH  14  15
HETATM   15  O2  UNL     1      22.465   4.225  50.236  1.00  0.00    -0.067 OA
BRANCH  15  16
HETATM   16  O1  UNL     1      23.405   5.133  50.045  1.00  0.00    -0.216 OA
HETATM   17  C1  UNL     1      23.264   6.057  51.103  1.00  0.00     0.250 C 
ENDBRANCH  15  16
ENDBRANCH  14  15
ENDBRANCH   1  14
BRANCH  13  18
HETATM   18  N1  UNL     1      25.570   2.393  53.453  1.00  0.00    -0.363 N 
HETATM   19  H22 UNL     1      24.994   2.706  54.256  1.00  0.00     0.165 HD
BRANCH  18  20
HETATM   20  C14 UNL     1      26.860   1.796  53.538  1.00  0.00     0.076 A 
HETATM   21  C15 UNL     1      28.009   2.336  53.860  1.00  0.00     0.116 A 
HETATM   22  N2  UNL     1      29.006   1.523  53.783  1.00  0.00    -0.243 NA
HETATM   23  C16 UNL     1      28.478   0.251  53.422  1.00  0.00     0.070 A 
HETATM   24  C17 UNL     1      29.037  -0.997  53.221  1.00  0.00     0.032 A 
HETATM   25  C21 UNL     1      27.114   0.368  53.253  1.00  0.00     0.022 A 
HETATM   26  C18 UNL     1      28.305  -2.113  52.865  1.00  0.00     0.002 A 
HETATM   27  C19 UNL     1      26.938  -1.937  52.709  1.00  0.00     0.001 A 
HETATM   28  C20 UNL     1      26.338  -0.701  52.902  1.00  0.00     0.016 A 
ENDBRANCH  18  20
ENDBRANCH  13  18
TORSDOF 5
ENDMDL
MODEL 2
REMARK VINA RESULT:      -8.3      3.411      5.590
REMARK  5 active torsions:
REMARK  status: ('A' for Active; 'I' for Inactive)
REMARK    1  A    between atoms: O1_2  and  O2_3 
REMARK    2  A    between atoms: O2_3  and  O3_4 
REMARK    3  A    between atoms: O3_4  and  C2_5 
REMARK    4  A    between atoms: C13_17  and  N1_18 
REMARK    5  A    between atoms: N1_18  and  C14_19 
ROOT
HETATM    1  C2  UNL     1      22.160   1.961  52.065  1.00  0.00     0.193 C 
HETATM    2  C3  UNL     1      21.917   0.531  51.675  1.00  0.00     0.040 C 
HETATM    3  C4  UNL     1      20.807  -0.133  52.356  1.00  0.00     0.003 C 
HETATM    4  C5  UNL     1      20.708  -0.327  53.794  1.00  0.00     0.002 C 
HETATM    5  C6  UNL     1      21.580  -1.214  54.584  1.00  0.00     0.027 C 
HETATM    6  C7  UNL     1      23.008  -0.921  54.830  1.00  0.00     0.174 C 
HETATM    7  O4  UNL     1      23.881  -0.823  53.790  1.00  0.00    -0.363 OA
HETATM    8  C8  UNL     1      25.231  -0.782  53.707  1.00  0.00     0.130 C 
HETATM    9  C9  UNL     1      25.714   0.418  53.320  1.00  0.00    -0.002 C 
HETATM   10  C10 UNL     1      24.616   1.381  53.094  1.00  0.00     0.033 C 
HETATM   11  C11 UNL     1      24.482   1.674  51.627  1.00  0.00     0.042 C 
HETATM   12  C12 UNL     1      23.309   2.588  51.369  1.00  0.00    -0.033 C 
HETATM   13  C13 UNL     1      23.306   3.730  50.700  1.00  0.00     0.094 C 
ENDROOT
BRANCH   1  14
HETATM   14  O3  UNL     1      20.975   2.656  51.662  1.00  0.00    -0.201 OA
BRANCH  14  15
HETATM   15  O2  UNL     1      20.422   3.232  52.706  1.00  0.00    -0.067 OA
BRANCH  15  16
HETATM   16  O1  UNL     1      19.192   3.534  52.333  1.00  0.00    -0.216 OA
HETATM   17  C1  UNL     1      19.313   4.101  51.045  1.00  0.00     0.250 C 
ENDBRANCH  15  16
ENDBRANCH  14  15
ENDBRANCH   1  14
BRANCH  13  18
HETATM   18  N1  UNL     1      24.544   4.142  50.104  1.00  0.00    -0.363 N 
HETATM   19  H22 UNL     1      25.063   3.245  50.108  1.00  0.00     0.165 HD
BRANCH  18  20
HETATM   20  C14 UNL     1      25.034   5.386  49.611  1.00  0.00     0.076 A 
HETATM   21  C15 UNL     1      24.447   6.556  49.572  1.00  0.00     0.116 A 
HETATM   22  N2  UNL     1      25.153   7.473  49.005  1.00  0.00    -0.243 NA
HETATM   23  C16 UNL     1      26.402   6.883  48.662  1.00  0.00     0.070 A 
HETATM   24  C17 UNL     1      27.557   7.360  48.071  1.00  0.00     0.032 A 
HETATM   25  C21 UNL     1      26.381   5.553  49.026  1.00  0.00     0.022 A 
HETATM   26  C18 UNL     1      28.672   6.579  47.834  1.00  0.00     0.002 A 
HETATM   27  C19 UNL     1      28.594   5.249  48.221  1.00  0.00     0.001 A 
HETATM   28  C20 UNL     1      27.453   4.732  48.817  1.00  0.00     0.016 A 
ENDBRANCH  18  20
ENDBRANCH  13  18
TORSDOF 5
ENDMDL
MODEL 3
REMARK VINA RESULT:      -7.7      1.599      3.867
REMARK  5 active torsions:
REMARK  status: ('A' for Active; 'I' for Inactive)
REMARK    1  A    between atoms: O1_2  and  O2_3 
REMARK    2  A    between atoms: O2_3  and  O3_4 
REMARK    3  A    between atoms: O3_4  and  C2_5 
REMARK    4  A    between atoms: C13_17  and  N1_18 
REMARK    5  A    between atoms: N1_18  and  C14_19 
ROOT
HETATM    1  C2  UNL     1      22.522   2.305  52.018  1.00  0.00     0.193 C 
HETATM    2  C3  UNL     1      21.688   3.544  52.179  1.00  0.00     0.040 C 
HETATM    3  C4  UNL     1      20.248   3.367  52.001  1.00  0.00     0.003 C 
HETATM    4  C5  UNL     1      19.612   2.887  50.785  1.00  0.00     0.002 C 
HETATM    5  C6  UNL     1      19.568   3.625  49.511  1.00  0.00     0.027 C 
HETATM    6  C7  UNL     1      20.764   3.844  48.670  1.00  0.00     0.174 C 
HETATM    7  O4  UNL     1      21.829   4.541  49.155  1.00  0.00    -0.363 OA
HETATM    8  C8  UNL     1      22.933   5.073  48.581  1.00  0.00     0.130 C 
HETATM    9  C9  UNL     1      24.077   4.441  48.920  1.00  0.00    -0.002 C 
HETATM   10  C10 UNL     1      23.807   3.315  49.838  1.00  0.00     0.033 C 
HETATM   11  C11 UNL     1      24.323   3.635  51.211  1.00  0.00     0.042 C 
HETATM   12  C12 UNL     1      23.977   2.534  52.183  1.00  0.00    -0.033 C 
HETATM   13  C13 UNL     1      24.800   1.877  52.986  1.00  0.00     0.094 C 
ENDROOT
BRANCH   1  14
HETATM   14  O3  UNL     1      22.096   1.438  53.075  1.00  0.00    -0.201 OA
BRANCH  14  15
HETATM   15  O2  UNL     1      21.735   0.276  52.578  1.00  0.00    -0.067 OA
BRANCH  15  16
HETATM   16  O1  UNL     1      20.711  -0.120  53.310  1.00  0.00    -0.216 OA
HETATM   17  C1  UNL     1      21.266  -0.867  54.371  1.00  0.00     0.250 C 
ENDBRANCH  15  16
ENDBRANCH  14  15
ENDBRANCH   1  14
BRANCH  13  18
HETATM   18  N1  UNL     1      26.178   2.275  52.978  1.00  0.00    -0.363 N 
HETATM   19  H22 UNL     1      26.089   3.255  52.656  1.00  0.00     0.165 HD
BRANCH  18  20
HETATM   20  C14 UNL     1      27.397   1.610  53.298  1.00  0.00     0.076 A 
HETATM   21  C15 UNL     1      28.510   2.101  53.785  1.00  0.00     0.116 A 
HETATM   22  N2  UNL     1      29.452   1.229  53.906  1.00  0.00    -0.243 NA
HETATM   23  C16 UNL     1      28.911  -0.026  53.511  1.00  0.00     0.070 A 
HETATM   24  C17 UNL     1      29.415  -1.312  53.454  1.00  0.00     0.032 A 
HETATM   25  C21 UNL     1      27.603   0.158  53.114  1.00  0.00     0.022 A 
HETATM   26  C18 UNL     1      28.681  -2.401  53.025  1.00  0.00     0.002 A 
HETATM   27  C19 UNL     1      27.371  -2.156  52.638  1.00  0.00     0.001 A 
HETATM   28  C20 UNL     1      26.828  -0.880  52.681  1.00  0.00     0.016 A 
ENDBRANCH  18  20
ENDBRANCH  13  18
TORSDOF 5
ENDMDL
MODEL 4
REMARK VINA RESULT:      -7.6      4.313      6.285
REMARK  5 active torsions:
REMARK  status: ('A' for Active; 'I' for Inactive)
REMARK    1  A    between atoms: O1_2  and  O2_3 
REMARK    2  A    between atoms: O2_3  and  O3_4 
REMARK    3  A    between atoms: O3_4  and  C2_5 
REMARK    4  A    between atoms: C13_17  and  N1_18 
REMARK    5  A    between atoms: N1_18  and  C14_19 
ROOT
HETATM    1  C2  UNL     1      23.898   3.069  51.364  1.00  0.00     0.193 C 
HETATM    2  C3  UNL     1      23.493   1.716  50.854  1.00  0.00     0.040 C 
HETATM    3  C4  UNL     1      22.338   1.109  51.513  1.00  0.00     0.003 C 
HETATM    4  C5  UNL     1      22.259   0.791  52.930  1.00  0.00     0.002 C 
HETATM    5  C6  UNL     1      23.054  -0.252  53.602  1.00  0.00     0.027 C 
HETATM    6  C7  UNL     1      24.511  -0.134  53.820  1.00  0.00     0.174 C 
HETATM    7  O4  UNL     1      25.360  -0.028  52.760  1.00  0.00    -0.363 OA
HETATM    8  C8  UNL     1      26.704  -0.120  52.631  1.00  0.00     0.130 C 
HETATM    9  C9  UNL     1      27.300   1.055  52.337  1.00  0.00    -0.002 C 
HETATM   10  C10 UNL     1      26.306   2.143  52.242  1.00  0.00     0.033 C 
HETATM   11  C11 UNL     1      26.163   2.587  50.814  1.00  0.00     0.042 C 
HETATM   12  C12 UNL     1      25.087   3.637  50.685  1.00  0.00    -0.033 C 
HETATM   13  C13 UNL     1      25.187   4.832  50.123  1.00  0.00     0.094 C 
ENDROOT
BRANCH   1  14
HETATM   14  O3  UNL     1      22.783   3.919  51.071  1.00  0.00    -0.201 OA
BRANCH  14  15
HETATM   15  O2  UNL     1      22.573   4.737  52.078  1.00  0.00    -0.067 OA
BRANCH  15  16
HETATM   16  O1  UNL     1      21.488   5.419  51.759  1.00  0.00    -0.216 OA
HETATM   17  C1  UNL     1      21.946   6.571  51.084  1.00  0.00     0.250 C 
ENDBRANCH  15  16
ENDBRANCH  14  15
ENDBRANCH   1  14
BRANCH  13  18
HETATM   18  N1  UNL     1      26.446   5.168  49.521  1.00  0.00    -0.363 N 
HETATM   19  H22 UNL     1      27.050   4.428  49.922  1.00  0.00     0.165 HD
BRANCH  18  20
HETATM   20  C14 UNL     1      26.866   6.190  48.622  1.00  0.00     0.076 A 
HETATM   21  C15 UNL     1      26.170   7.157  48.077  1.00  0.00     0.116 A 
HETATM   22  N2  UNL     1      26.847   7.885  47.256  1.00  0.00    -0.243 NA
HETATM   23  C16 UNL     1      28.186   7.402  47.279  1.00  0.00     0.070 A 
HETATM   24  C17 UNL     1      29.354   7.785  46.648  1.00  0.00     0.032 A 
HETATM   25  C21 UNL     1      28.255   6.322  48.134  1.00  0.00     0.022 A 
HETATM   26  C18 UNL     1      30.566   7.148  46.831  1.00  0.00     0.002 A 
HETATM   27  C19 UNL     1      30.575   6.068  47.702  1.00  0.00     0.001 A 
HETATM   28  C20 UNL     1      29.424   5.651  48.355  1.00  0.00     0.016 A 
ENDBRANCH  18  20
ENDBRANCH  13  18
TORSDOF 5
ENDMDL
MODEL 5
REMARK VINA RESULT:      -7.5      3.386      7.472
REMARK  5 active torsions:
REMARK  status: ('A' for Active; 'I' for Inactive)
REMARK    1  A    between atoms: O1_2  and  O2_3 
REMARK    2  A    between atoms: O2_3  and  O3_4 
REMARK    3  A    between atoms: O3_4  and  C2_5 
REMARK    4  A    between atoms: C13_17  and  N1_18 
REMARK    5  A    between atoms: N1_18  and  C14_19 
ROOT
HETATM    1  C2  UNL     1      22.312   1.403  51.703  1.00  0.00     0.193 C 
HETATM    2  C3  UNL     1      23.196   2.088  52.705  1.00  0.00     0.040 C 
HETATM    3  C4  UNL     1      24.588   2.275  52.300  1.00  0.00     0.003 C 
HETATM    4  C5  UNL     1      25.509   1.202  51.963  1.00  0.00     0.002 C 
HETATM    5  C6  UNL     1      26.034   0.213  52.921  1.00  0.00     0.027 C 
HETATM    6  C7  UNL     1      25.194  -0.843  53.525  1.00  0.00     0.174 C 
HETATM    7  O4  UNL     1      24.122  -0.513  54.298  1.00  0.00    -0.363 OA
HETATM    8  C8  UNL     1      23.323  -1.218  55.131  1.00  0.00     0.130 C 
HETATM    9  C9  UNL     1      22.064  -1.374  54.671  1.00  0.00    -0.002 C 
HETATM   10  C10 UNL     1      21.899  -0.726  53.354  1.00  0.00     0.033 C 
HETATM   11  C11 UNL     1      21.023   0.487  53.482  1.00  0.00     0.042 C 
HETATM   12  C12 UNL     1      20.916   1.212  52.163  1.00  0.00    -0.033 C 
HETATM   13  C13 UNL     1      19.812   1.569  51.524  1.00  0.00     0.094 C 
ENDROOT
BRANCH   1  14
HETATM   14  O3  UNL     1      22.281   2.287  50.577  1.00  0.00    -0.201 OA
BRANCH  14  15
HETATM   15  O2  UNL     1      22.786   1.682  49.525  1.00  0.00    -0.067 OA
BRANCH  15  16
HETATM   16  O1  UNL     1      21.802   1.621  48.647  1.00  0.00    -0.216 OA
HETATM   17  C1  UNL     1      22.252   2.335  47.517  1.00  0.00     0.250 C 
ENDBRANCH  15  16
ENDBRANCH  14  15
ENDBRANCH   1  14
BRANCH  13  18
HETATM   18  N1  UNL     1      18.562   1.281  52.168  1.00  0.00    -0.363 N 
HETATM   19  H22 UNL     1      18.606   1.937  52.968  1.00  0.00     0.165 HD
BRANCH  18  20
HETATM   20  C14 UNL     1      17.493   0.383  51.885  1.00  0.00     0.076 A 
HETATM   21  C15 UNL     1      16.463   0.537  51.091  1.00  0.00     0.116 A 
HETATM   22  N2  UNL     1      15.642  -0.456  51.106  1.00  0.00    -0.243 NA
HETATM   23  C16 UNL     1      16.197  -1.442  51.968  1.00  0.00     0.070 A 
HETATM   24  C17 UNL     1      15.803  -2.709  52.356  1.00  0.00     0.032 A 
HETATM   25  C21 UNL     1      17.378  -0.960  52.493  1.00  0.00     0.022 A 
HETATM   26  C18 UNL     1      16.525  -3.500  53.228  1.00  0.00     0.002 A 
HETATM   27  C19 UNL     1      17.705  -2.964  53.724  1.00  0.00     0.001 A 
HETATM   28  C20 UNL     1      18.135  -1.696  53.360  1.00  0.00     0.016 A 
ENDBRANCH  18  20
ENDBRANCH  13  18
TORSDOF 5
ENDMDL
MODEL 6
REMARK VINA RESULT:      -7.4      6.070      9.385
REMARK  5 active torsions:
REMARK  status: ('A' for Active; 'I' for Inactive)
REMARK    1  A    between atoms: O1_2  and  O2_3 
REMARK    2  A    between atoms: O2_3  and  O3_4 
REMARK    3  A    between atoms: O3_4  and  C2_5 
REMARK    4  A    between atoms: C13_17  and  N1_18 
REMARK    5  A    between atoms: N1_18  and  C14_19 
ROOT
HETATM    1  C2  UNL     1      29.387   6.468  48.241  1.00  0.00     0.193 C 
HETATM    2  C3  UNL     1      29.580   7.225  46.959  1.00  0.00     0.040 C 
HETATM    3  C4  UNL     1      30.940   7.695  46.697  1.00  0.00     0.003 C 
HETATM    4  C5  UNL     1      31.684   8.607  47.551  1.00  0.00     0.002 C 
HETATM    5  C6  UNL     1      31.350  10.027  47.756  1.00  0.00     0.027 C 
HETATM    6  C7  UNL     1      30.156  10.469  48.508  1.00  0.00     0.174 C 
HETATM    7  O4  UNL     1      28.909  10.132  48.079  1.00  0.00    -0.363 OA
HETATM    8  C8  UNL     1      27.665  10.549  48.414  1.00  0.00     0.130 C 
HETATM    9  C9  UNL     1      26.938   9.616  49.065  1.00  0.00    -0.002 C 
HETATM   10  C10 UNL     1      27.715   8.372  49.245  1.00  0.00     0.033 C 
HETATM   11  C11 UNL     1      27.155   7.285  48.373  1.00  0.00     0.042 C 
HETATM   12  C12 UNL     1      27.990   6.032  48.478  1.00  0.00    -0.033 C 
HETATM   13  C13 UNL     1      27.576   4.806  48.761  1.00  0.00     0.094 C 
ENDROOT
BRANCH   1  14
HETATM   14  O3  UNL     1      30.191   5.292  48.096  1.00  0.00    -0.201 OA
BRANCH  14  15
HETATM   15  O2  UNL     1      30.997   5.177  49.128  1.00  0.00    -0.067 OA
BRANCH  15  16
HETATM   16  O1  UNL     1      32.218   5.215  48.628  1.00  0.00    -0.216 OA
HETATM   17  C1  UNL     1      32.268   4.187  47.662  1.00  0.00     0.250 C 
ENDBRANCH  15  16
ENDBRANCH  14  15
ENDBRANCH   1  14
BRANCH  13  18
HETATM   18  N1  UNL     1      26.166   4.619  48.950  1.00  0.00    -0.363 N 
HETATM   19  H22 UNL     1      25.822   4.799  47.990  1.00  0.00     0.165 HD
BRANCH  18  20
HETATM   20  C14 UNL     1      25.360   4.283  50.076  1.00  0.00     0.076 A 
HETATM   21  C15 UNL     1      24.310   4.897  50.561  1.00  0.00     0.116 A 
HETATM   22  N2  UNL     1      23.842   4.357  51.634  1.00  0.00    -0.243 NA
HETATM   23  C16 UNL     1      24.625   3.197  51.891  1.00  0.00     0.070 A 
HETATM   24  C17 UNL     1      24.590   2.212  52.860  1.00  0.00     0.032 A 
HETATM   25  C21 UNL     1      25.608   3.101  50.928  1.00  0.00     0.022 A 
HETATM   26  C18 UNL     1      25.478   1.155  52.907  1.00  0.00     0.002 A 
HETATM   27  C19 UNL     1      26.445   1.110  51.913  1.00  0.00     0.001 A 
HETATM   28  C20 UNL     1      26.514   2.079  50.922  1.00  0.00     0.016 A 
ENDBRANCH  18  20
ENDBRANCH  13  18
TORSDOF 5
ENDMDL
MODEL 7
REMARK VINA RESULT:      -7.4      2.660      6.310
REMARK  5 active torsions:
REMARK  status: ('A' for Active; 'I' for Inactive)
REMARK    1  A    between atoms: O1_2  and  O2_3 
REMARK    2  A    between atoms: O2_3  and  O3_4 
REMARK    3  A    between atoms: O3_4  and  C2_5 
REMARK    4  A    between atoms: C13_17  and  N1_18 
REMARK    5  A    between atoms: N1_18  and  C14_19 
ROOT
HETATM    1  C2  UNL     1      23.672   5.356  50.424  1.00  0.00     0.193 C 
HETATM    2  C3  UNL     1      24.386   6.489  51.103  1.00  0.00     0.040 C 
HETATM    3  C4  UNL     1      23.873   7.827  50.812  1.00  0.00     0.003 C 
HETATM    4  C5  UNL     1      23.815   8.427  49.489  1.00  0.00     0.002 C 
HETATM    5  C6  UNL     1      24.990   8.823  48.693  1.00  0.00     0.027 C 
HETATM    6  C7  UNL     1      25.916   7.842  48.089  1.00  0.00     0.174 C 
HETATM    7  O4  UNL     1      26.614   6.979  48.877  1.00  0.00    -0.363 OA
HETATM    8  C8  UNL     1      27.657   6.146  48.650  1.00  0.00     0.130 C 
HETATM    9  C9  UNL     1      27.327   4.838  48.704  1.00  0.00    -0.002 C 
HETATM   10  C10 UNL     1      25.888   4.668  48.995  1.00  0.00     0.033 C 
HETATM   11  C11 UNL     1      25.705   4.118  50.380  1.00  0.00     0.042 C 
HETATM   12  C12 UNL     1      24.239   4.020  50.727  1.00  0.00    -0.033 C 
HETATM   13  C13 UNL     1      23.582   2.959  51.169  1.00  0.00     0.094 C 
ENDROOT
BRANCH   1  14
HETATM   14  O3  UNL     1      22.342   5.393  50.951  1.00  0.00    -0.201 OA
BRANCH  14  15
HETATM   15  O2  UNL     1      21.481   5.557  49.971  1.00  0.00    -0.067 OA
BRANCH  15  16
HETATM   16  O1  UNL     1      20.744   4.461  49.961  1.00  0.00    -0.216 OA
HETATM   17  C1  UNL     1      20.412   4.236  48.608  1.00  0.00     0.250 C 
ENDBRANCH  15  16
ENDBRANCH  14  15
ENDBRANCH   1  14
BRANCH  13  18
HETATM   18  N1  UNL     1      24.345   1.764  51.394  1.00  0.00    -0.363 N 
HETATM   19  H22 UNL     1      24.897   1.725  50.518  1.00  0.00     0.165 HD
BRANCH  18  20
HETATM   20  C14 UNL     1      24.413   0.826  52.464  1.00  0.00     0.076 A 
HETATM   21  C15 UNL     1      25.462   0.277  53.024  1.00  0.00     0.116 A 
HETATM   22  N2  UNL     1      25.171  -0.583  53.939  1.00  0.00    -0.243 NA
HETATM   23  C16 UNL     1      23.754  -0.588  54.070  1.00  0.00     0.070 A 
HETATM   24  C17 UNL     1      22.870  -1.265  54.888  1.00  0.00     0.032 A 
HETATM   25  C21 UNL     1      23.220   0.292  53.153  1.00  0.00     0.022 A 
HETATM   26  C18 UNL     1      21.499  -1.103  54.831  1.00  0.00     0.002 A 
HETATM   27  C19 UNL     1      21.018  -0.204  53.889  1.00  0.00     0.001 A 
HETATM   28  C20 UNL     1      21.873   0.495  53.049  1.00  0.00     0.016 A 
ENDBRANCH  18  20
ENDBRANCH  13  18
TORSDOF 5
ENDMDL
MODEL 8
REMARK VINA RESULT:      -7.3      3.086      6.234
REMARK  5 active torsions:
REMARK  status: ('A' for Active; 'I' for Inactive)
REMARK    1  A    between atoms: O1_2  and  O2_3 
REMARK    2  A    between atoms: O2_3  and  O3_4 
REMARK    3  A    between atoms: O3_4  and  C2_5 
REMARK    4  A    between atoms: C13_17  and  N1_18 
REMARK    5  A    between atoms: N1_18  and  C14_19 
ROOT
HETATM    1  C2  UNL     1      21.847   2.008  52.006  1.00  0.00     0.193 C 
HETATM    2  C3  UNL     1      21.616   0.582  51.594  1.00  0.00     0.040 C 
HETATM    3  C4  UNL     1      20.492  -0.092  52.242  1.00  0.00     0.003 C 
HETATM    4  C5  UNL     1      20.360  -0.302  53.674  1.00  0.00     0.002 C 
HETATM    5  C6  UNL     1      21.215  -1.196  54.474  1.00  0.00     0.027 C 
HETATM    6  C7  UNL     1      22.637  -0.903  54.757  1.00  0.00     0.174 C 
HETATM    7  O4  UNL     1      23.533  -0.792  53.738  1.00  0.00    -0.363 OA
HETATM    8  C8  UNL     1      24.884  -0.748  53.687  1.00  0.00     0.130 C 
HETATM    9  C9  UNL     1      25.373   0.458  53.325  1.00  0.00    -0.002 C 
HETATM   10  C10 UNL     1      24.279   1.421  53.085  1.00  0.00     0.033 C 
HETATM   11  C11 UNL     1      24.179   1.730  51.618  1.00  0.00     0.042 C 
HETATM   12  C12 UNL     1      23.010   2.644  51.344  1.00  0.00    -0.033 C 
HETATM   13  C13 UNL     1      23.020   3.794  50.687  1.00  0.00     0.094 C 
ENDROOT
BRANCH   1  14
HETATM   14  O3  UNL     1      20.670   2.705  51.583  1.00  0.00    -0.201 OA
BRANCH  14  15
HETATM   15  O2  UNL     1      20.104   3.286  52.617  1.00  0.00    -0.067 OA
BRANCH  15  16
HETATM   16  O1  UNL     1      18.863   3.541  52.243  1.00  0.00    -0.216 OA
HETATM   17  C1  UNL     1      18.954   4.023  50.920  1.00  0.00     0.250 C 
ENDBRANCH  15  16
ENDBRANCH  14  15
ENDBRANCH   1  14
BRANCH  13  18
HETATM   18  N1  UNL     1      24.271   4.215  50.125  1.00  0.00    -0.363 N 
HETATM   19  H22 UNL     1      24.859   3.387  50.332  1.00  0.00     0.165 HD
BRANCH  18  20
HETATM   20  C14 UNL     1      24.702   5.396  49.454  1.00  0.00     0.076 A 
HETATM   21  C15 UNL     1      25.726   6.172  49.709  1.00  0.00     0.116 A 
HETATM   22  N2  UNL     1      25.802   7.202  48.938  1.00  0.00    -0.243 NA
HETATM   23  C16 UNL     1      24.738   7.097  47.999  1.00  0.00     0.070 A 
HETATM   24  C17 UNL     1      24.326   7.867  46.927  1.00  0.00     0.032 A 
HETATM   25  C21 UNL     1      24.004   5.964  48.282  1.00  0.00     0.022 A 
HETATM   26  C18 UNL     1      23.234   7.558  46.140  1.00  0.00     0.002 A 
HETATM   27  C19 UNL     1      22.534   6.406  46.471  1.00  0.00     0.001 A 
HETATM   28  C20 UNL     1      22.915   5.607  47.539  1.00  0.00     0.016 A 
ENDBRANCH  18  20
ENDBRANCH  13  18
TORSDOF 5
ENDMDL
MODEL 9
REMARK VINA RESULT:      -7.3      2.723      6.829
REMARK  5 active torsions:
REMARK  status: ('A' for Active; 'I' for Inactive)
REMARK    1  A    between atoms: O1_2  and  O2_3 
REMARK    2  A    between atoms: O2_3  and  O3_4 
REMARK    3  A    between atoms: O3_4  and  C2_5 
REMARK    4  A    between atoms: C13_17  and  N1_18 
REMARK    5  A    between atoms: N1_18  and  C14_19 
ROOT
HETATM    1  C2  UNL     1      24.818   2.427  52.018  1.00  0.00     0.193 C 
HETATM    2  C3  UNL     1      25.408   2.511  53.396  1.00  0.00     0.040 C 
HETATM    3  C4  UNL     1      26.849   2.286  53.485  1.00  0.00     0.003 C 
HETATM    4  C5  UNL     1      27.528   1.066  53.080  1.00  0.00     0.002 C 
HETATM    5  C6  UNL     1      27.394  -0.235  53.759  1.00  0.00     0.027 C 
HETATM    6  C7  UNL     1      26.153  -1.038  53.715  1.00  0.00     0.174 C 
HETATM    7  O4  UNL     1      24.992  -0.540  54.220  1.00  0.00    -0.363 OA
HETATM    8  C8  UNL     1      23.790  -1.091  54.511  1.00  0.00     0.130 C 
HETATM    9  C9  UNL     1      22.796  -0.686  53.692  1.00  0.00    -0.002 C 
HETATM   10  C10 UNL     1      23.301   0.261  52.677  1.00  0.00     0.033 C 
HETATM   11  C11 UNL     1      22.775   1.640  52.952  1.00  0.00     0.042 C 
HETATM   12  C12 UNL     1      23.351   2.637  51.977  1.00  0.00    -0.033 C 
HETATM   13  C13 UNL     1      22.691   3.494  51.213  1.00  0.00     0.094 C 
ENDROOT
BRANCH   1  14
HETATM   14  O3  UNL     1      25.431   3.498  51.292  1.00  0.00    -0.201 OA
BRANCH  14  15
HETATM   15  O2  UNL     1      26.095   3.015  50.266  1.00  0.00    -0.067 OA
BRANCH  15  16
HETATM   16  O1  UNL     1      25.914   3.882  49.287  1.00  0.00    -0.216 OA
HETATM   17  C1  UNL     1      27.196   4.389  48.983  1.00  0.00     0.250 C 
ENDBRANCH  15  16
ENDBRANCH  14  15
ENDBRANCH   1  14
BRANCH  13  18
HETATM   18  N1  UNL     1      21.263   3.523  51.345  1.00  0.00    -0.363 N 
HETATM   19  H22 UNL     1      21.164   4.119  52.187  1.00  0.00     0.165 HD
BRANCH  18  20
HETATM   20  C14 UNL     1      20.193   2.946  50.603  1.00  0.00     0.076 A 
HETATM   21  C15 UNL     1      19.670   3.325  49.463  1.00  0.00     0.116 A 
HETATM   22  N2  UNL     1      18.666   2.609  49.088  1.00  0.00    -0.243 NA
HETATM   23  C16 UNL     1      18.509   1.575  50.054  1.00  0.00     0.070 A 
HETATM   24  C17 UNL     1      17.642   0.506  50.181  1.00  0.00     0.032 A 
HETATM   25  C21 UNL     1      19.457   1.742  51.042  1.00  0.00     0.022 A 
HETATM   26  C18 UNL     1      17.682  -0.388  51.233  1.00  0.00     0.002 A 
HETATM   27  C19 UNL     1      18.656  -0.172  52.197  1.00  0.00     0.001 A 
HETATM   28  C20 UNL     1      19.544   0.890  52.107  1.00  0.00     0.016 A 
ENDBRANCH  18  20
ENDBRANCH  13  18
TORSDOF 5
ENDMDL
