MODEL 1
REMARK VINA RESULT:      -8.4      0.000      0.000
REMARK  2 active torsions:
REMARK  status: ('A' for Active; 'I' for Inactive)
REMARK    1  A    between atoms: C11_12  and  O2_13 
REMARK    2  A    between atoms: C12_15  and  C13_16 
ROOT
HETATM    1  O1  UNL     1      24.717   2.430  53.828  1.00  0.00    -0.296 OA
HETATM    2  C1  UNL     1      23.947   1.801  53.156  1.00  0.00     0.151 C 
HETATM    3  C2  UNL     1      23.133   0.548  53.387  1.00  0.00     0.081 C 
HETATM    4  C3  UNL     1      24.281  -0.502  53.141  1.00  0.00    -0.011 C 
HETATM    5  C4  UNL     1      25.646  -0.595  52.993  1.00  0.00     0.056 C 
HETATM    6  C5  UNL     1      26.664   0.508  53.040  1.00  0.00    -0.042 A 
HETATM    7  C6  UNL     1      27.556   0.050  54.051  1.00  0.00     0.008 A 
HETATM    8  C7  UNL     1      28.719   0.632  54.574  1.00  0.00     0.001 A 
HETATM    9  C8  UNL     1      29.001   1.834  53.989  1.00  0.00     0.001 A 
HETATM   10  C9  UNL     1      28.169   2.313  53.010  1.00  0.00     0.012 A 
HETATM   11  C10 UNL     1      27.030   1.755  52.488  1.00  0.00    -0.004 A 
HETATM   12  C11 UNL     1      26.383   2.546  51.433  1.00  0.00     0.249 C 
HETATM   13  N1  UNL     1      25.237   3.323  51.758  1.00  0.00    -0.380 N 
HETATM   14  C12 UNL     1      24.007   2.609  51.954  1.00  0.00     0.176 C 
HETATM   15  H11 UNL     1      25.385   4.087  52.418  1.00  0.00     0.157 HD
ENDROOT
BRANCH  14  16
HETATM   16  C13 UNL     1      23.470   1.980  50.718  1.00  0.00     0.147 A 
HETATM   17  N2  UNL     1      22.029   1.831  50.715  1.00  0.00    -0.378 N 
HETATM   18  C14 UNL     1      21.900   2.724  49.576  1.00  0.00     0.037 A 
HETATM   19  H14 UNL     1      21.074   1.465  51.045  1.00  0.00     0.160 HD
HETATM   20  C15 UNL     1      21.930   3.569  48.520  1.00  0.00     0.030 A 
HETATM   21  C17 UNL     1      23.341   2.880  49.574  1.00  0.00    -0.007 A 
HETATM   22  C16 UNL     1      23.361   3.713  48.534  1.00  0.00     0.014 A 
ENDBRANCH  14  16
BRANCH  12  23
HETATM   23  O2  UNL     1      27.313   3.451  50.864  1.00  0.00    -0.373 OA
HETATM   24  H10 UNL     1      27.980   3.002  50.299  1.00  0.00     0.212 HD
ENDBRANCH  12  23
TORSDOF 2
ENDMDL
MODEL 2
REMARK VINA RESULT:      -8.0      2.277      3.955
REMARK  2 active torsions:
REMARK  status: ('A' for Active; 'I' for Inactive)
REMARK    1  A    between atoms: C11_12  and  O2_13 
REMARK    2  A    between atoms: C12_15  and  C13_16 
ROOT
HETATM    1  O1  UNL     1      23.523   3.598  52.947  1.00  0.00    -0.296 OA
HETATM    2  C1  UNL     1      23.228   4.014  51.861  1.00  0.00     0.151 C 
HETATM    3  C2  UNL     1      21.915   4.270  51.156  1.00  0.00     0.081 C 
HETATM    4  C3  UNL     1      21.610   2.787  50.724  1.00  0.00    -0.011 C 
HETATM    5  C4  UNL     1      22.026   1.493  50.938  1.00  0.00     0.056 C 
HETATM    6  C5  UNL     1      23.121   1.004  51.844  1.00  0.00    -0.042 A 
HETATM    7  C6  UNL     1      22.436   0.061  52.660  1.00  0.00     0.008 A 
HETATM    8  C7  UNL     1      22.899  -0.741  53.713  1.00  0.00     0.001 A 
HETATM    9  C8  UNL     1      24.230  -0.551  53.957  1.00  0.00     0.001 A 
HETATM   10  C9  UNL     1      24.928   0.347  53.194  1.00  0.00     0.012 A 
HETATM   11  C10 UNL     1      24.490   1.138  52.163  1.00  0.00    -0.004 A 
HETATM   12  C11 UNL     1      25.521   1.988  51.554  1.00  0.00     0.249 C 
HETATM   13  N1  UNL     1      25.576   3.365  51.905  1.00  0.00    -0.380 N 
HETATM   14  C12 UNL     1      24.566   4.216  51.341  1.00  0.00     0.176 C 
HETATM   15  H11 UNL     1      25.798   3.571  52.879  1.00  0.00     0.157 HD
ENDROOT
BRANCH  14  16
HETATM   16  C13 UNL     1      24.675   4.387  49.868  1.00  0.00     0.147 A 
HETATM   17  N2  UNL     1      24.413   5.738  49.414  1.00  0.00    -0.378 N 
HETATM   18  C14 UNL     1      25.768   5.873  48.909  1.00  0.00     0.037 A 
HETATM   19  H14 UNL     1      23.836   6.629  49.249  1.00  0.00     0.160 HD
HETATM   20  C15 UNL     1      27.054   5.857  48.488  1.00  0.00     0.030 A 
HETATM   21  C17 UNL     1      26.039   4.523  49.361  1.00  0.00    -0.007 A 
HETATM   22  C16 UNL     1      27.304   4.516  48.944  1.00  0.00     0.014 A 
ENDBRANCH  14  16
BRANCH  12  23
HETATM   23  O2  UNL     1      26.808   1.467  51.836  1.00  0.00    -0.373 OA
HETATM   24  H10 UNL     1      27.278   1.162  51.028  1.00  0.00     0.212 HD
ENDBRANCH  12  23
TORSDOF 2
ENDMDL
MODEL 3
REMARK VINA RESULT:      -8.0      2.190      6.010
REMARK  2 active torsions:
REMARK  status: ('A' for Active; 'I' for Inactive)
REMARK    1  A    between atoms: C11_12  and  O2_13 
REMARK    2  A    between atoms: C12_15  and  C13_16 
ROOT
HETATM    1  O1  UNL     1      22.267   2.995  52.330  1.00  0.00    -0.296 OA
HETATM    2  C1  UNL     1      23.186   3.057  51.561  1.00  0.00     0.151 C 
HETATM    3  C2  UNL     1      23.366   3.665  50.188  1.00  0.00     0.081 C 
HETATM    4  C3  UNL     1      22.682   2.519  49.353  1.00  0.00    -0.011 C 
HETATM    5  C4  UNL     1      21.910   1.389  49.501  1.00  0.00     0.056 C 
HETATM    6  C5  UNL     1      21.368   0.791  50.767  1.00  0.00    -0.042 A 
HETATM    7  C6  UNL     1      19.972   0.727  50.495  1.00  0.00     0.008 A 
HETATM    8  C7  UNL     1      18.908   0.268  51.285  1.00  0.00     0.001 A 
HETATM    9  C8  UNL     1      19.330  -0.180  52.505  1.00  0.00     0.001 A 
HETATM   10  C9  UNL     1      20.665  -0.137  52.809  1.00  0.00     0.012 A 
HETATM   11  C10 UNL     1      21.716   0.308  52.048  1.00  0.00    -0.004 A 
HETATM   12  C11 UNL     1      23.033   0.200  52.689  1.00  0.00     0.249 C 
HETATM   13  N1  UNL     1      23.621   1.364  53.257  1.00  0.00    -0.380 N 
HETATM   14  C12 UNL     1      24.165   2.326  52.341  1.00  0.00     0.176 C 
HETATM   15  H11 UNL     1      23.126   1.775  54.049  1.00  0.00     0.157 HD
ENDROOT
BRANCH  14  16
HETATM   16  C13 UNL     1      25.362   1.847  51.601  1.00  0.00     0.147 A 
HETATM   17  N2  UNL     1      26.509   2.725  51.710  1.00  0.00    -0.378 N 
HETATM   18  C14 UNL     1      27.280   1.698  52.389  1.00  0.00     0.037 A 
HETATM   19  H14 UNL     1      27.074   3.630  51.585  1.00  0.00     0.160 HD
HETATM   20  C15 UNL     1      27.876   0.653  53.008  1.00  0.00     0.030 A 
HETATM   21  C17 UNL     1      26.136   0.813  52.286  1.00  0.00    -0.007 A 
HETATM   22  C16 UNL     1      26.731  -0.210  52.897  1.00  0.00     0.014 A 
ENDBRANCH  14  16
BRANCH  12  23
HETATM   23  O2  UNL     1      22.989  -0.758  53.732  1.00  0.00    -0.373 OA
HETATM   24  H10 UNL     1      22.668  -0.379  54.579  1.00  0.00     0.212 HD
ENDBRANCH  12  23
TORSDOF 2
ENDMDL
MODEL 4
REMARK VINA RESULT:      -7.9      2.136      4.850
REMARK  2 active torsions:
REMARK  status: ('A' for Active; 'I' for Inactive)
REMARK    1  A    between atoms: C11_12  and  O2_13 
REMARK    2  A    between atoms: C12_15  and  C13_16 
ROOT
HETATM    1  O1  UNL     1      24.534   3.517  52.972  1.00  0.00    -0.296 OA
HETATM    2  C1  UNL     1      24.828   2.397  53.289  1.00  0.00     0.151 C 
HETATM    3  C2  UNL     1      26.101   1.744  53.778  1.00  0.00     0.081 C 
HETATM    4  C3  UNL     1      26.812   1.587  52.381  1.00  0.00    -0.011 C 
HETATM    5  C4  UNL     1      26.713   1.987  51.068  1.00  0.00     0.056 C 
HETATM    6  C5  UNL     1      25.686   2.890  50.445  1.00  0.00    -0.042 A 
HETATM    7  C6  UNL     1      26.497   3.895  49.845  1.00  0.00     0.008 A 
HETATM    8  C7  UNL     1      26.141   5.035  49.110  1.00  0.00     0.001 A 
HETATM    9  C8  UNL     1      24.787   5.159  48.975  1.00  0.00     0.001 A 
HETATM   10  C9  UNL     1      23.970   4.214  49.537  1.00  0.00     0.012 A 
HETATM   11  C10 UNL     1      24.302   3.094  50.258  1.00  0.00    -0.004 A 
HETATM   12  C11 UNL     1      23.160   2.288  50.707  1.00  0.00     0.249 C 
HETATM   13  N1  UNL     1      22.726   2.400  52.057  1.00  0.00    -0.380 N 
HETATM   14  C12 UNL     1      23.543   1.767  53.053  1.00  0.00     0.176 C 
HETATM   15  H11 UNL     1      22.358   3.310  52.336  1.00  0.00     0.157 HD
ENDROOT
BRANCH  14  16
HETATM   16  C13 UNL     1      23.551   0.282  52.975  1.00  0.00     0.147 A 
HETATM   17  N2  UNL     1      24.056  -0.366  54.168  1.00  0.00    -0.378 N 
HETATM   18  C14 UNL     1      22.773  -1.001  54.414  1.00  0.00     0.037 A 
HETATM   19  H14 UNL     1      24.780  -0.627  54.917  1.00  0.00     0.160 HD
HETATM   20  C15 UNL     1      21.529  -1.522  54.518  1.00  0.00     0.030 A 
HETATM   21  C17 UNL     1      22.259  -0.355  53.222  1.00  0.00    -0.007 A 
HETATM   22  C16 UNL     1      21.036  -0.872  53.333  1.00  0.00     0.014 A 
ENDBRANCH  14  16
BRANCH  12  23
HETATM   23  O2  UNL     1      22.022   2.570  49.912  1.00  0.00    -0.373 OA
HETATM   24  H10 UNL     1      21.179   2.391  50.382  1.00  0.00     0.212 HD
ENDBRANCH  12  23
TORSDOF 2
ENDMDL
MODEL 5
REMARK VINA RESULT:      -7.5      2.269      4.137
REMARK  2 active torsions:
REMARK  status: ('A' for Active; 'I' for Inactive)
REMARK    1  A    between atoms: C11_12  and  O2_13 
REMARK    2  A    between atoms: C12_15  and  C13_16 
ROOT
HETATM    1  O1  UNL     1      25.030   0.570  51.669  1.00  0.00    -0.296 OA
HETATM    2  C1  UNL     1      24.017   1.161  51.924  1.00  0.00     0.151 C 
HETATM    3  C2  UNL     1      23.503   2.548  51.611  1.00  0.00     0.081 C 
HETATM    4  C3  UNL     1      24.297   3.329  52.725  1.00  0.00    -0.011 C 
HETATM    5  C4  UNL     1      25.317   3.170  53.636  1.00  0.00     0.056 C 
HETATM    6  C5  UNL     1      26.161   1.953  53.886  1.00  0.00    -0.042 A 
HETATM    7  C6  UNL     1      27.479   2.462  53.717  1.00  0.00     0.008 A 
HETATM    8  C7  UNL     1      28.724   1.823  53.812  1.00  0.00     0.001 A 
HETATM    9  C8  UNL     1      28.599   0.497  54.116  1.00  0.00     0.001 A 
HETATM   10  C9  UNL     1      27.348  -0.035  54.288  1.00  0.00     0.012 A 
HETATM   11  C10 UNL     1      26.123   0.577  54.199  1.00  0.00    -0.004 A 
HETATM   12  C11 UNL     1      24.974  -0.302  54.455  1.00  0.00     0.249 C 
HETATM   13  N1  UNL     1      24.230  -0.802  53.351  1.00  0.00    -0.380 N 
HETATM   14  C12 UNL     1      23.354   0.123  52.689  1.00  0.00     0.176 C 
HETATM   15  H11 UNL     1      24.731  -1.427  52.719  1.00  0.00     0.157 HD
ENDROOT
BRANCH  14  16
HETATM   16  C13 UNL     1      22.200   0.561  53.518  1.00  0.00     0.147 A 
HETATM   17  N2  UNL     1      21.137   1.186  52.759  1.00  0.00    -0.378 N 
HETATM   18  C14 UNL     1      20.204   0.133  53.120  1.00  0.00     0.037 A 
HETATM   19  H14 UNL     1      20.677   1.927  52.131  1.00  0.00     0.160 HD
HETATM   20  C15 UNL     1      19.450  -0.911  53.534  1.00  0.00     0.030 A 
HETATM   21  C17 UNL     1      21.263  -0.501  53.881  1.00  0.00    -0.007 A 
HETATM   22  C16 UNL     1      20.514  -1.526  54.283  1.00  0.00     0.014 A 
ENDBRANCH  14  16
BRANCH  12  23
HETATM   23  O2  UNL     1      25.386  -1.440  55.190  1.00  0.00    -0.373 OA
HETATM   24  H10 UNL     1      25.470  -2.242  54.628  1.00  0.00     0.212 HD
ENDBRANCH  12  23
TORSDOF 2
ENDMDL
MODEL 6
REMARK VINA RESULT:      -7.4      2.793      4.924
REMARK  2 active torsions:
REMARK  status: ('A' for Active; 'I' for Inactive)
REMARK    1  A    between atoms: C11_12  and  O2_13 
REMARK    2  A    between atoms: C12_15  and  C13_16 
ROOT
HETATM    1  O1  UNL     1      21.486   3.307  52.338  1.00  0.00    -0.296 OA
HETATM    2  C1  UNL     1      21.668   3.464  51.162  1.00  0.00     0.151 C 
HETATM    3  C2  UNL     1      20.753   3.560  49.962  1.00  0.00     0.081 C 
HETATM    4  C3  UNL     1      20.493   2.019  49.765  1.00  0.00    -0.011 C 
HETATM    5  C4  UNL     1      20.670   0.806  50.391  1.00  0.00     0.056 C 
HETATM    6  C5  UNL     1      21.285   0.532  51.734  1.00  0.00    -0.042 A 
HETATM    7  C6  UNL     1      20.253  -0.193  52.393  1.00  0.00     0.008 A 
HETATM    8  C7  UNL     1      20.201  -0.735  53.686  1.00  0.00     0.001 A 
HETATM    9  C8  UNL     1      21.350  -0.503  54.388  1.00  0.00     0.001 A 
HETATM   10  C9  UNL     1      22.370   0.191  53.790  1.00  0.00     0.012 A 
HETATM   11  C10 UNL     1      22.435   0.726  52.529  1.00  0.00    -0.004 A 
HETATM   12  C11 UNL     1      23.698   1.405  52.211  1.00  0.00     0.249 C 
HETATM   13  N1  UNL     1      23.747   2.826  52.259  1.00  0.00    -0.380 N 
HETATM   14  C12 UNL     1      23.116   3.531  51.180  1.00  0.00     0.176 C 
HETATM   15  H11 UNL     1      23.602   3.249  53.176  1.00  0.00     0.157 HD
ENDROOT
BRANCH  14  16
HETATM   16  C13 UNL     1      23.793   3.358  49.867  1.00  0.00     0.147 A 
HETATM   17  N2  UNL     1      23.918   4.584  49.106  1.00  0.00    -0.378 N 
HETATM   18  C14 UNL     1      25.368   4.519  49.165  1.00  0.00     0.037 A 
HETATM   19  H14 UNL     1      23.580   5.447  48.563  1.00  0.00     0.160 HD
HETATM   20  C15 UNL     1      26.701   4.331  49.300  1.00  0.00     0.030 A 
HETATM   21  C17 UNL     1      25.251   3.292  49.929  1.00  0.00    -0.007 A 
HETATM   22  C16 UNL     1      26.566   3.116  50.058  1.00  0.00     0.014 A 
ENDBRANCH  14  16
BRANCH  12  23
HETATM   23  O2  UNL     1      24.724   0.954  53.077  1.00  0.00    -0.373 OA
HETATM   24  H10 UNL     1      25.247   0.217  52.692  1.00  0.00     0.212 HD
ENDBRANCH  12  23
TORSDOF 2
ENDMDL
MODEL 7
REMARK VINA RESULT:      -7.4      2.786      4.969
REMARK  2 active torsions:
REMARK  status: ('A' for Active; 'I' for Inactive)
REMARK    1  A    between atoms: C11_12  and  O2_13 
REMARK    2  A    between atoms: C12_15  and  C13_16 
ROOT
HETATM    1  O1  UNL     1      22.520   2.576  49.891  1.00  0.00    -0.296 OA
HETATM    2  C1  UNL     1      21.839   2.724  50.868  1.00  0.00     0.151 C 
HETATM    3  C2  UNL     1      20.852   3.782  51.308  1.00  0.00     0.081 C 
HETATM    4  C3  UNL     1      21.892   4.851  51.812  1.00  0.00    -0.011 C 
HETATM    5  C4  UNL     1      23.237   5.142  51.790  1.00  0.00     0.056 C 
HETATM    6  C5  UNL     1      24.347   4.370  51.136  1.00  0.00    -0.042 A 
HETATM    7  C6  UNL     1      24.945   5.355  50.301  1.00  0.00     0.008 A 
HETATM    8  C7  UNL     1      26.034   5.267  49.421  1.00  0.00     0.001 A 
HETATM    9  C8  UNL     1      26.573   4.012  49.394  1.00  0.00     0.001 A 
HETATM   10  C9  UNL     1      26.028   3.033  50.183  1.00  0.00     0.012 A 
HETATM   11  C10 UNL     1      24.965   3.104  51.048  1.00  0.00    -0.004 A 
HETATM   12  C11 UNL     1      24.654   1.851  51.748  1.00  0.00     0.249 C 
HETATM   13  N1  UNL     1      23.565   1.058  51.289  1.00  0.00    -0.380 N 
HETATM   14  C12 UNL     1      22.245   1.536  51.591  1.00  0.00     0.176 C 
HETATM   15  H11 UNL     1      23.662   0.662  50.354  1.00  0.00     0.157 HD
ENDROOT
BRANCH  14  16
HETATM   16  C13 UNL     1      21.909   1.507  53.039  1.00  0.00     0.147 A 
HETATM   17  N2  UNL     1      20.523   1.189  53.313  1.00  0.00    -0.378 N 
HETATM   18  C14 UNL     1      20.898  -0.030  54.007  1.00  0.00     0.037 A 
HETATM   19  H14 UNL     1      19.457   1.327  53.299  1.00  0.00     0.160 HD
HETATM   20  C15 UNL     1      21.392  -1.129  54.623  1.00  0.00     0.030 A 
HETATM   21  C17 UNL     1      22.288   0.280  53.736  1.00  0.00    -0.007 A 
HETATM   22  C16 UNL     1      22.765  -0.805  54.344  1.00  0.00     0.014 A 
ENDBRANCH  14  16
BRANCH  12  23
HETATM   23  O2  UNL     1      25.783   0.996  51.741  1.00  0.00    -0.373 OA
HETATM   24  H10 UNL     1      26.424   1.211  52.454  1.00  0.00     0.212 HD
ENDBRANCH  12  23
TORSDOF 2
ENDMDL
MODEL 8
REMARK VINA RESULT:      -7.3      2.778      4.748
REMARK  2 active torsions:
REMARK  status: ('A' for Active; 'I' for Inactive)
REMARK    1  A    between atoms: C11_12  and  O2_13 
REMARK    2  A    between atoms: C12_15  and  C13_16 
ROOT
HETATM    1  O1  UNL     1      23.976   2.407  49.877  1.00  0.00    -0.296 OA
HETATM    2  C1  UNL     1      24.894   3.153  50.078  1.00  0.00     0.151 C 
HETATM    3  C2  UNL     1      26.392   2.973  50.166  1.00  0.00     0.081 C 
HETATM    4  C3  UNL     1      26.457   2.420  51.638  1.00  0.00    -0.011 C 
HETATM    5  C4  UNL     1      25.654   1.940  52.647  1.00  0.00     0.056 C 
HETATM    6  C5  UNL     1      24.164   1.751  52.641  1.00  0.00    -0.042 A 
HETATM    7  C6  UNL     1      24.034   0.376  52.983  1.00  0.00     0.008 A 
HETATM    8  C7  UNL     1      22.891  -0.423  53.137  1.00  0.00     0.001 A 
HETATM    9  C8  UNL     1      21.740   0.278  52.911  1.00  0.00     0.001 A 
HETATM   10  C9  UNL     1      21.819   1.605  52.580  1.00  0.00     0.012 A 
HETATM   11  C10 UNL     1      22.927   2.399  52.427  1.00  0.00    -0.004 A 
HETATM   12  C11 UNL     1      22.643   3.795  52.073  1.00  0.00     0.249 C 
HETATM   13  N1  UNL     1      22.794   4.208  50.720  1.00  0.00    -0.380 N 
HETATM   14  C12 UNL     1      24.137   4.379  50.243  1.00  0.00     0.176 C 
HETATM   15  H11 UNL     1      22.164   3.774  50.046  1.00  0.00     0.157 HD
ENDROOT
BRANCH  14  16
HETATM   16  C13 UNL     1      24.863   5.513  50.874  1.00  0.00     0.147 A 
HETATM   17  N2  UNL     1      25.956   6.027  50.073  1.00  0.00    -0.378 N 
HETATM   18  C14 UNL     1      25.306   7.320  49.946  1.00  0.00     0.037 A 
HETATM   19  H14 UNL     1      26.899   6.003  49.560  1.00  0.00     0.160 HD
HETATM   20  C15 UNL     1      24.589   8.466  49.911  1.00  0.00     0.030 A 
HETATM   21  C17 UNL     1      24.208   6.813  50.745  1.00  0.00    -0.007 A 
HETATM   22  C16 UNL     1      23.508   7.945  50.704  1.00  0.00     0.014 A 
ENDBRANCH  14  16
BRANCH  12  23
HETATM   23  O2  UNL     1      21.312   4.126  52.430  1.00  0.00    -0.373 OA
HETATM   24  H10 UNL     1      21.145   4.032  53.394  1.00  0.00     0.212 HD
ENDBRANCH  12  23
TORSDOF 2
ENDMDL
MODEL 9
REMARK VINA RESULT:      -7.3      2.923      5.326
REMARK  2 active torsions:
REMARK  status: ('A' for Active; 'I' for Inactive)
REMARK    1  A    between atoms: C11_12  and  O2_13 
REMARK    2  A    between atoms: C12_15  and  C13_16 
ROOT
HETATM    1  O1  UNL     1      23.616   4.550  48.711  1.00  0.00    -0.296 OA
HETATM    2  C1  UNL     1      22.965   4.670  49.711  1.00  0.00     0.151 C 
HETATM    3  C2  UNL     1      22.065   5.756  50.254  1.00  0.00     0.081 C 
HETATM    4  C3  UNL     1      23.188   6.707  50.815  1.00  0.00    -0.011 C 
HETATM    5  C4  UNL     1      24.550   6.903  50.785  1.00  0.00     0.056 C 
HETATM    6  C5  UNL     1      25.590   6.107  50.048  1.00  0.00    -0.042 A 
HETATM    7  C6  UNL     1      26.243   7.110  49.278  1.00  0.00     0.008 A 
HETATM    8  C7  UNL     1      27.307   7.014  48.369  1.00  0.00     0.001 A 
HETATM    9  C8  UNL     1      27.754   5.729  48.234  1.00  0.00     0.001 A 
HETATM   10  C9  UNL     1      27.153   4.733  48.957  1.00  0.00     0.012 A 
HETATM   11  C10 UNL     1      26.113   4.811  49.849  1.00  0.00    -0.004 A 
HETATM   12  C11 UNL     1      25.724   3.533  50.457  1.00  0.00     0.249 C 
HETATM   13  N1  UNL     1      24.573   2.857  49.964  1.00  0.00    -0.380 N 
HETATM   14  C12 UNL     1      23.296   3.402  50.332  1.00  0.00     0.176 C 
HETATM   15  H11 UNL     1      24.624   2.530  48.999  1.00  0.00     0.157 HD
ENDROOT
BRANCH  14  16
HETATM   16  C13 UNL     1      22.984   3.284  51.781  1.00  0.00     0.147 A 
HETATM   17  N2  UNL     1      21.626   2.860  52.055  1.00  0.00    -0.378 N 
HETATM   18  C14 UNL     1      22.093   1.639  52.687  1.00  0.00     0.037 A 
HETATM   19  H14 UNL     1      20.554   2.927  52.060  1.00  0.00     0.160 HD
HETATM   20  C15 UNL     1      22.668   0.548  53.245  1.00  0.00     0.030 A 
HETATM   21  C17 UNL     1      23.455   2.054  52.415  1.00  0.00    -0.007 A 
HETATM   22  C16 UNL     1      24.012   0.977  52.965  1.00  0.00     0.014 A 
ENDBRANCH  14  16
BRANCH  12  23
HETATM   23  O2  UNL     1      26.788   2.603  50.359  1.00  0.00    -0.373 OA
HETATM   24  H10 UNL     1      26.489   1.718  50.055  1.00  0.00     0.212 HD
ENDBRANCH  12  23
TORSDOF 2
ENDMDL
