MODEL 1
REMARK VINA RESULT:      -8.0      0.000      0.000
REMARK  6 active torsions:
REMARK  status: ('A' for Active; 'I' for Inactive)
REMARK    1  A    between atoms: C2_2  and  O1_3 
REMARK    2  A    between atoms: O1_3  and  C3_4 
REMARK    3  A    between atoms: C3_4  and  C4_5 
REMARK    4  A    between atoms: C4_5  and  O2_6 
REMARK    5  A    between atoms: O2_6  and  C5_7 
REMARK    6  A    between atoms: C9_12  and  C10_13 
ROOT
HETATM    1  C5  UNL     1      22.079   0.972  52.748  1.00  0.00     0.214 A 
HETATM    2  C6  UNL     1      22.653  -0.103  53.618  1.00  0.00     0.024 A 
HETATM    3 BR1  UNL     1      21.524  -1.225  54.682  1.00  0.00    -0.053 Br
HETATM    4  C7  UNL     1      23.997  -0.180  53.553  1.00  0.00     0.034 A 
HETATM    5  C8  UNL     1      24.526   0.817  52.641  1.00  0.00     0.022 A 
HETATM    6  C9  UNL     1      25.718   1.261  52.153  1.00  0.00     0.081 A 
HETATM    7  N1  UNL     1      25.660   2.264  51.296  1.00  0.00    -0.240 NA
HETATM    8  C16 UNL     1      24.662   2.939  50.807  1.00  0.00     0.234 A 
HETATM    9  N2  UNL     1      23.472   2.502  51.292  1.00  0.00    -0.242 NA
HETATM   10  C17 UNL     1      23.413   1.482  52.172  1.00  0.00     0.082 A 
ENDROOT
BRANCH   6  11
HETATM   11  C10 UNL     1      26.938   0.603  52.611  1.00  0.00    -0.005 A 
HETATM   12  C11 UNL     1      27.864   1.554  53.094  1.00  0.00     0.017 A 
HETATM   13  C12 UNL     1      29.037   0.934  53.541  1.00  0.00     0.045 A 
HETATM   14  C13 UNL     1      29.401  -0.376  53.580  1.00  0.00     0.138 A 
HETATM   15  F1  UNL     1      30.591  -0.798  54.055  1.00  0.00    -0.204 F 
HETATM   16  C14 UNL     1      28.413  -1.193  53.083  1.00  0.00     0.073 A 
HETATM   17 CL1  UNL     1      28.707  -2.940  53.047  1.00  0.00    -0.081 Cl
HETATM   18  C15 UNL     1      27.192  -0.780  52.596  1.00  0.00     0.041 A 
ENDBRANCH   6  11
BRANCH   1  19
HETATM   19  O2  UNL     1      21.184   0.712  51.934  1.00  0.00    -0.372 OA
BRANCH  19  20
HETATM   20  C4  UNL     1      20.281   0.448  51.114  1.00  0.00     0.195 C 
BRANCH  20  21
HETATM   21  C3  UNL     1      18.910   0.288  51.780  1.00  0.00     0.200 C 
BRANCH  21  22
HETATM   22  O1  UNL     1      18.905  -0.777  52.746  1.00  0.00    -0.362 OA
BRANCH  22  23
HETATM   23  C2  UNL     1      17.647  -1.265  53.178  1.00  0.00     0.124 C 
HETATM   24  C1  UNL     1      17.784  -2.508  53.602  1.00  0.00     0.037 C 
ENDBRANCH  22  23
ENDBRANCH  21  22
ENDBRANCH  20  21
ENDBRANCH  19  20
ENDBRANCH   1  19
TORSDOF 6
ENDMDL
MODEL 2
REMARK VINA RESULT:      -7.8      1.455      2.511
REMARK  6 active torsions:
REMARK  status: ('A' for Active; 'I' for Inactive)
REMARK    1  A    between atoms: C2_2  and  O1_3 
REMARK    2  A    between atoms: O1_3  and  C3_4 
REMARK    3  A    between atoms: C3_4  and  C4_5 
REMARK    4  A    between atoms: C4_5  and  O2_6 
REMARK    5  A    between atoms: O2_6  and  C5_7 
REMARK    6  A    between atoms: C9_12  and  C10_13 
ROOT
HETATM    1  C5  UNL     1      22.125   1.092  52.713  1.00  0.00     0.214 A 
HETATM    2  C6  UNL     1      22.662  -0.026  53.553  1.00  0.00     0.024 A 
HETATM    3 BR1  UNL     1      21.493  -1.161  54.559  1.00  0.00    -0.053 Br
HETATM    4  C7  UNL     1      24.005  -0.130  53.506  1.00  0.00     0.034 A 
HETATM    5  C8  UNL     1      24.570   0.887  52.638  1.00  0.00     0.022 A 
HETATM    6  C9  UNL     1      25.779   1.322  52.184  1.00  0.00     0.081 A 
HETATM    7  N1  UNL     1      25.755   2.356  51.363  1.00  0.00    -0.240 NA
HETATM    8  C16 UNL     1      24.780   3.069  50.884  1.00  0.00     0.234 A 
HETATM    9  N2  UNL     1      23.574   2.641  51.334  1.00  0.00    -0.242 NA
HETATM   10  C17 UNL     1      23.479   1.592  52.176  1.00  0.00     0.082 A 
ENDROOT
BRANCH   6  11
HETATM   11  C10 UNL     1      26.977   0.622  52.637  1.00  0.00    -0.005 A 
HETATM   12  C11 UNL     1      27.929   1.538  53.137  1.00  0.00     0.017 A 
HETATM   13  C12 UNL     1      29.081   0.878  53.579  1.00  0.00     0.045 A 
HETATM   14  C13 UNL     1      29.407  -0.444  53.600  1.00  0.00     0.138 A 
HETATM   15  F1  UNL     1      30.581  -0.907  54.073  1.00  0.00    -0.204 F 
HETATM   16  C14 UNL     1      28.397  -1.224  53.088  1.00  0.00     0.073 A 
HETATM   17 CL1  UNL     1      28.639  -2.977  53.028  1.00  0.00    -0.081 Cl
HETATM   18  C15 UNL     1      27.190  -0.768  52.602  1.00  0.00     0.041 A 
ENDBRANCH   6  11
BRANCH   1  19
HETATM   19  O2  UNL     1      21.238   0.880  51.877  1.00  0.00    -0.372 OA
BRANCH  19  20
HETATM   20  C4  UNL     1      20.343   0.665  51.034  1.00  0.00     0.195 C 
BRANCH  20  21
HETATM   21  C3  UNL     1      20.031   1.899  50.181  1.00  0.00     0.200 C 
BRANCH  21  22
HETATM   22  O1  UNL     1      20.424   1.717  48.810  1.00  0.00    -0.362 OA
BRANCH  22  23
HETATM   23  C2  UNL     1      21.736   1.243  48.562  1.00  0.00     0.124 C 
HETATM   24  C1  UNL     1      22.344   2.064  47.725  1.00  0.00     0.037 C 
ENDBRANCH  22  23
ENDBRANCH  21  22
ENDBRANCH  20  21
ENDBRANCH  19  20
ENDBRANCH   1  19
TORSDOF 6
ENDMDL
MODEL 3
REMARK VINA RESULT:      -7.7      2.932      3.622
REMARK  6 active torsions:
REMARK  status: ('A' for Active; 'I' for Inactive)
REMARK    1  A    between atoms: C2_2  and  O1_3 
REMARK    2  A    between atoms: O1_3  and  C3_4 
REMARK    3  A    between atoms: C3_4  and  C4_5 
REMARK    4  A    between atoms: C4_5  and  O2_6 
REMARK    5  A    between atoms: O2_6  and  C5_7 
REMARK    6  A    between atoms: C9_12  and  C10_13 
ROOT
HETATM    1  C5  UNL     1      22.172   1.450  51.571  1.00  0.00     0.214 A 
HETATM    2  C6  UNL     1      23.418   2.010  50.959  1.00  0.00     0.024 A 
HETATM    3 BR1  UNL     1      23.337   3.244  49.496  1.00  0.00    -0.053 Br
HETATM    4  C7  UNL     1      24.547   1.563  51.544  1.00  0.00     0.034 A 
HETATM    5  C8  UNL     1      24.238   0.647  52.626  1.00  0.00     0.022 A 
HETATM    6  C9  UNL     1      24.866  -0.120  53.560  1.00  0.00     0.081 A 
HETATM    7  N1  UNL     1      24.085  -0.822  54.360  1.00  0.00    -0.240 NA
HETATM    8  C16 UNL     1      22.792  -0.934  54.441  1.00  0.00     0.234 A 
HETATM    9  N2  UNL     1      22.161  -0.172  53.512  1.00  0.00    -0.242 NA
HETATM   10  C17 UNL     1      22.861   0.586  52.643  1.00  0.00     0.082 A 
ENDROOT
BRANCH   6  11
HETATM   11  C10 UNL     1      26.326  -0.105  53.595  1.00  0.00    -0.005 A 
HETATM   12  C11 UNL     1      26.848  -1.303  53.059  1.00  0.00     0.017 A 
HETATM   13  C12 UNL     1      28.248  -1.297  53.082  1.00  0.00     0.045 A 
HETATM   14  C13 UNL     1      29.135  -0.363  53.520  1.00  0.00     0.138 A 
HETATM   15  F1  UNL     1      30.472  -0.529  53.462  1.00  0.00    -0.204 F 
HETATM   16  C14 UNL     1      28.498   0.750  54.015  1.00  0.00     0.073 A 
HETATM   17 CL1  UNL     1      29.490   2.079  54.638  1.00  0.00    -0.081 Cl
HETATM   18  C15 UNL     1      27.134   0.938  54.081  1.00  0.00     0.041 A 
ENDBRANCH   6  11
BRANCH   1  19
HETATM   19  O2  UNL     1      21.268   2.202  51.957  1.00  0.00    -0.372 OA
BRANCH  19  20
HETATM   20  C4  UNL     1      20.356   2.960  52.346  1.00  0.00     0.195 C 
BRANCH  20  21
HETATM   21  C3  UNL     1      19.085   2.831  51.499  1.00  0.00     0.200 C 
BRANCH  21  22
HETATM   22  O1  UNL     1      18.075   3.772  51.901  1.00  0.00    -0.362 OA
BRANCH  22  23
HETATM   23  C2  UNL     1      16.722   3.365  51.799  1.00  0.00     0.124 C 
HETATM   24  C1  UNL     1      15.941   4.344  52.217  1.00  0.00     0.037 C 
ENDBRANCH  22  23
ENDBRANCH  21  22
ENDBRANCH  20  21
ENDBRANCH  19  20
ENDBRANCH   1  19
TORSDOF 6
ENDMDL
MODEL 4
REMARK VINA RESULT:      -7.5      4.794      8.297
REMARK  6 active torsions:
REMARK  status: ('A' for Active; 'I' for Inactive)
REMARK    1  A    between atoms: C2_2  and  O1_3 
REMARK    2  A    between atoms: O1_3  and  C3_4 
REMARK    3  A    between atoms: C3_4  and  C4_5 
REMARK    4  A    between atoms: C4_5  and  O2_6 
REMARK    5  A    between atoms: O2_6  and  C5_7 
REMARK    6  A    between atoms: C9_12  and  C10_13 
ROOT
HETATM    1  C5  UNL     1      24.458   0.897  52.870  1.00  0.00     0.214 A 
HETATM    2  C6  UNL     1      23.473   1.439  51.881  1.00  0.00     0.024 A 
HETATM    3 BR1  UNL     1      24.002   2.712  50.551  1.00  0.00    -0.053 Br
HETATM    4  C7  UNL     1      22.233   0.935  52.034  1.00  0.00     0.034 A 
HETATM    5  C8  UNL     1      22.193  -0.010  53.134  1.00  0.00     0.022 A 
HETATM    6  C9  UNL     1      21.313  -0.819  53.787  1.00  0.00     0.081 A 
HETATM    7  N1  UNL     1      21.802  -1.521  54.793  1.00  0.00    -0.240 NA
HETATM    8  C16 UNL     1      22.995  -1.601  55.304  1.00  0.00     0.234 A 
HETATM    9  N2  UNL     1      23.876  -0.796  54.657  1.00  0.00    -0.242 NA
HETATM   10  C17 UNL     1      23.484  -0.034  53.615  1.00  0.00     0.082 A 
ENDROOT
BRANCH   6  11
HETATM   11  C10 UNL     1      19.926  -0.839  53.331  1.00  0.00    -0.005 A 
HETATM   12  C11 UNL     1      19.232  -1.930  53.900  1.00  0.00     0.017 A 
HETATM   13  C12 UNL     1      17.899  -1.956  53.474  1.00  0.00     0.045 A 
HETATM   14  C13 UNL     1      17.206  -1.134  52.639  1.00  0.00     0.138 A 
HETATM   15  F1  UNL     1      15.904  -1.314  52.338  1.00  0.00    -0.204 F 
HETATM   16  C14 UNL     1      17.996  -0.118  52.157  1.00  0.00     0.073 A 
HETATM   17 CL1  UNL     1      17.270   1.056  51.047  1.00  0.00    -0.081 Cl
HETATM   18  C15 UNL     1      19.327   0.083  52.455  1.00  0.00     0.041 A 
ENDBRANCH   6  11
BRANCH   1  19
HETATM   19  O2  UNL     1      25.524   0.399  52.488  1.00  0.00    -0.372 OA
BRANCH  19  20
HETATM   20  C4  UNL     1      26.600  -0.103  52.103  1.00  0.00     0.195 C 
BRANCH  20  21
HETATM   21  C3  UNL     1      27.117  -1.188  53.054  1.00  0.00     0.200 C 
BRANCH  21  22
HETATM   22  O1  UNL     1      27.631  -0.630  54.275  1.00  0.00    -0.362 OA
BRANCH  22  23
HETATM   23  C2  UNL     1      28.958  -0.135  54.262  1.00  0.00     0.124 C 
HETATM   24  C1  UNL     1      29.761  -1.054  53.759  1.00  0.00     0.037 C 
ENDBRANCH  22  23
ENDBRANCH  21  22
ENDBRANCH  20  21
ENDBRANCH  19  20
ENDBRANCH   1  19
TORSDOF 6
ENDMDL
MODEL 5
REMARK VINA RESULT:      -7.5      3.070      4.448
REMARK  6 active torsions:
REMARK  status: ('A' for Active; 'I' for Inactive)
REMARK    1  A    between atoms: C2_2  and  O1_3 
REMARK    2  A    between atoms: O1_3  and  C3_4 
REMARK    3  A    between atoms: C3_4  and  C4_5 
REMARK    4  A    between atoms: C4_5  and  O2_6 
REMARK    5  A    between atoms: O2_6  and  C5_7 
REMARK    6  A    between atoms: C9_12  and  C10_13 
ROOT
HETATM    1  C5  UNL     1      22.463   1.716  51.287  1.00  0.00     0.214 A 
HETATM    2  C6  UNL     1      23.762   2.239  50.757  1.00  0.00     0.024 A 
HETATM    3 BR1  UNL     1      23.810   3.500  49.315  1.00  0.00    -0.053 Br
HETATM    4  C7  UNL     1      24.838   1.740  51.397  1.00  0.00     0.034 A 
HETATM    5  C8  UNL     1      24.434   0.818  52.442  1.00  0.00     0.022 A 
HETATM    6  C9  UNL     1      24.979   0.012  53.395  1.00  0.00     0.081 A 
HETATM    7  N1  UNL     1      24.128  -0.673  54.136  1.00  0.00    -0.240 NA
HETATM    8  C16 UNL     1      22.830  -0.738  54.141  1.00  0.00     0.234 A 
HETATM    9  N2  UNL     1      22.281   0.063  53.193  1.00  0.00    -0.242 NA
HETATM   10  C17 UNL     1      23.057   0.808  52.380  1.00  0.00     0.082 A 
ENDROOT
BRANCH   6  11
HETATM   11  C10 UNL     1      26.434  -0.028  53.513  1.00  0.00    -0.005 A 
HETATM   12  C11 UNL     1      26.941  -1.245  53.007  1.00  0.00     0.017 A 
HETATM   13  C12 UNL     1      28.336  -1.293  53.110  1.00  0.00     0.045 A 
HETATM   14  C13 UNL     1      29.232  -0.392  53.598  1.00  0.00     0.138 A 
HETATM   15  F1  UNL     1      30.562  -0.609  53.617  1.00  0.00    -0.204 F 
HETATM   16  C14 UNL     1      28.609   0.745  54.058  1.00  0.00     0.073 A 
HETATM   17 CL1  UNL     1      29.614   2.036  54.737  1.00  0.00    -0.081 Cl
HETATM   18  C15 UNL     1      27.252   0.985  54.045  1.00  0.00     0.041 A 
ENDBRANCH   6  11
BRANCH   1  19
HETATM   19  O2  UNL     1      21.567   2.494  51.635  1.00  0.00    -0.372 OA
BRANCH  19  20
HETATM   20  C4  UNL     1      20.663   3.281  51.986  1.00  0.00     0.195 C 
BRANCH  20  21
HETATM   21  C3  UNL     1      20.999   4.742  51.667  1.00  0.00     0.200 C 
BRANCH  21  22
HETATM   22  O1  UNL     1      20.634   5.095  50.322  1.00  0.00    -0.362 OA
BRANCH  22  23
HETATM   23  C2  UNL     1      21.165   6.296  49.792  1.00  0.00     0.124 C 
HETATM   24  C1  UNL     1      21.625   7.042  50.780  1.00  0.00     0.037 C 
ENDBRANCH  22  23
ENDBRANCH  21  22
ENDBRANCH  20  21
ENDBRANCH  19  20
ENDBRANCH   1  19
TORSDOF 6
ENDMDL
MODEL 6
REMARK VINA RESULT:      -7.4      4.822      8.110
REMARK  6 active torsions:
REMARK  status: ('A' for Active; 'I' for Inactive)
REMARK    1  A    between atoms: C2_2  and  O1_3 
REMARK    2  A    between atoms: O1_3  and  C3_4 
REMARK    3  A    between atoms: C3_4  and  C4_5 
REMARK    4  A    between atoms: C4_5  and  O2_6 
REMARK    5  A    between atoms: O2_6  and  C5_7 
REMARK    6  A    between atoms: C9_12  and  C10_13 
ROOT
HETATM    1  C5  UNL     1      25.163   0.393  53.154  1.00  0.00     0.214 A 
HETATM    2  C6  UNL     1      24.787   1.346  52.062  1.00  0.00     0.024 A 
HETATM    3 BR1  UNL     1      26.122   2.291  51.066  1.00  0.00    -0.053 Br
HETATM    4  C7  UNL     1      23.456   1.443  51.875  1.00  0.00     0.034 A 
HETATM    5  C8  UNL     1      22.742   0.582  52.799  1.00  0.00     0.022 A 
HETATM    6  C9  UNL     1      21.468   0.229  53.130  1.00  0.00     0.081 A 
HETATM    7  N1  UNL     1      21.342  -0.647  54.110  1.00  0.00    -0.240 NA
HETATM    8  C16 UNL     1      22.216  -1.264  54.848  1.00  0.00     0.234 A 
HETATM    9  N2  UNL     1      23.486  -0.916  54.523  1.00  0.00    -0.242 NA
HETATM   10  C17 UNL     1      23.733  -0.029  53.537  1.00  0.00     0.082 A 
ENDROOT
BRANCH   6  11
HETATM   11  C10 UNL     1      20.369   0.842  52.390  1.00  0.00    -0.005 A 
HETATM   12  C11 UNL     1      20.327   2.234  52.625  1.00  0.00     0.017 A 
HETATM   13  C12 UNL     1      19.280   2.833  51.915  1.00  0.00     0.045 A 
HETATM   14  C13 UNL     1      18.345   2.307  51.078  1.00  0.00     0.138 A 
HETATM   15  F1  UNL     1      17.396   3.048  50.470  1.00  0.00    -0.204 F 
HETATM   16  C14 UNL     1      18.498   0.948  50.936  1.00  0.00     0.073 A 
HETATM   17 CL1  UNL     1      17.368   0.081  49.883  1.00  0.00    -0.081 Cl
HETATM   18  C15 UNL     1      19.463   0.175  51.547  1.00  0.00     0.041 A 
ENDBRANCH   6  11
BRANCH   1  19
HETATM   19  O2  UNL     1      25.976  -0.515  52.944  1.00  0.00    -0.372 OA
BRANCH  19  20
HETATM   20  C4  UNL     1      26.794  -1.433  52.731  1.00  0.00     0.195 C 
BRANCH  20  21
HETATM   21  C3  UNL     1      28.216  -1.067  53.171  1.00  0.00     0.200 C 
BRANCH  21  22
HETATM   22  O1  UNL     1      28.246  -0.554  54.513  1.00  0.00    -0.362 OA
BRANCH  22  23
HETATM   23  C2  UNL     1      28.981   0.635  54.745  1.00  0.00     0.124 C 
HETATM   24  C1  UNL     1      28.756   1.485  53.760  1.00  0.00     0.037 C 
ENDBRANCH  22  23
ENDBRANCH  21  22
ENDBRANCH  20  21
ENDBRANCH  19  20
ENDBRANCH   1  19
TORSDOF 6
ENDMDL
MODEL 7
REMARK VINA RESULT:      -7.3      3.919      5.033
REMARK  6 active torsions:
REMARK  status: ('A' for Active; 'I' for Inactive)
REMARK    1  A    between atoms: C2_2  and  O1_3 
REMARK    2  A    between atoms: O1_3  and  C3_4 
REMARK    3  A    between atoms: C3_4  and  C4_5 
REMARK    4  A    between atoms: C4_5  and  O2_6 
REMARK    5  A    between atoms: O2_6  and  C5_7 
REMARK    6  A    between atoms: C9_12  and  C10_13 
ROOT
HETATM    1  C5  UNL     1      24.580   4.071  49.273  1.00  0.00     0.214 A 
HETATM    2  C6  UNL     1      26.049   4.257  49.501  1.00  0.00     0.024 A 
HETATM    3 BR1  UNL     1      27.029   5.626  48.588  1.00  0.00    -0.053 Br
HETATM    4  C7  UNL     1      26.564   3.386  50.392  1.00  0.00     0.034 A 
HETATM    5  C8  UNL     1      25.535   2.494  50.893  1.00  0.00     0.022 A 
HETATM    6  C9  UNL     1      25.386   1.446  51.751  1.00  0.00     0.081 A 
HETATM    7  N1  UNL     1      24.168   0.948  51.857  1.00  0.00    -0.240 NA
HETATM    8  C16 UNL     1      23.042   1.266  51.290  1.00  0.00     0.234 A 
HETATM    9  N2  UNL     1      23.185   2.308  50.433  1.00  0.00    -0.242 NA
HETATM   10  C17 UNL     1      24.386   2.895  50.247  1.00  0.00     0.082 A 
ENDROOT
BRANCH   6  11
HETATM   11  C10 UNL     1      26.566   0.968  52.466  1.00  0.00    -0.005 A 
HETATM   12  C11 UNL     1      26.705  -0.429  52.317  1.00  0.00     0.017 A 
HETATM   13  C12 UNL     1      27.837  -0.898  52.994  1.00  0.00     0.045 A 
HETATM   14  C13 UNL     1      28.774  -0.248  53.736  1.00  0.00     0.138 A 
HETATM   15  F1  UNL     1      29.815  -0.872  54.324  1.00  0.00    -0.204 F 
HETATM   16  C14 UNL     1      28.521   1.102  53.802  1.00  0.00     0.073 A 
HETATM   17 CL1  UNL     1      29.634   2.121  54.730  1.00  0.00    -0.081 Cl
HETATM   18  C15 UNL     1      27.464   1.757  53.206  1.00  0.00     0.041 A 
ENDBRANCH   6  11
BRANCH   1  19
HETATM   19  O2  UNL     1      23.800   5.025  49.388  1.00  0.00    -0.372 OA
BRANCH  19  20
HETATM   20  C4  UNL     1      23.015   5.988  49.503  1.00  0.00     0.195 C 
BRANCH  20  21
HETATM   21  C3  UNL     1      21.780   5.642  50.342  1.00  0.00     0.200 C 
BRANCH  21  22
HETATM   22  O1  UNL     1      22.002   5.872  51.743  1.00  0.00    -0.362 OA
BRANCH  22  23
HETATM   23  C2  UNL     1      22.233   4.742  52.565  1.00  0.00     0.124 C 
HETATM   24  C1  UNL     1      23.457   4.805  53.057  1.00  0.00     0.037 C 
ENDBRANCH  22  23
ENDBRANCH  21  22
ENDBRANCH  20  21
ENDBRANCH  19  20
ENDBRANCH   1  19
TORSDOF 6
ENDMDL
MODEL 8
REMARK VINA RESULT:      -7.2      3.892      6.226
REMARK  6 active torsions:
REMARK  status: ('A' for Active; 'I' for Inactive)
REMARK    1  A    between atoms: C2_2  and  O1_3 
REMARK    2  A    between atoms: O1_3  and  C3_4 
REMARK    3  A    between atoms: C3_4  and  C4_5 
REMARK    4  A    between atoms: C4_5  and  O2_6 
REMARK    5  A    between atoms: O2_6  and  C5_7 
REMARK    6  A    between atoms: C9_12  and  C10_13 
ROOT
HETATM    1  C5  UNL     1      24.767   4.177  49.495  1.00  0.00     0.214 A 
HETATM    2  C6  UNL     1      26.257   4.092  49.617  1.00  0.00     0.024 A 
HETATM    3 BR1  UNL     1      27.402   5.266  48.628  1.00  0.00    -0.053 Br
HETATM    4  C7  UNL     1      26.667   3.137  50.474  1.00  0.00     0.034 A 
HETATM    5  C8  UNL     1      25.532   2.442  51.053  1.00  0.00     0.022 A 
HETATM    6  C9  UNL     1      25.257   1.434  51.927  1.00  0.00     0.081 A 
HETATM    7  N1  UNL     1      23.979   1.164  52.122  1.00  0.00    -0.240 NA
HETATM    8  C16 UNL     1      22.892   1.684  51.634  1.00  0.00     0.234 A 
HETATM    9  N2  UNL     1      23.161   2.689  50.762  1.00  0.00    -0.242 NA
HETATM   10  C17 UNL     1      24.431   3.049  50.488  1.00  0.00     0.082 A 
ENDROOT
BRANCH   6  11
HETATM   11  C10 UNL     1      26.378   0.745  52.560  1.00  0.00    -0.005 A 
HETATM   12  C11 UNL     1      27.070   1.618  53.428  1.00  0.00     0.017 A 
HETATM   13  C12 UNL     1      28.145   0.967  54.046  1.00  0.00     0.045 A 
HETATM   14  C13 UNL     1      28.600  -0.312  53.943  1.00  0.00     0.138 A 
HETATM   15  F1  UNL     1      29.666  -0.774  54.626  1.00  0.00    -0.204 F 
HETATM   16  C14 UNL     1      27.839  -1.053  53.069  1.00  0.00     0.073 A 
HETATM   17 CL1  UNL     1      28.280  -2.746  52.798  1.00  0.00    -0.081 Cl
HETATM   18  C15 UNL     1      26.745  -0.598  52.364  1.00  0.00     0.041 A 
ENDBRANCH   6  11
BRANCH   1  19
HETATM   19  O2  UNL     1      24.183   5.255  49.658  1.00  0.00    -0.372 OA
BRANCH  19  20
HETATM   20  C4  UNL     1      23.594   6.343  49.824  1.00  0.00     0.195 C 
BRANCH  20  21
HETATM   21  C3  UNL     1      24.341   7.275  50.784  1.00  0.00     0.200 C 
BRANCH  21  22
HETATM   22  O1  UNL     1      25.693   7.513  50.358  1.00  0.00    -0.362 OA
BRANCH  22  23
HETATM   23  C2  UNL     1      26.097   8.858  50.179  1.00  0.00     0.124 C 
HETATM   24  C1  UNL     1      25.587   9.320  49.052  1.00  0.00     0.037 C 
ENDBRANCH  22  23
ENDBRANCH  21  22
ENDBRANCH  20  21
ENDBRANCH  19  20
ENDBRANCH   1  19
TORSDOF 6
ENDMDL
MODEL 9
REMARK VINA RESULT:      -7.1      2.698      3.292
REMARK  6 active torsions:
REMARK  status: ('A' for Active; 'I' for Inactive)
REMARK    1  A    between atoms: C2_2  and  O1_3 
REMARK    2  A    between atoms: O1_3  and  C3_4 
REMARK    3  A    between atoms: C3_4  and  C4_5 
REMARK    4  A    between atoms: C4_5  and  O2_6 
REMARK    5  A    between atoms: O2_6  and  C5_7 
REMARK    6  A    between atoms: C9_12  and  C10_13 
ROOT
HETATM    1  C5  UNL     1      22.736   2.594  51.001  1.00  0.00     0.214 A 
HETATM    2  C6  UNL     1      24.125   2.978  50.592  1.00  0.00     0.024 A 
HETATM    3 BR1  UNL     1      24.432   4.337  49.278  1.00  0.00    -0.053 Br
HETATM    4  C7  UNL     1      25.082   2.283  51.239  1.00  0.00     0.034 A 
HETATM    5  C8  UNL     1      24.492   1.340  52.171  1.00  0.00     0.022 A 
HETATM    6  C9  UNL     1      24.863   0.389  53.073  1.00  0.00     0.081 A 
HETATM    7  N1  UNL     1      23.882  -0.233  53.700  1.00  0.00    -0.240 NA
HETATM    8  C16 UNL     1      22.589  -0.120  53.631  1.00  0.00     0.234 A 
HETATM    9  N2  UNL     1      22.214   0.826  52.733  1.00  0.00    -0.242 NA
HETATM   10  C17 UNL     1      23.133   1.525  52.035  1.00  0.00     0.082 A 
ENDROOT
BRANCH   6  11
HETATM   11  C10 UNL     1      26.289   0.140  53.265  1.00  0.00    -0.005 A 
HETATM   12  C11 UNL     1      26.943   1.312  53.705  1.00  0.00     0.017 A 
HETATM   13  C12 UNL     1      28.311   1.084  53.897  1.00  0.00     0.045 A 
HETATM   14  C13 UNL     1      29.066  -0.036  53.734  1.00  0.00     0.138 A 
HETATM   15  F1  UNL     1      30.393  -0.074  53.972  1.00  0.00    -0.204 F 
HETATM   16  C14 UNL     1      28.310  -1.101  53.303  1.00  0.00     0.073 A 
HETATM   17 CL1  UNL     1      29.121  -2.651  53.028  1.00  0.00    -0.081 Cl
HETATM   18  C15 UNL     1      26.954  -1.081  53.056  1.00  0.00     0.041 A 
ENDBRANCH   6  11
BRANCH   1  19
HETATM   19  O2  UNL     1      21.929   3.456  51.371  1.00  0.00    -0.372 OA
BRANCH  19  20
HETATM   20  C4  UNL     1      21.116   4.325  51.746  1.00  0.00     0.195 C 
BRANCH  20  21
HETATM   21  C3  UNL     1      19.713   4.104  51.170  1.00  0.00     0.200 C 
BRANCH  21  22
HETATM   22  O1  UNL     1      18.879   3.348  52.065  1.00  0.00    -0.362 OA
BRANCH  22  23
HETATM   23  C2  UNL     1      18.262   2.179  51.556  1.00  0.00     0.124 C 
HETATM   24  C1  UNL     1      18.963   1.727  50.532  1.00  0.00     0.037 C 
ENDBRANCH  22  23
ENDBRANCH  21  22
ENDBRANCH  20  21
ENDBRANCH  19  20
ENDBRANCH   1  19
TORSDOF 6
ENDMDL
