MODEL 1
REMARK VINA RESULT:      -8.2      0.000      0.000
REMARK  6 active torsions:
REMARK  status: ('A' for Active; 'I' for Inactive)
REMARK    1  A    between atoms: O1_2  and  C2_3 
REMARK    2  A    between atoms: C2_3  and  C3_4 
REMARK    3  A    between atoms: C7_9  and  N1_10 
REMARK    4  A    between atoms: N1_10  and  C8_11 
REMARK    5  A    between atoms: C18_24  and  C19_25 
REMARK    6  A    between atoms: C19_25  and  O4_26 
ROOT
HETATM    1  C3  UNL     1      27.144   0.727  53.779  1.00  0.00     0.184 C 
HETATM    2  O2  UNL     1      26.391   1.885  54.176  1.00  0.00    -0.338 OA
HETATM    3  C4  UNL     1      25.209   2.099  53.480  1.00  0.00     0.103 C 
HETATM    4  C5  UNL     1      24.677   3.326  53.423  1.00  0.00     0.051 C 
HETATM    5  C6  UNL     1      23.466   3.395  52.617  1.00  0.00     0.003 A 
HETATM    6  C7  UNL     1      22.864   4.394  51.994  1.00  0.00     0.134 A 
HETATM    7  N2  UNL     1      21.757   3.928  51.233  1.00  0.00    -0.246 NA
HETATM    8  C14 UNL     1      21.631   2.631  51.373  1.00  0.00     0.105 A 
HETATM    9  C15 UNL     1      22.669   2.229  52.271  1.00  0.00     0.088 A 
HETATM   10  C16 UNL     1      23.374   0.955  52.182  1.00  0.00     0.028 C 
HETATM   11  C17 UNL     1      24.576   0.972  52.806  1.00  0.00     0.100 C 
HETATM   12  O3  UNL     1      25.228  -0.278  52.842  1.00  0.00    -0.339 OA
HETATM   13  C18 UNL     1      26.211  -0.445  53.849  1.00  0.00     0.184 C 
ENDROOT
BRANCH   6  14
HETATM   14  N1  UNL     1      23.314   5.758  51.990  1.00  0.00    -0.341 N 
HETATM   15  H8  UNL     1      22.970   6.347  52.804  1.00  0.00     0.167 HD
BRANCH  14  16
HETATM   16  C8  UNL     1      24.151   6.404  51.042  1.00  0.00     0.035 A 
HETATM   17  C9  UNL     1      24.036   7.758  50.751  1.00  0.00     0.029 A 
HETATM   18  C10 UNL     1      24.889   8.280  49.825  1.00  0.00     0.004 A 
HETATM   19  C11 UNL     1      25.866   7.569  49.146  1.00  0.00     0.024 A 
HETATM   20  C12 UNL     1      25.975   6.224  49.440  1.00  0.00     0.036 A 
HETATM   21 CL1  UNL     1      27.204   5.337  48.585  1.00  0.00    -0.084 Cl
HETATM   22  C13 UNL     1      25.109   5.670  50.388  1.00  0.00     0.053 A 
ENDBRANCH  14  16
ENDBRANCH   6  14
BRANCH   1  23
HETATM   23  C2  UNL     1      28.362   0.559  54.654  1.00  0.00     0.202 C 
BRANCH  23  24
HETATM   24  O1  UNL     1      28.833  -0.754  54.417  1.00  0.00    -0.393 OA
HETATM   25  C1  UNL     1      29.935  -0.595  53.558  1.00  0.00     0.201 C 
ENDBRANCH  23  24
ENDBRANCH   1  23
BRANCH  13  26
HETATM   26  C19 UNL     1      25.516  -0.474  55.216  1.00  0.00     0.202 C 
BRANCH  26  27
HETATM   27  O4  UNL     1      24.744  -1.590  55.409  1.00  0.00    -0.393 OA
HETATM   28  C20 UNL     1      23.395  -1.361  55.570  1.00  0.00     0.201 C 
ENDBRANCH  26  27
ENDBRANCH  13  26
TORSDOF 6
ENDMDL
MODEL 2
REMARK VINA RESULT:      -7.9      3.610      7.090
REMARK  6 active torsions:
REMARK  status: ('A' for Active; 'I' for Inactive)
REMARK    1  A    between atoms: O1_2  and  C2_3 
REMARK    2  A    between atoms: C2_3  and  C3_4 
REMARK    3  A    between atoms: C7_9  and  N1_10 
REMARK    4  A    between atoms: N1_10  and  C8_11 
REMARK    5  A    between atoms: C18_24  and  C19_25 
REMARK    6  A    between atoms: C19_25  and  O4_26 
ROOT
HETATM    1  C3  UNL     1      21.788   4.385  52.163  1.00  0.00     0.184 C 
HETATM    2  O2  UNL     1      22.716   3.292  52.066  1.00  0.00    -0.338 OA
HETATM    3  C4  UNL     1      22.303   2.102  52.649  1.00  0.00     0.103 C 
HETATM    4  C5  UNL     1      23.208   1.191  53.027  1.00  0.00     0.051 C 
HETATM    5  C6  UNL     1      22.621   0.021  53.664  1.00  0.00     0.003 A 
HETATM    6  C7  UNL     1      23.110  -0.884  54.495  1.00  0.00     0.134 A 
HETATM    7  N2  UNL     1      22.094  -1.778  54.932  1.00  0.00    -0.246 NA
HETATM    8  C14 UNL     1      20.950  -1.464  54.375  1.00  0.00     0.105 A 
HETATM    9  C15 UNL     1      21.219  -0.345  53.527  1.00  0.00     0.088 A 
HETATM   10  C16 UNL     1      20.278   0.743  53.291  1.00  0.00     0.028 C 
HETATM   11  C17 UNL     1      20.877   1.875  52.852  1.00  0.00     0.100 C 
HETATM   12  O3  UNL     1      19.982   2.907  52.500  1.00  0.00    -0.339 OA
HETATM   13  C18 UNL     1      20.480   3.896  51.616  1.00  0.00     0.184 C 
ENDROOT
BRANCH   6  14
HETATM   14  N1  UNL     1      24.460  -0.914  54.983  1.00  0.00    -0.341 N 
HETATM   15  H8  UNL     1      24.558  -1.122  56.020  1.00  0.00     0.167 HD
BRANCH  14  16
HETATM   16  C8  UNL     1      25.663  -0.701  54.258  1.00  0.00     0.035 A 
HETATM   17  C9  UNL     1      25.902  -1.297  53.026  1.00  0.00     0.029 A 
HETATM   18  C10 UNL     1      27.089  -1.026  52.413  1.00  0.00     0.004 A 
HETATM   19  C11 UNL     1      28.082  -0.202  52.920  1.00  0.00     0.024 A 
HETATM   20  C12 UNL     1      27.837   0.387  54.144  1.00  0.00     0.036 A 
HETATM   21 CL1  UNL     1      29.086   1.421  54.775  1.00  0.00    -0.084 Cl
HETATM   22  C13 UNL     1      26.625   0.122  54.788  1.00  0.00     0.053 A 
ENDBRANCH  14  16
ENDBRANCH   6  14
BRANCH   1  23
HETATM   23  C2  UNL     1      22.312   5.596  51.431  1.00  0.00     0.202 C 
BRANCH  23  24
HETATM   24  O1  UNL     1      23.663   5.736  51.827  1.00  0.00    -0.393 OA
HETATM   25  C1  UNL     1      24.137   6.849  51.111  1.00  0.00     0.201 C 
ENDBRANCH  23  24
ENDBRANCH   1  23
BRANCH  13  26
HETATM   26  C19 UNL     1      20.699   3.261  50.237  1.00  0.00     0.202 C 
BRANCH  26  27
HETATM   27  O4  UNL     1      19.561   2.715  49.704  1.00  0.00    -0.393 OA
HETATM   28  C20 UNL     1      19.242   3.128  48.429  1.00  0.00     0.201 C 
ENDBRANCH  26  27
ENDBRANCH  13  26
TORSDOF 6
ENDMDL
MODEL 3
REMARK VINA RESULT:      -7.9      3.590      6.508
REMARK  6 active torsions:
REMARK  status: ('A' for Active; 'I' for Inactive)
REMARK    1  A    between atoms: O1_2  and  C2_3 
REMARK    2  A    between atoms: C2_3  and  C3_4 
REMARK    3  A    between atoms: C7_9  and  N1_10 
REMARK    4  A    between atoms: N1_10  and  C8_11 
REMARK    5  A    between atoms: C18_24  and  C19_25 
REMARK    6  A    between atoms: C19_25  and  O4_26 
ROOT
HETATM    1  C3  UNL     1      21.287   0.270  52.773  1.00  0.00     0.184 C 
HETATM    2  O2  UNL     1      22.271   1.156  53.333  1.00  0.00    -0.338 OA
HETATM    3  C4  UNL     1      23.158   1.716  52.425  1.00  0.00     0.103 C 
HETATM    4  C5  UNL     1      24.351   2.161  52.839  1.00  0.00     0.051 C 
HETATM    5  C6  UNL     1      25.184   2.675  51.762  1.00  0.00     0.003 A 
HETATM    6  C7  UNL     1      26.491   2.838  51.643  1.00  0.00     0.134 A 
HETATM    7  N2  UNL     1      26.834   3.275  50.334  1.00  0.00    -0.246 NA
HETATM    8  C14 UNL     1      25.751   3.410  49.608  1.00  0.00     0.105 A 
HETATM    9  C15 UNL     1      24.658   3.077  50.467  1.00  0.00     0.088 A 
HETATM   10  C16 UNL     1      23.444   2.406  50.016  1.00  0.00     0.028 C 
HETATM   11  C17 UNL     1      22.772   1.795  51.021  1.00  0.00     0.100 C 
HETATM   12  O3  UNL     1      21.533   1.240  50.638  1.00  0.00    -0.339 OA
HETATM   13  C18 UNL     1      20.595   1.025  51.677  1.00  0.00     0.184 C 
ENDROOT
BRANCH   6  14
HETATM   14  N1  UNL     1      27.459   2.520  52.655  1.00  0.00    -0.341 N 
HETATM   15  H8  UNL     1      27.775   3.342  53.248  1.00  0.00     0.167 HD
BRANCH  14  16
HETATM   16  C8  UNL     1      28.038   1.258  52.953  1.00  0.00     0.035 A 
HETATM   17  C9  UNL     1      29.263   1.136  53.597  1.00  0.00     0.029 A 
HETATM   18  C10 UNL     1      29.729  -0.122  53.836  1.00  0.00     0.004 A 
HETATM   19  C11 UNL     1      29.079  -1.296  53.488  1.00  0.00     0.024 A 
HETATM   20  C12 UNL     1      27.861  -1.168  52.849  1.00  0.00     0.036 A 
HETATM   21 CL1  UNL     1      27.049  -2.644  52.416  1.00  0.00    -0.084 Cl
HETATM   22  C13 UNL     1      27.367   0.116  52.596  1.00  0.00     0.053 A 
ENDBRANCH  14  16
ENDBRANCH   6  14
BRANCH   1  23
HETATM   23  C2  UNL     1      20.337  -0.214  53.841  1.00  0.00     0.202 C 
BRANCH  23  24
HETATM   24  O1  UNL     1      21.147  -0.631  54.923  1.00  0.00    -0.393 OA
HETATM   25  C1  UNL     1      21.678  -1.870  54.523  1.00  0.00     0.201 C 
ENDBRANCH  23  24
ENDBRANCH   1  23
BRANCH  13  26
HETATM   26  C19 UNL     1      20.120   2.385  52.204  1.00  0.00     0.202 C 
BRANCH  26  27
HETATM   27  O4  UNL     1      19.410   3.106  51.280  1.00  0.00    -0.393 OA
HETATM   28  C20 UNL     1      18.085   2.755  51.139  1.00  0.00     0.201 C 
ENDBRANCH  26  27
ENDBRANCH  13  26
TORSDOF 6
ENDMDL
MODEL 4
REMARK VINA RESULT:      -7.7      4.148      6.616
REMARK  6 active torsions:
REMARK  status: ('A' for Active; 'I' for Inactive)
REMARK    1  A    between atoms: O1_2  and  C2_3 
REMARK    2  A    between atoms: C2_3  and  C3_4 
REMARK    3  A    between atoms: C7_9  and  N1_10 
REMARK    4  A    between atoms: N1_10  and  C8_11 
REMARK    5  A    between atoms: C18_24  and  C19_25 
REMARK    6  A    between atoms: C19_25  and  O4_26 
ROOT
HETATM    1  C3  UNL     1      26.047   0.405  53.611  1.00  0.00     0.184 C 
HETATM    2  O2  UNL     1      24.946   0.008  52.776  1.00  0.00    -0.338 OA
HETATM    3  C4  UNL     1      23.914   0.929  52.668  1.00  0.00     0.103 C 
HETATM    4  C5  UNL     1      22.685   0.523  52.327  1.00  0.00     0.051 C 
HETATM    5  C6  UNL     1      21.704   1.598  52.304  1.00  0.00     0.003 A 
HETATM    6  C7  UNL     1      20.386   1.608  52.406  1.00  0.00     0.134 A 
HETATM    7  N2  UNL     1      19.886   2.939  52.442  1.00  0.00    -0.246 NA
HETATM    8  C14 UNL     1      20.876   3.793  52.349  1.00  0.00     0.105 A 
HETATM    9  C15 UNL     1      22.064   3.006  52.224  1.00  0.00     0.088 A 
HETATM   10  C16 UNL     1      23.355   3.386  52.785  1.00  0.00     0.028 C 
HETATM   11  C17 UNL     1      24.191   2.333  52.947  1.00  0.00     0.100 C 
HETATM   12  O3  UNL     1      25.489   2.684  53.375  1.00  0.00    -0.339 OA
HETATM   13  C18 UNL     1      26.513   1.741  53.112  1.00  0.00     0.184 C 
ENDROOT
BRANCH   6  14
HETATM   14  N1  UNL     1      19.560   0.443  52.565  1.00  0.00    -0.341 N 
HETATM   15  H8  UNL     1      19.846  -0.205  53.356  1.00  0.00     0.167 HD
BRANCH  14  16
HETATM   16  C8  UNL     1      18.424   0.060  51.804  1.00  0.00     0.035 A 
HETATM   17  C9  UNL     1      18.260   0.435  50.476  1.00  0.00     0.029 A 
HETATM   18  C10 UNL     1      17.132   0.014  49.836  1.00  0.00     0.004 A 
HETATM   19  C11 UNL     1      16.132  -0.760  50.402  1.00  0.00     0.024 A 
HETATM   20  C12 UNL     1      16.302  -1.129  51.722  1.00  0.00     0.036 A 
HETATM   21 CL1  UNL     1      15.043  -2.101  52.428  1.00  0.00    -0.084 Cl
HETATM   22  C13 UNL     1      17.453  -0.707  52.396  1.00  0.00     0.053 A 
ENDBRANCH  14  16
ENDBRANCH   6  14
BRANCH   1  23
HETATM   23  C2  UNL     1      27.136  -0.640  53.589  1.00  0.00     0.202 C 
BRANCH  23  24
HETATM   24  O1  UNL     1      28.042  -0.280  54.613  1.00  0.00    -0.393 OA
HETATM   25  C1  UNL     1      29.314  -0.581  54.094  1.00  0.00     0.201 C 
ENDBRANCH  23  24
ENDBRANCH   1  23
BRANCH  13  26
HETATM   26  C19 UNL     1      26.746   1.676  51.597  1.00  0.00     0.202 C 
BRANCH  26  27
HETATM   27  O4  UNL     1      27.104   2.881  51.051  1.00  0.00    -0.393 OA
HETATM   28  C20 UNL     1      26.390   3.266  49.938  1.00  0.00     0.201 C 
ENDBRANCH  26  27
ENDBRANCH  13  26
TORSDOF 6
ENDMDL
MODEL 5
REMARK VINA RESULT:      -7.4      4.254      7.058
REMARK  6 active torsions:
REMARK  status: ('A' for Active; 'I' for Inactive)
REMARK    1  A    between atoms: O1_2  and  C2_3 
REMARK    2  A    between atoms: C2_3  and  C3_4 
REMARK    3  A    between atoms: C7_9  and  N1_10 
REMARK    4  A    between atoms: N1_10  and  C8_11 
REMARK    5  A    between atoms: C18_24  and  C19_25 
REMARK    6  A    between atoms: C19_25  and  O4_26 
ROOT
HETATM    1  C3  UNL     1      25.923   1.939  51.340  1.00  0.00     0.184 C 
HETATM    2  O2  UNL     1      24.651   2.361  51.858  1.00  0.00    -0.338 OA
HETATM    3  C4  UNL     1      23.919   1.384  52.520  1.00  0.00     0.103 C 
HETATM    4  C5  UNL     1      22.591   1.502  52.632  1.00  0.00     0.051 C 
HETATM    5  C6  UNL     1      21.964   0.376  53.309  1.00  0.00     0.003 A 
HETATM    6  C7  UNL     1      20.730  -0.100  53.297  1.00  0.00     0.134 A 
HETATM    7  N2  UNL     1      20.641  -1.306  54.045  1.00  0.00    -0.246 NA
HETATM    8  C14 UNL     1      21.811  -1.606  54.555  1.00  0.00     0.105 A 
HETATM    9  C15 UNL     1      22.696  -0.557  54.153  1.00  0.00     0.088 A 
HETATM   10  C16 UNL     1      24.106  -0.756  53.841  1.00  0.00     0.028 C 
HETATM   11  C17 UNL     1      24.622   0.231  53.070  1.00  0.00     0.100 C 
HETATM   12  O3  UNL     1      26.012   0.130  52.850  1.00  0.00    -0.339 OA
HETATM   13  C18 UNL     1      26.677   1.325  52.483  1.00  0.00     0.184 C 
ENDROOT
BRANCH   6  14
HETATM   14  N1  UNL     1      19.637   0.455  52.549  1.00  0.00    -0.341 N 
HETATM   15  H8  UNL     1      19.772   1.461  52.235  1.00  0.00     0.167 HD
BRANCH  14  16
HETATM   16  C8  UNL     1      18.415  -0.169  52.184  1.00  0.00     0.035 A 
HETATM   17  C9  UNL     1      17.721  -1.005  53.050  1.00  0.00     0.029 A 
HETATM   18  C10 UNL     1      16.557  -1.553  52.600  1.00  0.00     0.004 A 
HETATM   19  C11 UNL     1      16.007  -1.347  51.345  1.00  0.00     0.024 A 
HETATM   20  C12 UNL     1      16.702  -0.516  50.490  1.00  0.00     0.036 A 
HETATM   21 CL1  UNL     1      16.007  -0.260  48.916  1.00  0.00    -0.084 Cl
HETATM   22  C13 UNL     1      17.898   0.057  50.933  1.00  0.00     0.053 A 
ENDBRANCH  14  16
ENDBRANCH   6  14
BRANCH   1  23
HETATM   23  C2  UNL     1      26.654   3.100  50.712  1.00  0.00     0.202 C 
BRANCH  23  24
HETATM   24  O1  UNL     1      25.685   4.111  50.517  1.00  0.00    -0.393 OA
HETATM   25  C1  UNL     1      26.141   4.840  49.404  1.00  0.00     0.201 C 
ENDBRANCH  23  24
ENDBRANCH   1  23
BRANCH  13  26
HETATM   26  C19 UNL     1      26.671   2.283  53.681  1.00  0.00     0.202 C 
BRANCH  26  27
HETATM   27  O4  UNL     1      27.926   2.670  54.073  1.00  0.00    -0.393 OA
HETATM   28  C20 UNL     1      28.924   1.739  53.881  1.00  0.00     0.201 C 
ENDBRANCH  26  27
ENDBRANCH  13  26
TORSDOF 6
ENDMDL
MODEL 6
REMARK VINA RESULT:      -7.4      4.321      7.194
REMARK  6 active torsions:
REMARK  status: ('A' for Active; 'I' for Inactive)
REMARK    1  A    between atoms: O1_2  and  C2_3 
REMARK    2  A    between atoms: C2_3  and  C3_4 
REMARK    3  A    between atoms: C7_9  and  N1_10 
REMARK    4  A    between atoms: N1_10  and  C8_11 
REMARK    5  A    between atoms: C18_24  and  C19_25 
REMARK    6  A    between atoms: C19_25  and  O4_26 
ROOT
HETATM    1  C3  UNL     1      21.062   4.072  50.872  1.00  0.00     0.184 C 
HETATM    2  O2  UNL     1      21.745   2.837  50.600  1.00  0.00    -0.338 OA
HETATM    3  C4  UNL     1      21.791   1.934  51.654  1.00  0.00     0.103 C 
HETATM    4  C5  UNL     1      22.746   0.997  51.693  1.00  0.00     0.051 C 
HETATM    5  C6  UNL     1      22.688   0.159  52.882  1.00  0.00     0.003 A 
HETATM    6  C7  UNL     1      23.594  -0.579  53.501  1.00  0.00     0.134 A 
HETATM    7  N2  UNL     1      23.072  -1.125  54.706  1.00  0.00    -0.246 NA
HETATM    8  C14 UNL     1      21.824  -0.755  54.862  1.00  0.00     0.105 A 
HETATM    9  C15 UNL     1      21.502   0.039  53.718  1.00  0.00     0.088 A 
HETATM   10  C16 UNL     1      20.604   1.187  53.750  1.00  0.00     0.028 C 
HETATM   11  C17 UNL     1      20.794   2.037  52.713  1.00  0.00     0.100 C 
HETATM   12  O3  UNL     1      19.861   3.094  52.649  1.00  0.00    -0.339 OA
HETATM   13  C18 UNL     1      19.700   3.713  51.386  1.00  0.00     0.184 C 
ENDROOT
BRANCH   6  14
HETATM   14  N1  UNL     1      24.959  -0.734  53.083  1.00  0.00    -0.341 N 
HETATM   15  H8  UNL     1      25.168  -1.631  52.554  1.00  0.00     0.167 HD
BRANCH  14  16
HETATM   16  C8  UNL     1      26.049   0.154  53.290  1.00  0.00     0.035 A 
HETATM   17  C9  UNL     1      25.867   1.515  53.498  1.00  0.00     0.029 A 
HETATM   18  C10 UNL     1      26.980   2.279  53.686  1.00  0.00     0.004 A 
HETATM   19  C11 UNL     1      28.283   1.809  53.686  1.00  0.00     0.024 A 
HETATM   20  C12 UNL     1      28.456   0.455  53.478  1.00  0.00     0.036 A 
HETATM   21 CL1  UNL     1      30.095  -0.131  53.479  1.00  0.00    -0.084 Cl
HETATM   22  C13 UNL     1      27.326  -0.346  53.284  1.00  0.00     0.053 A 
ENDBRANCH  14  16
ENDBRANCH   6  14
BRANCH   1  23
HETATM   23  C2  UNL     1      21.013   4.936  49.635  1.00  0.00     0.202 C 
BRANCH  23  24
HETATM   24  O1  UNL     1      21.888   4.332  48.702  1.00  0.00    -0.393 OA
HETATM   25  C1  UNL     1      21.212   4.404  47.472  1.00  0.00     0.201 C 
ENDBRANCH  23  24
ENDBRANCH   1  23
BRANCH  13  26
HETATM   26  C19 UNL     1      19.031   2.717  50.429  1.00  0.00     0.202 C 
BRANCH  26  27
HETATM   27  O4  UNL     1      17.725   3.025  50.151  1.00  0.00    -0.393 OA
HETATM   28  C20 UNL     1      17.312   4.279  50.544  1.00  0.00     0.201 C 
ENDBRANCH  26  27
ENDBRANCH  13  26
TORSDOF 6
ENDMDL
MODEL 7
REMARK VINA RESULT:      -7.3      1.788      2.481
REMARK  6 active torsions:
REMARK  status: ('A' for Active; 'I' for Inactive)
REMARK    1  A    between atoms: O1_2  and  C2_3 
REMARK    2  A    between atoms: C2_3  and  C3_4 
REMARK    3  A    between atoms: C7_9  and  N1_10 
REMARK    4  A    between atoms: N1_10  and  C8_11 
REMARK    5  A    between atoms: C18_24  and  C19_25 
REMARK    6  A    between atoms: C19_25  and  O4_26 
ROOT
HETATM    1  C3  UNL     1      24.538  -0.016  52.990  1.00  0.00     0.184 C 
HETATM    2  O2  UNL     1      24.633   1.348  53.435  1.00  0.00    -0.338 OA
HETATM    3  C4  UNL     1      23.762   2.239  52.823  1.00  0.00     0.103 C 
HETATM    4  C5  UNL     1      24.049   3.546  52.798  1.00  0.00     0.051 C 
HETATM    5  C6  UNL     1      23.064   4.342  52.080  1.00  0.00     0.003 A 
HETATM    6  C7  UNL     1      23.125   5.527  51.497  1.00  0.00     0.134 A 
HETATM    7  N2  UNL     1      21.911   5.826  50.819  1.00  0.00    -0.246 NA
HETATM    8  C14 UNL     1      21.057   4.844  50.973  1.00  0.00     0.105 A 
HETATM    9  C15 UNL     1      21.714   3.877  51.797  1.00  0.00     0.088 A 
HETATM   10  C16 UNL     1      21.531   2.437  51.665  1.00  0.00     0.028 C 
HETATM   11  C17 UNL     1      22.549   1.722  52.201  1.00  0.00     0.100 C 
HETATM   12  O3  UNL     1      22.345   0.327  52.197  1.00  0.00    -0.339 OA
HETATM   13  C18 UNL     1      23.101  -0.421  53.132  1.00  0.00     0.184 C 
ENDROOT
BRANCH   6  14
HETATM   14  N1  UNL     1      24.289   6.368  51.454  1.00  0.00    -0.341 N 
HETATM   15  H8  UNL     1      24.400   7.023  52.282  1.00  0.00     0.167 HD
BRANCH  14  16
HETATM   16  C8  UNL     1      25.294   6.428  50.451  1.00  0.00     0.035 A 
HETATM   17  C9  UNL     1      25.689   5.309  49.729  1.00  0.00     0.029 A 
HETATM   18  C10 UNL     1      26.662   5.476  48.790  1.00  0.00     0.004 A 
HETATM   19  C11 UNL     1      27.293   6.674  48.494  1.00  0.00     0.024 A 
HETATM   20  C12 UNL     1      26.894   7.782  49.215  1.00  0.00     0.036 A 
HETATM   21 CL1  UNL     1      27.689   9.284  48.840  1.00  0.00    -0.084 Cl
HETATM   22  C13 UNL     1      25.897   7.631  50.184  1.00  0.00     0.053 A 
ENDBRANCH  14  16
ENDBRANCH   6  14
BRANCH   1  23
HETATM   23  C2  UNL     1      25.476  -0.899  53.777  1.00  0.00     0.202 C 
BRANCH  23  24
HETATM   24  O1  UNL     1      26.667  -0.154  53.941  1.00  0.00    -0.393 OA
HETATM   25  C1  UNL     1      27.552  -0.669  52.977  1.00  0.00     0.201 C 
ENDBRANCH  23  24
ENDBRANCH   1  23
BRANCH  13  26
HETATM   26  C19 UNL     1      22.606  -0.090  54.546  1.00  0.00     0.202 C 
BRANCH  26  27
HETATM   27  O4  UNL     1      21.294  -0.428  54.754  1.00  0.00    -0.393 OA
HETATM   28  C20 UNL     1      20.946  -1.713  54.403  1.00  0.00     0.201 C 
ENDBRANCH  26  27
ENDBRANCH  13  26
TORSDOF 6
ENDMDL
MODEL 8
REMARK VINA RESULT:      -7.3      3.381      6.177
REMARK  6 active torsions:
REMARK  status: ('A' for Active; 'I' for Inactive)
REMARK    1  A    between atoms: O1_2  and  C2_3 
REMARK    2  A    between atoms: C2_3  and  C3_4 
REMARK    3  A    between atoms: C7_9  and  N1_10 
REMARK    4  A    between atoms: N1_10  and  C8_11 
REMARK    5  A    between atoms: C18_24  and  C19_25 
REMARK    6  A    between atoms: C19_25  and  O4_26 
ROOT
HETATM    1  C3  UNL     1      25.969   2.063  51.111  1.00  0.00     0.184 C 
HETATM    2  O2  UNL     1      24.889   2.480  51.963  1.00  0.00    -0.338 OA
HETATM    3  C4  UNL     1      24.260   1.466  52.673  1.00  0.00     0.103 C 
HETATM    4  C5  UNL     1      23.008   1.634  53.115  1.00  0.00     0.051 C 
HETATM    5  C6  UNL     1      22.474   0.465  53.798  1.00  0.00     0.003 A 
HETATM    6  C7  UNL     1      21.239   0.054  54.034  1.00  0.00     0.134 A 
HETATM    7  N2  UNL     1      21.236  -1.228  54.648  1.00  0.00    -0.246 NA
HETATM    8  C14 UNL     1      22.466  -1.644  54.825  1.00  0.00     0.105 A 
HETATM    9  C15 UNL     1      23.309  -0.598  54.336  1.00  0.00     0.088 A 
HETATM   10  C16 UNL     1      24.588  -0.825  53.674  1.00  0.00     0.028 C 
HETATM   11  C17 UNL     1      24.982   0.222  52.911  1.00  0.00     0.100 C 
HETATM   12  O3  UNL     1      26.270   0.082  52.353  1.00  0.00    -0.339 OA
HETATM   13  C18 UNL     1      26.920   1.279  51.966  1.00  0.00     0.184 C 
ENDROOT
BRANCH   6  14
HETATM   14  N1  UNL     1      20.046   0.748  53.635  1.00  0.00    -0.341 N 
HETATM   15  H8  UNL     1      19.694   1.471  54.329  1.00  0.00     0.167 HD
BRANCH  14  16
HETATM   16  C8  UNL     1      19.293   0.588  52.442  1.00  0.00     0.035 A 
HETATM   17  C9  UNL     1      18.347  -0.419  52.291  1.00  0.00     0.029 A 
HETATM   18  C10 UNL     1      17.679  -0.485  51.105  1.00  0.00     0.004 A 
HETATM   19  C11 UNL     1      17.865   0.372  50.032  1.00  0.00     0.024 A 
HETATM   20  C12 UNL     1      18.806   1.370  50.189  1.00  0.00     0.036 A 
HETATM   21 CL1  UNL     1      19.035   2.444  48.839  1.00  0.00    -0.084 Cl
HETATM   22  C13 UNL     1      19.502   1.455  51.399  1.00  0.00     0.053 A 
ENDBRANCH  14  16
ENDBRANCH   6  14
BRANCH   1  23
HETATM   23  C2  UNL     1      26.619   3.255  50.453  1.00  0.00     0.202 C 
BRANCH  23  24
HETATM   24  O1  UNL     1      25.725   3.679  49.442  1.00  0.00    -0.393 OA
HETATM   25  C1  UNL     1      25.916   5.069  49.348  1.00  0.00     0.201 C 
ENDBRANCH  23  24
ENDBRANCH   1  23
BRANCH  13  26
HETATM   26  C19 UNL     1      27.268   2.083  53.226  1.00  0.00     0.202 C 
BRANCH  26  27
HETATM   27  O4  UNL     1      27.836   1.323  54.214  1.00  0.00    -0.393 OA
HETATM   28  C20 UNL     1      29.177   1.047  54.058  1.00  0.00     0.201 C 
ENDBRANCH  26  27
ENDBRANCH  13  26
TORSDOF 6
ENDMDL
MODEL 9
REMARK VINA RESULT:      -7.1      4.032      7.749
REMARK  6 active torsions:
REMARK  status: ('A' for Active; 'I' for Inactive)
REMARK    1  A    between atoms: O1_2  and  C2_3 
REMARK    2  A    between atoms: C2_3  and  C3_4 
REMARK    3  A    between atoms: C7_9  and  N1_10 
REMARK    4  A    between atoms: N1_10  and  C8_11 
REMARK    5  A    between atoms: C18_24  and  C19_25 
REMARK    6  A    between atoms: C19_25  and  O4_26 
ROOT
HETATM    1  C3  UNL     1      25.861   7.535  50.232  1.00  0.00     0.184 C 
HETATM    2  O2  UNL     1      25.898   6.188  49.733  1.00  0.00    -0.338 OA
HETATM    3  C4  UNL     1      25.084   5.281  50.398  1.00  0.00     0.103 C 
HETATM    4  C5  UNL     1      25.358   3.972  50.349  1.00  0.00     0.051 C 
HETATM    5  C6  UNL     1      24.442   3.158  51.134  1.00  0.00     0.003 A 
HETATM    6  C7  UNL     1      24.550   1.952  51.668  1.00  0.00     0.134 A 
HETATM    7  N2  UNL     1      23.406   1.637  52.453  1.00  0.00    -0.246 NA
HETATM    8  C14 UNL     1      22.551   2.629  52.418  1.00  0.00     0.105 A 
HETATM    9  C15 UNL     1      23.132   3.621  51.567  1.00  0.00     0.088 A 
HETATM   10  C16 UNL     1      22.977   5.057  51.765  1.00  0.00     0.028 C 
HETATM   11  C17 UNL     1      23.943   5.783  51.155  1.00  0.00     0.100 C 
HETATM   12  O3  UNL     1      23.754   7.179  51.228  1.00  0.00    -0.339 OA
HETATM   13  C18 UNL     1      24.421   7.955  50.248  1.00  0.00     0.184 C 
ENDROOT
BRANCH   6  14
HETATM   14  N1  UNL     1      25.704   1.104  51.566  1.00  0.00    -0.341 N 
HETATM   15  H8  UNL     1      25.664   0.383  50.786  1.00  0.00     0.167 HD
BRANCH  14  16
HETATM   16  C8  UNL     1      26.874   1.111  52.370  1.00  0.00     0.035 A 
HETATM   17  C9  UNL     1      27.363   2.270  52.959  1.00  0.00     0.029 A 
HETATM   18  C10 UNL     1      28.494   2.167  53.712  1.00  0.00     0.004 A 
HETATM   19  C11 UNL     1      29.200   0.996  53.940  1.00  0.00     0.024 A 
HETATM   20  C12 UNL     1      28.709  -0.152  53.353  1.00  0.00     0.036 A 
HETATM   21 CL1  UNL     1      29.598  -1.619  53.643  1.00  0.00    -0.084 Cl
HETATM   22  C13 UNL     1      27.549  -0.067  52.576  1.00  0.00     0.053 A 
ENDBRANCH  14  16
ENDBRANCH   6  14
BRANCH   1  23
HETATM   23  C2  UNL     1      26.724   8.439  49.386  1.00  0.00     0.202 C 
BRANCH  23  24
HETATM   24  O1  UNL     1      26.513   9.750  49.875  1.00  0.00    -0.393 OA
HETATM   25  C1  UNL     1      26.566  10.574  48.737  1.00  0.00     0.201 C 
ENDBRANCH  23  24
ENDBRANCH   1  23
BRANCH  13  26
HETATM   26  C19 UNL     1      23.784   7.676  48.880  1.00  0.00     0.202 C 
BRANCH  26  27
HETATM   27  O4  UNL     1      23.427   8.815  48.206  1.00  0.00    -0.393 OA
HETATM   28  C20 UNL     1      23.063   8.639  46.889  1.00  0.00     0.201 C 
ENDBRANCH  26  27
ENDBRANCH  13  26
TORSDOF 6
ENDMDL
