MODEL 1
REMARK VINA RESULT:      -8.4      0.000      0.000
REMARK  6 active torsions:
REMARK  status: ('A' for Active; 'I' for Inactive)
REMARK    1  A    between atoms: C1_2  and  C2_3 
REMARK       I    between atoms: C1_2  and  N2_13 
REMARK    2  A    between atoms: C3_4  and  C4_5 
REMARK    3  A    between atoms: C4_5  and  C5_6 
REMARK    4  A    between atoms: C5_6  and  N1_7 
REMARK    5  A    between atoms: N2_13  and  C10_14 
REMARK    6  A    between atoms: C14_19  and  C15_20 
ROOT
HETATM    1  C10 UNL     1      26.344   2.264  51.726  1.00  0.00     0.042 A 
HETATM    2  C11 UNL     1      26.579   0.915  51.739  1.00  0.00     0.143 A 
HETATM    3  N3  UNL     1      26.545  -0.494  52.061  1.00  0.00    -0.284 NA
HETATM    4  C12 UNL     1      26.307  -0.529  53.358  1.00  0.00     0.086 C 
HETATM    5  C13 UNL     1      26.168   0.883  53.945  1.00  0.00     0.070 C 
HETATM    6  C14 UNL     1      25.558   1.550  52.701  1.00  0.00     0.068 A 
ENDROOT
BRANCH   1   7
HETATM    7  N2  UNL     1      26.763   3.431  51.035  1.00  0.00    -0.320 N 
HETATM    8  C1  UNL     1      26.179   3.862  49.819  1.00  0.00     0.300 C 
HETATM    9  O1  UNL     1      25.228   3.222  49.257  1.00  0.00    -0.258 OA
HETATM   10  H13 UNL     1      27.519   4.004  51.413  1.00  0.00     0.169 HD
BRANCH   8  11
HETATM   11  C2  UNL     1      26.603   5.040  49.123  1.00  0.00    -0.005 C 
HETATM   12  C3  UNL     1      26.962   6.057  48.546  1.00  0.00    -0.095 C 
BRANCH  12  13
HETATM   13  C4  UNL     1      27.401   7.296  47.870  1.00  0.00     0.124 C 
BRANCH  13  14
HETATM   14  C5  UNL     1      28.806   7.085  47.315  1.00  0.00     0.284 C 
BRANCH  14  15
HETATM   15  N1  UNL     1      29.746   6.985  48.410  1.00  0.00     0.093 N 
HETATM   16  C6  UNL     1      30.857   6.115  48.030  1.00  0.00     0.298 C 
HETATM   17  C7  UNL     1      31.649   5.824  49.267  1.00  0.00     0.198 C 
HETATM   18  O2  UNL     1      31.846   6.926  50.062  1.00  0.00    -0.388 OA
HETATM   19  C8  UNL     1      31.650   8.143  49.436  1.00  0.00     0.198 C 
HETATM   20  C9  UNL     1      30.291   8.252  48.793  1.00  0.00     0.298 C 
ENDBRANCH  14  15
ENDBRANCH  13  14
ENDBRANCH  12  13
ENDBRANCH   8  11
ENDBRANCH   1   7
BRANCH   6  21
HETATM   21  C15 UNL     1      24.146   1.189  52.381  1.00  0.00    -0.038 A 
HETATM   22  C16 UNL     1      23.346   1.311  51.267  1.00  0.00     0.011 A 
HETATM   23  C17 UNL     1      22.045   0.867  51.293  1.00  0.00     0.044 A 
HETATM   24  C18 UNL     1      21.459   0.289  52.397  1.00  0.00     0.138 A 
HETATM   25  F1  UNL     1      20.168  -0.100  52.278  1.00  0.00    -0.204 F 
HETATM   26  C19 UNL     1      22.257   0.161  53.528  1.00  0.00     0.073 A 
HETATM   27 CL1  UNL     1      21.462  -0.582  54.899  1.00  0.00    -0.081 Cl
HETATM   28  C20 UNL     1      23.567   0.603  53.512  1.00  0.00     0.035 A 
ENDBRANCH   6  21
TORSDOF 6
ENDMDL
MODEL 2
REMARK VINA RESULT:      -8.2      2.794      3.773
REMARK  6 active torsions:
REMARK  status: ('A' for Active; 'I' for Inactive)
REMARK    1  A    between atoms: C1_2  and  C2_3 
REMARK       I    between atoms: C1_2  and  N2_13 
REMARK    2  A    between atoms: C3_4  and  C4_5 
REMARK    3  A    between atoms: C4_5  and  C5_6 
REMARK    4  A    between atoms: C5_6  and  N1_7 
REMARK    5  A    between atoms: N2_13  and  C10_14 
REMARK    6  A    between atoms: C14_19  and  C15_20 
ROOT
HETATM    1  C10 UNL     1      24.902   3.475  51.096  1.00  0.00     0.042 A 
HETATM    2  C11 UNL     1      23.940   3.352  52.063  1.00  0.00     0.143 A 
HETATM    3  N3  UNL     1      22.979   2.815  53.000  1.00  0.00    -0.284 NA
HETATM    4  C12 UNL     1      22.517   1.730  52.411  1.00  0.00     0.086 C 
HETATM    5  C13 UNL     1      23.174   1.507  51.041  1.00  0.00     0.070 C 
HETATM    6  C14 UNL     1      24.547   2.109  51.386  1.00  0.00     0.068 A 
ENDROOT
BRANCH   1   7
HETATM    7  N2  UNL     1      25.636   4.485  50.420  1.00  0.00    -0.320 N 
HETATM    8  C1  UNL     1      26.670   4.203  49.494  1.00  0.00     0.300 C 
HETATM    9  O1  UNL     1      27.013   3.008  49.204  1.00  0.00    -0.258 OA
HETATM   10  H13 UNL     1      25.428   5.470  50.593  1.00  0.00     0.169 HD
BRANCH   8  11
HETATM   11  C2  UNL     1      27.409   5.223  48.814  1.00  0.00    -0.005 C 
HETATM   12  C3  UNL     1      28.024   6.101  48.223  1.00  0.00    -0.095 C 
BRANCH  12  13
HETATM   13  C4  UNL     1      28.745   7.175  47.509  1.00  0.00     0.124 C 
BRANCH  13  14
HETATM   14  C5  UNL     1      29.990   7.551  48.307  1.00  0.00     0.284 C 
BRANCH  14  15
HETATM   15  N1  UNL     1      30.900   6.427  48.335  1.00  0.00     0.093 N 
HETATM   16  C6  UNL     1      31.517   6.259  47.021  1.00  0.00     0.298 C 
HETATM   17  C7  UNL     1      32.228   4.941  47.019  1.00  0.00     0.198 C 
HETATM   18  O2  UNL     1      32.931   4.698  48.173  1.00  0.00    -0.388 OA
HETATM   19  C8  UNL     1      33.196   5.814  48.945  1.00  0.00     0.198 C 
HETATM   20  C9  UNL     1      31.950   6.585  49.296  1.00  0.00     0.298 C 
ENDBRANCH  14  15
ENDBRANCH  13  14
ENDBRANCH  12  13
ENDBRANCH   8  11
ENDBRANCH   1   7
BRANCH   6  21
HETATM   21  C15 UNL     1      25.413   1.307  52.299  1.00  0.00    -0.038 A 
HETATM   22  C16 UNL     1      25.326   0.052  52.859  1.00  0.00     0.011 A 
HETATM   23  C17 UNL     1      26.322  -0.412  53.685  1.00  0.00     0.044 A 
HETATM   24  C18 UNL     1      27.444   0.318  54.009  1.00  0.00     0.138 A 
HETATM   25  F1  UNL     1      28.342  -0.267  54.837  1.00  0.00    -0.204 F 
HETATM   26  C19 UNL     1      27.543   1.586  53.451  1.00  0.00     0.073 A 
HETATM   27 CL1  UNL     1      28.989   2.466  53.895  1.00  0.00    -0.081 Cl
HETATM   28  C20 UNL     1      26.548   2.062  52.617  1.00  0.00     0.035 A 
ENDBRANCH   6  21
TORSDOF 6
ENDMDL
MODEL 3
REMARK VINA RESULT:      -8.2      2.683      3.705
REMARK  6 active torsions:
REMARK  status: ('A' for Active; 'I' for Inactive)
REMARK    1  A    between atoms: C1_2  and  C2_3 
REMARK       I    between atoms: C1_2  and  N2_13 
REMARK    2  A    between atoms: C3_4  and  C4_5 
REMARK    3  A    between atoms: C4_5  and  C5_6 
REMARK    4  A    between atoms: C5_6  and  N1_7 
REMARK    5  A    between atoms: N2_13  and  C10_14 
REMARK    6  A    between atoms: C14_19  and  C15_20 
ROOT
HETATM    1  C10 UNL     1      25.155   3.548  50.729  1.00  0.00     0.042 A 
HETATM    2  C11 UNL     1      24.148   4.063  51.501  1.00  0.00     0.143 A 
HETATM    3  N3  UNL     1      22.913   4.234  52.233  1.00  0.00    -0.284 NA
HETATM    4  C12 UNL     1      22.024   3.548  51.541  1.00  0.00     0.086 C 
HETATM    5  C13 UNL     1      22.656   2.885  50.309  1.00  0.00     0.070 C 
HETATM    6  C14 UNL     1      24.049   2.643  50.914  1.00  0.00     0.068 A 
ENDROOT
BRANCH   1   7
HETATM    7  N2  UNL     1      26.431   3.915  50.225  1.00  0.00    -0.320 N 
HETATM    8  C1  UNL     1      26.610   4.852  49.179  1.00  0.00     0.300 C 
HETATM    9  O1  UNL     1      25.625   5.434  48.612  1.00  0.00    -0.258 OA
HETATM   10  H13 UNL     1      27.275   3.498  50.621  1.00  0.00     0.169 HD
BRANCH   8  11
HETATM   11  C2  UNL     1      27.898   5.220  48.673  1.00  0.00    -0.005 C 
HETATM   12  C3  UNL     1      29.006   5.520  48.251  1.00  0.00    -0.095 C 
BRANCH  12  13
HETATM   13  C4  UNL     1      30.353   5.858  47.744  1.00  0.00     0.124 C 
BRANCH  13  14
HETATM   14  C5  UNL     1      31.290   6.065  48.929  1.00  0.00     0.284 C 
BRANCH  14  15
HETATM   15  N1  UNL     1      32.433   5.187  48.796  1.00  0.00     0.093 N 
HETATM   16  C6  UNL     1      32.317   4.409  47.565  1.00  0.00     0.298 C 
HETATM   17  C7  UNL     1      33.361   3.336  47.607  1.00  0.00     0.198 C 
HETATM   18  O2  UNL     1      34.580   3.777  48.059  1.00  0.00    -0.388 OA
HETATM   19  C8  UNL     1      34.760   5.148  48.019  1.00  0.00     0.198 C 
HETATM   20  C9  UNL     1      33.676   5.896  48.752  1.00  0.00     0.298 C 
ENDBRANCH  14  15
ENDBRANCH  13  14
ENDBRANCH  12  13
ENDBRANCH   8  11
ENDBRANCH   1   7
BRANCH   6  21
HETATM   21  C15 UNL     1      24.145   1.571  51.948  1.00  0.00    -0.038 A 
HETATM   22  C16 UNL     1      23.231   0.806  52.636  1.00  0.00     0.011 A 
HETATM   23  C17 UNL     1      23.654  -0.126  53.553  1.00  0.00     0.044 A 
HETATM   24  C18 UNL     1      24.978  -0.358  53.848  1.00  0.00     0.138 A 
HETATM   25  F1  UNL     1      25.246  -1.308  54.776  1.00  0.00    -0.204 F 
HETATM   26  C19 UNL     1      25.911   0.408  53.161  1.00  0.00     0.073 A 
HETATM   27 CL1  UNL     1      27.578   0.070  53.574  1.00  0.00    -0.081 Cl
HETATM   28  C20 UNL     1      25.497   1.348  52.235  1.00  0.00     0.035 A 
ENDBRANCH   6  21
TORSDOF 6
ENDMDL
MODEL 4
REMARK VINA RESULT:      -8.1      2.918      3.974
REMARK  6 active torsions:
REMARK  status: ('A' for Active; 'I' for Inactive)
REMARK    1  A    between atoms: C1_2  and  C2_3 
REMARK       I    between atoms: C1_2  and  N2_13 
REMARK    2  A    between atoms: C3_4  and  C4_5 
REMARK    3  A    between atoms: C4_5  and  C5_6 
REMARK    4  A    between atoms: C5_6  and  N1_7 
REMARK    5  A    between atoms: N2_13  and  C10_14 
REMARK    6  A    between atoms: C14_19  and  C15_20 
ROOT
HETATM    1  C10 UNL     1      24.931   3.637  50.923  1.00  0.00     0.042 A 
HETATM    2  C11 UNL     1      23.855   3.641  51.768  1.00  0.00     0.143 A 
HETATM    3  N3  UNL     1      22.756   3.231  52.614  1.00  0.00    -0.284 NA
HETATM    4  C12 UNL     1      22.302   2.128  52.051  1.00  0.00     0.086 C 
HETATM    5  C13 UNL     1      23.105   1.764  50.794  1.00  0.00     0.070 C 
HETATM    6  C14 UNL     1      24.460   2.319  51.264  1.00  0.00     0.068 A 
ENDROOT
BRANCH   1   7
HETATM    7  N2  UNL     1      25.803   4.551  50.273  1.00  0.00    -0.320 N 
HETATM    8  C1  UNL     1      26.834   4.144  49.392  1.00  0.00     0.300 C 
HETATM    9  O1  UNL     1      27.051   2.916  49.122  1.00  0.00    -0.258 OA
HETATM   10  H13 UNL     1      25.701   5.555  50.433  1.00  0.00     0.169 HD
BRANCH   8  11
HETATM   11  C2  UNL     1      27.712   5.068  48.738  1.00  0.00    -0.005 C 
HETATM   12  C3  UNL     1      28.476   5.854  48.195  1.00  0.00    -0.095 C 
BRANCH  12  13
HETATM   13  C4  UNL     1      29.417   6.793  47.549  1.00  0.00     0.124 C 
BRANCH  13  14
HETATM   14  C5  UNL     1      30.495   7.183  48.556  1.00  0.00     0.284 C 
BRANCH  14  15
HETATM   15  N1  UNL     1      30.641   8.623  48.569  1.00  0.00     0.093 N 
HETATM   16  C6  UNL     1      30.608   9.135  47.201  1.00  0.00     0.298 C 
HETATM   17  C7  UNL     1      31.032  10.570  47.244  1.00  0.00     0.198 C 
HETATM   18  O2  UNL     1      30.475  11.274  48.282  1.00  0.00    -0.388 OA
HETATM   19  C8  UNL     1      29.356  10.694  48.851  1.00  0.00     0.198 C 
HETATM   20  C9  UNL     1      29.607   9.280  49.309  1.00  0.00     0.298 C 
ENDBRANCH  14  15
ENDBRANCH  13  14
ENDBRANCH  12  13
ENDBRANCH   8  11
ENDBRANCH   1   7
BRANCH   6  21
HETATM   21  C15 UNL     1      25.159   1.546  52.333  1.00  0.00    -0.038 A 
HETATM   22  C16 UNL     1      24.847   0.434  53.082  1.00  0.00     0.011 A 
HETATM   23  C17 UNL     1      25.734  -0.045  54.018  1.00  0.00     0.044 A 
HETATM   24  C18 UNL     1      26.958   0.532  54.272  1.00  0.00     0.138 A 
HETATM   25  F1  UNL     1      27.727  -0.048  55.224  1.00  0.00    -0.204 F 
HETATM   26  C19 UNL     1      27.284   1.655  53.522  1.00  0.00     0.073 A 
HETATM   27 CL1  UNL     1      28.851   2.345  53.886  1.00  0.00    -0.081 Cl
HETATM   28  C20 UNL     1      26.400   2.145  52.578  1.00  0.00     0.035 A 
ENDBRANCH   6  21
TORSDOF 6
ENDMDL
MODEL 5
REMARK VINA RESULT:      -7.9      2.855      4.189
REMARK  6 active torsions:
REMARK  status: ('A' for Active; 'I' for Inactive)
REMARK    1  A    between atoms: C1_2  and  C2_3 
REMARK       I    between atoms: C1_2  and  N2_13 
REMARK    2  A    between atoms: C3_4  and  C4_5 
REMARK    3  A    between atoms: C4_5  and  C5_6 
REMARK    4  A    between atoms: C5_6  and  N1_7 
REMARK    5  A    between atoms: N2_13  and  C10_14 
REMARK    6  A    between atoms: C14_19  and  C15_20 
ROOT
HETATM    1  C10 UNL     1      22.634   2.436  51.447  1.00  0.00     0.042 A 
HETATM    2  C11 UNL     1      21.478   2.854  52.048  1.00  0.00     0.143 A 
HETATM    3  N3  UNL     1      20.151   2.896  52.621  1.00  0.00    -0.284 NA
HETATM    4  C12 UNL     1      19.460   2.025  51.912  1.00  0.00     0.086 C 
HETATM    5  C13 UNL     1      20.326   1.362  50.831  1.00  0.00     0.070 C 
HETATM    6  C14 UNL     1      21.655   1.391  51.605  1.00  0.00     0.068 A 
ENDROOT
BRANCH   1   7
HETATM    7  N2  UNL     1      23.897   2.950  51.048  1.00  0.00    -0.320 N 
HETATM    8  C1  UNL     1      24.107   3.620  49.819  1.00  0.00     0.300 C 
HETATM    9  O1  UNL     1      23.165   3.807  48.978  1.00  0.00    -0.258 OA
HETATM   10  H13 UNL     1      24.707   2.844  51.661  1.00  0.00     0.169 HD
BRANCH   8  11
HETATM   11  C2  UNL     1      25.381   4.137  49.419  1.00  0.00    -0.005 C 
HETATM   12  C3  UNL     1      26.468   4.594  49.092  1.00  0.00    -0.095 C 
BRANCH  12  13
HETATM   13  C4  UNL     1      27.783   5.155  48.720  1.00  0.00     0.124 C 
BRANCH  13  14
HETATM   14  C5  UNL     1      27.569   6.474  47.985  1.00  0.00     0.284 C 
BRANCH  14  15
HETATM   15  N1  UNL     1      27.145   7.486  48.928  1.00  0.00     0.093 N 
HETATM   16  C6  UNL     1      28.118   8.575  48.955  1.00  0.00     0.298 C 
HETATM   17  C7  UNL     1      27.788   9.451  50.124  1.00  0.00     0.198 C 
HETATM   18  O2  UNL     1      26.444   9.693  50.262  1.00  0.00    -0.388 OA
HETATM   19  C8  UNL     1      25.684   9.446  49.133  1.00  0.00     0.198 C 
HETATM   20  C9  UNL     1      25.868   8.047  48.606  1.00  0.00     0.298 C 
ENDBRANCH  14  15
ENDBRANCH  13  14
ENDBRANCH  12  13
ENDBRANCH   8  11
ENDBRANCH   1   7
BRANCH   6  21
HETATM   21  C15 UNL     1      21.776   0.440  52.749  1.00  0.00    -0.038 A 
HETATM   22  C16 UNL     1      20.879  -0.261  53.523  1.00  0.00     0.011 A 
HETATM   23  C17 UNL     1      21.324  -1.079  54.534  1.00  0.00     0.044 A 
HETATM   24  C18 UNL     1      22.654  -1.255  54.843  1.00  0.00     0.138 A 
HETATM   25  F1  UNL     1      22.945  -2.092  55.866  1.00  0.00    -0.204 F 
HETATM   26  C19 UNL     1      23.570  -0.552  54.069  1.00  0.00     0.073 A 
HETATM   27 CL1  UNL     1      25.245  -0.814  54.504  1.00  0.00    -0.081 Cl
HETATM   28  C20 UNL     1      23.133   0.273  53.049  1.00  0.00     0.035 A 
ENDBRANCH   6  21
TORSDOF 6
ENDMDL
MODEL 6
REMARK VINA RESULT:      -7.8      4.951     10.149
REMARK  6 active torsions:
REMARK  status: ('A' for Active; 'I' for Inactive)
REMARK    1  A    between atoms: C1_2  and  C2_3 
REMARK       I    between atoms: C1_2  and  N2_13 
REMARK    2  A    between atoms: C3_4  and  C4_5 
REMARK    3  A    between atoms: C4_5  and  C5_6 
REMARK    4  A    between atoms: C5_6  and  N1_7 
REMARK    5  A    between atoms: N2_13  and  C10_14 
REMARK    6  A    between atoms: C14_19  and  C15_20 
ROOT
HETATM    1  C10 UNL     1      29.341   7.539  48.516  1.00  0.00     0.042 A 
HETATM    2  C11 UNL     1      29.716   8.571  47.698  1.00  0.00     0.143 A 
HETATM    3  N3  UNL     1      30.484   9.583  47.009  1.00  0.00    -0.284 NA
HETATM    4  C12 UNL     1      31.401   9.951  47.882  1.00  0.00     0.086 C 
HETATM    5  C13 UNL     1      31.269   9.175  49.200  1.00  0.00     0.070 C 
HETATM    6  C14 UNL     1      30.743   7.861  48.598  1.00  0.00     0.068 A 
ENDROOT
BRANCH   1   7
HETATM    7  N2  UNL     1      28.183   6.792  48.858  1.00  0.00    -0.320 N 
HETATM    8  C1  UNL     1      28.071   5.396  48.649  1.00  0.00     0.300 C 
HETATM    9  O1  UNL     1      29.016   4.709  48.132  1.00  0.00    -0.258 OA
HETATM   10  H13 UNL     1      27.378   7.262  49.277  1.00  0.00     0.169 HD
BRANCH   8  11
HETATM   11  C2  UNL     1      26.902   4.645  48.996  1.00  0.00    -0.005 C 
HETATM   12  C3  UNL     1      25.893   4.021  49.293  1.00  0.00    -0.095 C 
BRANCH  12  13
HETATM   13  C4  UNL     1      24.659   3.286  49.643  1.00  0.00     0.124 C 
BRANCH  13  14
HETATM   14  C5  UNL     1      24.594   3.121  51.157  1.00  0.00     0.284 C 
BRANCH  14  15
HETATM   15  N1  UNL     1      25.005   1.780  51.512  1.00  0.00     0.093 N 
HETATM   16  C6  UNL     1      26.294   1.823  52.198  1.00  0.00     0.298 C 
HETATM   17  C7  UNL     1      26.802   0.418  52.299  1.00  0.00     0.198 C 
HETATM   18  O2  UNL     1      25.835  -0.489  52.656  1.00  0.00    -0.388 OA
HETATM   19  C8  UNL     1      24.704   0.058  53.234  1.00  0.00     0.198 C 
HETATM   20  C9  UNL     1      24.070   1.122  52.375  1.00  0.00     0.298 C 
ENDBRANCH  14  15
ENDBRANCH  13  14
ENDBRANCH  12  13
ENDBRANCH   8  11
ENDBRANCH   1   7
BRANCH   6  21
HETATM   21  C15 UNL     1      31.728   7.041  47.833  1.00  0.00    -0.038 A 
HETATM   22  C16 UNL     1      31.744   6.468  46.581  1.00  0.00     0.011 A 
HETATM   23  C17 UNL     1      32.838   5.750  46.159  1.00  0.00     0.044 A 
HETATM   24  C18 UNL     1      33.963   5.553  46.927  1.00  0.00     0.138 A 
HETATM   25  F1  UNL     1      34.963   4.822  46.381  1.00  0.00    -0.204 F 
HETATM   26  C19 UNL     1      33.959   6.126  48.193  1.00  0.00     0.073 A 
HETATM   27 CL1  UNL     1      35.414   5.845  49.125  1.00  0.00    -0.081 Cl
HETATM   28  C20 UNL     1      32.865   6.851  48.628  1.00  0.00     0.035 A 
ENDBRANCH   6  21
TORSDOF 6
ENDMDL
MODEL 7
REMARK VINA RESULT:      -7.7      1.935      2.221
REMARK  6 active torsions:
REMARK  status: ('A' for Active; 'I' for Inactive)
REMARK    1  A    between atoms: C1_2  and  C2_3 
REMARK       I    between atoms: C1_2  and  N2_13 
REMARK    2  A    between atoms: C3_4  and  C4_5 
REMARK    3  A    between atoms: C4_5  and  C5_6 
REMARK    4  A    between atoms: C5_6  and  N1_7 
REMARK    5  A    between atoms: N2_13  and  C10_14 
REMARK    6  A    between atoms: C14_19  and  C15_20 
ROOT
HETATM    1  C10 UNL     1      26.473   2.107  51.957  1.00  0.00     0.042 A 
HETATM    2  C11 UNL     1      26.542   0.740  51.926  1.00  0.00     0.143 A 
HETATM    3  N3  UNL     1      26.385  -0.662  52.241  1.00  0.00    -0.284 NA
HETATM    4  C12 UNL     1      26.338  -0.700  53.558  1.00  0.00     0.086 C 
HETATM    5  C13 UNL     1      26.460   0.703  54.169  1.00  0.00     0.070 C 
HETATM    6  C14 UNL     1      25.759   1.469  53.034  1.00  0.00     0.068 A 
ENDROOT
BRANCH   1   7
HETATM    7  N2  UNL     1      26.924   3.233  51.218  1.00  0.00    -0.320 N 
HETATM    8  C1  UNL     1      26.329   3.650  50.003  1.00  0.00     0.300 C 
HETATM    9  O1  UNL     1      25.338   3.034  49.485  1.00  0.00    -0.258 OA
HETATM   10  H13 UNL     1      27.713   3.785  51.559  1.00  0.00     0.169 HD
BRANCH   8  11
HETATM   11  C2  UNL     1      26.786   4.786  49.259  1.00  0.00    -0.005 C 
HETATM   12  C3  UNL     1      27.164   5.750  48.609  1.00  0.00    -0.095 C 
BRANCH  12  13
HETATM   13  C4  UNL     1      27.599   6.916  47.810  1.00  0.00     0.124 C 
BRANCH  13  14
HETATM   14  C5  UNL     1      27.558   8.161  48.690  1.00  0.00     0.284 C 
BRANCH  14  15
HETATM   15  N1  UNL     1      28.595   9.079  48.271  1.00  0.00     0.093 N 
HETATM   16  C6  UNL     1      29.654   9.120  49.277  1.00  0.00     0.298 C 
HETATM   17  C7  UNL     1      30.555  10.268  48.941  1.00  0.00     0.198 C 
HETATM   18  O2  UNL     1      30.840  10.365  47.602  1.00  0.00    -0.388 OA
HETATM   19  C8  UNL     1      30.602   9.218  46.867  1.00  0.00     0.198 C 
HETATM   20  C9  UNL     1      29.191   8.713  47.022  1.00  0.00     0.298 C 
ENDBRANCH  14  15
ENDBRANCH  13  14
ENDBRANCH  12  13
ENDBRANCH   8  11
ENDBRANCH   1   7
BRANCH   6  21
HETATM   21  C15 UNL     1      24.282   1.287  52.925  1.00  0.00    -0.038 A 
HETATM   22  C16 UNL     1      23.421   0.229  53.115  1.00  0.00     0.011 A 
HETATM   23  C17 UNL     1      22.069   0.390  52.928  1.00  0.00     0.044 A 
HETATM   24  C18 UNL     1      21.489   1.579  52.547  1.00  0.00     0.138 A 
HETATM   25  F1  UNL     1      20.143   1.589  52.400  1.00  0.00    -0.204 F 
HETATM   26  C19 UNL     1      22.346   2.654  52.352  1.00  0.00     0.073 A 
HETATM   27 CL1  UNL     1      21.555   4.139  51.870  1.00  0.00    -0.081 Cl
HETATM   28  C20 UNL     1      23.708   2.503  52.538  1.00  0.00     0.035 A 
ENDBRANCH   6  21
TORSDOF 6
ENDMDL
MODEL 8
REMARK VINA RESULT:      -7.7      2.358      3.631
REMARK  6 active torsions:
REMARK  status: ('A' for Active; 'I' for Inactive)
REMARK    1  A    between atoms: C1_2  and  C2_3 
REMARK       I    between atoms: C1_2  and  N2_13 
REMARK    2  A    between atoms: C3_4  and  C4_5 
REMARK    3  A    between atoms: C4_5  and  C5_6 
REMARK    4  A    between atoms: C5_6  and  N1_7 
REMARK    5  A    between atoms: N2_13  and  C10_14 
REMARK    6  A    between atoms: C14_19  and  C15_20 
ROOT
HETATM    1  C10 UNL     1      22.600   2.345  51.109  1.00  0.00     0.042 A 
HETATM    2  C11 UNL     1      21.570   2.907  51.815  1.00  0.00     0.143 A 
HETATM    3  N3  UNL     1      20.336   3.108  52.540  1.00  0.00    -0.284 NA
HETATM    4  C12 UNL     1      19.487   2.266  51.983  1.00  0.00     0.086 C 
HETATM    5  C13 UNL     1      20.147   1.462  50.854  1.00  0.00     0.070 C 
HETATM    6  C14 UNL     1      21.561   1.409  51.457  1.00  0.00     0.068 A 
ENDROOT
BRANCH   1   7
HETATM    7  N2  UNL     1      23.841   2.713  50.525  1.00  0.00    -0.320 N 
HETATM    8  C1  UNL     1      24.212   4.056  50.275  1.00  0.00     0.300 C 
HETATM    9  O1  UNL     1      23.445   5.037  50.560  1.00  0.00    -0.258 OA
HETATM   10  H13 UNL     1      24.516   1.991  50.264  1.00  0.00     0.169 HD
BRANCH   8  11
HETATM   11  C2  UNL     1      25.464   4.424  49.686  1.00  0.00    -0.005 C 
HETATM   12  C3  UNL     1      26.529   4.728  49.166  1.00  0.00    -0.095 C 
BRANCH  12  13
HETATM   13  C4  UNL     1      27.805   5.092  48.515  1.00  0.00     0.124 C 
BRANCH  13  14
HETATM   14  C5  UNL     1      27.877   6.609  48.382  1.00  0.00     0.284 C 
BRANCH  14  15
HETATM   15  N1  UNL     1      29.257   7.012  48.219  1.00  0.00     0.093 N 
HETATM   16  C6  UNL     1      30.138   5.878  48.486  1.00  0.00     0.298 C 
HETATM   17  C7  UNL     1      31.538   6.401  48.574  1.00  0.00     0.198 C 
HETATM   18  O2  UNL     1      31.839   7.324  47.603  1.00  0.00    -0.388 OA
HETATM   19  C8  UNL     1      30.991   7.323  46.511  1.00  0.00     0.198 C 
HETATM   20  C9  UNL     1      29.545   7.491  46.900  1.00  0.00     0.298 C 
ENDBRANCH  14  15
ENDBRANCH  13  14
ENDBRANCH  12  13
ENDBRANCH   8  11
ENDBRANCH   1   7
BRANCH   6  21
HETATM   21  C15 UNL     1      21.744   0.520  52.641  1.00  0.00    -0.038 A 
HETATM   22  C16 UNL     1      20.890  -0.113  53.516  1.00  0.00     0.011 A 
HETATM   23  C17 UNL     1      21.389  -0.887  54.538  1.00  0.00     0.044 A 
HETATM   24  C18 UNL     1      22.734  -1.080  54.760  1.00  0.00     0.138 A 
HETATM   25  F1  UNL     1      23.079  -1.868  55.805  1.00  0.00    -0.204 F 
HETATM   26  C19 UNL     1      23.606  -0.446  53.884  1.00  0.00     0.073 A 
HETATM   27 CL1  UNL     1      25.302  -0.729  54.212  1.00  0.00    -0.081 Cl
HETATM   28  C20 UNL     1      23.115   0.334  52.853  1.00  0.00     0.035 A 
ENDBRANCH   6  21
TORSDOF 6
ENDMDL
MODEL 9
REMARK VINA RESULT:      -7.6      2.592      3.056
REMARK  6 active torsions:
REMARK  status: ('A' for Active; 'I' for Inactive)
REMARK    1  A    between atoms: C1_2  and  C2_3 
REMARK       I    between atoms: C1_2  and  N2_13 
REMARK    2  A    between atoms: C3_4  and  C4_5 
REMARK    3  A    between atoms: C4_5  and  C5_6 
REMARK    4  A    between atoms: C5_6  and  N1_7 
REMARK    5  A    between atoms: N2_13  and  C10_14 
REMARK    6  A    between atoms: C14_19  and  C15_20 
ROOT
HETATM    1  C10 UNL     1      25.442   1.508  52.090  1.00  0.00     0.042 A 
HETATM    2  C11 UNL     1      26.103   0.313  51.986  1.00  0.00     0.143 A 
HETATM    3  N3  UNL     1      26.736  -0.951  52.290  1.00  0.00    -0.284 NA
HETATM    4  C12 UNL     1      27.239  -0.783  53.498  1.00  0.00     0.086 C 
HETATM    5  C13 UNL     1      26.945   0.621  54.043  1.00  0.00     0.070 C 
HETATM    6  C14 UNL     1      25.588   0.818  53.346  1.00  0.00     0.068 A 
ENDROOT
BRANCH   1   7
HETATM    7  N2  UNL     1      25.000   2.577  51.267  1.00  0.00    -0.320 N 
HETATM    8  C1  UNL     1      25.885   3.429  50.561  1.00  0.00     0.300 C 
HETATM    9  O1  UNL     1      27.152   3.290  50.621  1.00  0.00    -0.258 OA
HETATM   10  H13 UNL     1      24.000   2.761  51.162  1.00  0.00     0.169 HD
BRANCH   8  11
HETATM   11  C2  UNL     1      25.436   4.506  49.732  1.00  0.00    -0.005 C 
HETATM   12  C3  UNL     1      25.066   5.439  49.032  1.00  0.00    -0.095 C 
BRANCH  12  13
HETATM   13  C4  UNL     1      24.642   6.577  48.190  1.00  0.00     0.124 C 
BRANCH  13  14
HETATM   14  C5  UNL     1      25.882   7.279  47.645  1.00  0.00     0.284 C 
BRANCH  14  15
HETATM   15  N1  UNL     1      26.154   8.458  48.437  1.00  0.00     0.093 N 
HETATM   16  C6  UNL     1      27.341   8.236  49.261  1.00  0.00     0.298 C 
HETATM   17  C7  UNL     1      27.422   9.357  50.250  1.00  0.00     0.198 C 
HETATM   18  O2  UNL     1      27.153  10.588  49.705  1.00  0.00    -0.388 OA
HETATM   19  C8  UNL     1      27.246  10.652  48.327  1.00  0.00     0.198 C 
HETATM   20  C9  UNL     1      26.385   9.624  47.639  1.00  0.00     0.298 C 
ENDBRANCH  14  15
ENDBRANCH  13  14
ENDBRANCH  12  13
ENDBRANCH   8  11
ENDBRANCH   1   7
BRANCH   6  21
HETATM   21  C15 UNL     1      24.448   0.016  53.878  1.00  0.00    -0.038 A 
HETATM   22  C16 UNL     1      24.294  -0.879  54.913  1.00  0.00     0.011 A 
HETATM   23  C17 UNL     1      23.074  -1.467  55.149  1.00  0.00     0.044 A 
HETATM   24  C18 UNL     1      21.950  -1.218  54.394  1.00  0.00     0.138 A 
HETATM   25  F1  UNL     1      20.816  -1.871  54.743  1.00  0.00    -0.204 F 
HETATM   26  C19 UNL     1      22.092  -0.317  53.347  1.00  0.00     0.073 A 
HETATM   27 CL1  UNL     1      20.631  -0.037  52.423  1.00  0.00    -0.081 Cl
HETATM   28  C20 UNL     1      23.314   0.281  53.101  1.00  0.00     0.035 A 
ENDBRANCH   6  21
TORSDOF 6
ENDMDL
