MODEL 1
REMARK VINA RESULT:      -8.3      0.000      0.000
REMARK  6 active torsions:
REMARK  status: ('A' for Active; 'I' for Inactive)
REMARK    1  A    between atoms: N1_6  and  C6_7 
REMARK    2  A    between atoms: C6_7  and  C7_8 
REMARK    3  A    between atoms: C7_8  and  O1_9 
REMARK    4  A    between atoms: O1_9  and  C8_10 
REMARK    5  A    between atoms: C10_12  and  N2_13 
REMARK    6  A    between atoms: N2_13  and  C11_14 
ROOT
HETATM    1  C8  UNL     1      27.035   1.921  51.896  1.00  0.00     0.094 C 
HETATM    2  C9  UNL     1      26.628   0.635  52.155  1.00  0.00     0.067 C 
HETATM    3  C10 UNL     1      26.897   0.188  53.603  1.00  0.00     0.153 C 
HETATM    4  C17 UNL     1      26.526   1.592  54.210  1.00  0.00     0.122 C 
HETATM    5  C18 UNL     1      27.630   2.108  53.268  1.00  0.00     0.073 C 
HETATM    6  N3  UNL     1      28.617   2.410  54.139  1.00  0.00    -0.244 NA
HETATM    7  C19 UNL     1      29.043   1.001  54.583  1.00  0.00     0.230 C 
HETATM    8  N4  UNL     1      28.287   0.102  53.942  1.00  0.00    -0.246 NA
ENDROOT
BRANCH   3   9
HETATM    9  N2  UNL     1      26.031  -0.828  53.987  1.00  0.00    -0.358 N 
HETATM   10  H16 UNL     1      26.499  -1.739  54.282  1.00  0.00     0.162 HD
BRANCH   9  11
HETATM   11  C11 UNL     1      24.623  -0.851  54.052  1.00  0.00     0.032 A 
HETATM   12  C12 UNL     1      23.963  -1.267  55.215  1.00  0.00     0.032 A 
HETATM   13  C13 UNL     1      22.598  -1.319  55.346  1.00  0.00     0.046 A 
HETATM   14  C14 UNL     1      21.831  -0.938  54.269  1.00  0.00     0.138 A 
HETATM   15  F1  UNL     1      20.498  -0.991  54.405  1.00  0.00    -0.204 F 
HETATM   16  C15 UNL     1      22.387  -0.513  53.082  1.00  0.00     0.074 A 
HETATM   17 CL1  UNL     1      21.407  -0.025  51.699  1.00  0.00    -0.081 Cl
HETATM   18  C16 UNL     1      23.761  -0.493  53.040  1.00  0.00     0.056 A 
ENDBRANCH   9  11
ENDBRANCH   3   9
BRANCH   1  19
HETATM   19  O1  UNL     1      27.175   3.029  51.111  1.00  0.00    -0.347 OA
BRANCH  19  20
HETATM   20  C7  UNL     1      26.417   3.186  49.920  1.00  0.00     0.206 C 
BRANCH  20  21
HETATM   21  C6  UNL     1      25.253   4.070  50.138  1.00  0.00     0.299 C 
BRANCH  21  22
HETATM   22  N1  UNL     1      24.005   3.406  50.331  1.00  0.00     0.094 N 
HETATM   23  C2  UNL     1      23.284   4.010  51.437  1.00  0.00     0.219 C 
HETATM   24  C1  UNL     1      23.652   3.243  52.689  1.00  0.00     0.043 C 
HETATM   25  C3  UNL     1      21.824   3.859  51.154  1.00  0.00     0.037 C 
HETATM   26  C4  UNL     1      21.800   3.059  49.858  1.00  0.00     0.032 C 
HETATM   27  C5  UNL     1      23.094   3.544  49.211  1.00  0.00     0.273 C 
ENDBRANCH  21  22
ENDBRANCH  20  21
ENDBRANCH  19  20
ENDBRANCH   1  19
TORSDOF 6
ENDMDL
MODEL 2
REMARK VINA RESULT:      -8.2      1.830      2.882
REMARK  6 active torsions:
REMARK  status: ('A' for Active; 'I' for Inactive)
REMARK    1  A    between atoms: N1_6  and  C6_7 
REMARK    2  A    between atoms: C6_7  and  C7_8 
REMARK    3  A    between atoms: C7_8  and  O1_9 
REMARK    4  A    between atoms: O1_9  and  C8_10 
REMARK    5  A    between atoms: C10_12  and  N2_13 
REMARK    6  A    between atoms: N2_13  and  C11_14 
ROOT
HETATM    1  C8  UNL     1      27.042   2.034  51.849  1.00  0.00     0.094 C 
HETATM    2  C9  UNL     1      26.701   0.730  52.113  1.00  0.00     0.067 C 
HETATM    3  C10 UNL     1      27.077   0.275  53.535  1.00  0.00     0.153 C 
HETATM    4  C17 UNL     1      26.691   1.656  54.184  1.00  0.00     0.122 C 
HETATM    5  C18 UNL     1      27.715   2.226  53.184  1.00  0.00     0.073 C 
HETATM    6  N3  UNL     1      28.742   2.555  53.996  1.00  0.00    -0.244 NA
HETATM    7  C19 UNL     1      29.247   1.159  54.392  1.00  0.00     0.230 C 
HETATM    8  N4  UNL     1      28.488   0.238  53.785  1.00  0.00    -0.246 NA
ENDROOT
BRANCH   3   9
HETATM    9  N2  UNL     1      26.275  -0.778  53.956  1.00  0.00    -0.358 N 
HETATM   10  H16 UNL     1      26.793  -1.678  54.195  1.00  0.00     0.162 HD
BRANCH   9  11
HETATM   11  C11 UNL     1      24.877  -0.851  54.121  1.00  0.00     0.032 A 
HETATM   12  C12 UNL     1      24.318  -1.312  55.320  1.00  0.00     0.032 A 
HETATM   13  C13 UNL     1      22.969  -1.413  55.548  1.00  0.00     0.046 A 
HETATM   14  C14 UNL     1      22.113  -1.040  54.537  1.00  0.00     0.138 A 
HETATM   15  F1  UNL     1      20.796  -1.143  54.767  1.00  0.00    -0.204 F 
HETATM   16  C15 UNL     1      22.567  -0.575  53.322  1.00  0.00     0.074 A 
HETATM   17 CL1  UNL     1      21.474  -0.097  52.023  1.00  0.00    -0.081 Cl
HETATM   18  C16 UNL     1      23.933  -0.507  53.182  1.00  0.00     0.056 A 
ENDBRANCH   9  11
ENDBRANCH   3   9
BRANCH   1  19
HETATM   19  O1  UNL     1      27.091   3.156  51.073  1.00  0.00    -0.347 OA
BRANCH  19  20
HETATM   20  C7  UNL     1      26.550   3.166  49.761  1.00  0.00     0.206 C 
BRANCH  20  21
HETATM   21  C6  UNL     1      25.871   4.447  49.470  1.00  0.00     0.299 C 
BRANCH  21  22
HETATM   22  N1  UNL     1      26.575   5.331  48.600  1.00  0.00     0.094 N 
HETATM   23  C2  UNL     1      26.437   6.701  49.063  1.00  0.00     0.219 C 
HETATM   24  C1  UNL     1      25.235   7.295  48.360  1.00  0.00     0.043 C 
HETATM   25  C3  UNL     1      27.677   7.433  48.666  1.00  0.00     0.037 C 
HETATM   26  C4  UNL     1      28.466   6.391  47.885  1.00  0.00     0.032 C 
HETATM   27  C5  UNL     1      28.009   5.116  48.589  1.00  0.00     0.273 C 
ENDBRANCH  21  22
ENDBRANCH  20  21
ENDBRANCH  19  20
ENDBRANCH   1  19
TORSDOF 6
ENDMDL
MODEL 3
REMARK VINA RESULT:      -7.9      2.843      5.632
REMARK  6 active torsions:
REMARK  status: ('A' for Active; 'I' for Inactive)
REMARK    1  A    between atoms: N1_6  and  C6_7 
REMARK    2  A    between atoms: C6_7  and  C7_8 
REMARK    3  A    between atoms: C7_8  and  O1_9 
REMARK    4  A    between atoms: O1_9  and  C8_10 
REMARK    5  A    between atoms: C10_12  and  N2_13 
REMARK    6  A    between atoms: N2_13  and  C11_14 
ROOT
HETATM    1  C8  UNL     1      22.935   2.445  50.537  1.00  0.00     0.094 C 
HETATM    2  C9  UNL     1      24.288   2.491  50.309  1.00  0.00     0.067 C 
HETATM    3  C10 UNL     1      25.024   3.512  51.195  1.00  0.00     0.153 C 
HETATM    4  C17 UNL     1      24.142   3.197  52.460  1.00  0.00     0.122 C 
HETATM    5  C18 UNL     1      22.971   3.576  51.534  1.00  0.00     0.073 C 
HETATM    6  N3  UNL     1      22.597   4.772  52.035  1.00  0.00    -0.244 NA
HETATM    7  C19 UNL     1      23.791   5.641  51.608  1.00  0.00     0.230 C 
HETATM    8  N4  UNL     1      24.664   4.876  50.942  1.00  0.00    -0.246 NA
ENDROOT
BRANCH   3   9
HETATM    9  N2  UNL     1      26.361   3.171  51.354  1.00  0.00    -0.358 N 
HETATM   10  H16 UNL     1      27.055   3.794  50.837  1.00  0.00     0.162 HD
BRANCH   9  11
HETATM   11  C11 UNL     1      26.956   2.129  52.093  1.00  0.00     0.032 A 
HETATM   12  C12 UNL     1      27.910   2.402  53.082  1.00  0.00     0.032 A 
HETATM   13  C13 UNL     1      28.531   1.439  53.835  1.00  0.00     0.046 A 
HETATM   14  C14 UNL     1      28.196   0.124  53.606  1.00  0.00     0.138 A 
HETATM   15  F1  UNL     1      28.809  -0.813  54.346  1.00  0.00    -0.204 F 
HETATM   16  C15 UNL     1      27.270  -0.246  52.656  1.00  0.00     0.074 A 
HETATM   17 CL1  UNL     1      26.839  -1.930  52.357  1.00  0.00    -0.081 Cl
HETATM   18  C16 UNL     1      26.698   0.785  51.948  1.00  0.00     0.056 A 
ENDBRANCH   9  11
ENDBRANCH   3   9
BRANCH   1  19
HETATM   19  O1  UNL     1      21.674   1.956  50.349  1.00  0.00    -0.347 OA
BRANCH  19  20
HETATM   20  C7  UNL     1      20.890   1.507  51.444  1.00  0.00     0.206 C 
BRANCH  20  21
HETATM   21  C6  UNL     1      21.325   0.171  51.904  1.00  0.00     0.299 C 
BRANCH  21  22
HETATM   22  N1  UNL     1      22.149   0.160  53.068  1.00  0.00     0.094 N 
HETATM   23  C2  UNL     1      21.527  -0.635  54.113  1.00  0.00     0.219 C 
HETATM   24  C1  UNL     1      20.694   0.304  54.959  1.00  0.00     0.043 C 
HETATM   25  C3  UNL     1      22.624  -1.229  54.934  1.00  0.00     0.037 C 
HETATM   26  C4  UNL     1      23.885  -0.639  54.316  1.00  0.00     0.032 C 
HETATM   27  C5  UNL     1      23.433  -0.482  52.867  1.00  0.00     0.273 C 
ENDBRANCH  21  22
ENDBRANCH  20  21
ENDBRANCH  19  20
ENDBRANCH   1  19
TORSDOF 6
ENDMDL
MODEL 4
REMARK VINA RESULT:      -7.7      3.421      5.330
REMARK  6 active torsions:
REMARK  status: ('A' for Active; 'I' for Inactive)
REMARK    1  A    between atoms: N1_6  and  C6_7 
REMARK    2  A    between atoms: C6_7  and  C7_8 
REMARK    3  A    between atoms: C7_8  and  O1_9 
REMARK    4  A    between atoms: O1_9  and  C8_10 
REMARK    5  A    between atoms: C10_12  and  N2_13 
REMARK    6  A    between atoms: N2_13  and  C11_14 
ROOT
HETATM    1  C8  UNL     1      21.849   0.911  53.402  1.00  0.00     0.094 C 
HETATM    2  C9  UNL     1      23.181   0.863  53.075  1.00  0.00     0.067 C 
HETATM    3  C10 UNL     1      23.848  -0.482  53.419  1.00  0.00     0.153 C 
HETATM    4  C17 UNL     1      22.590  -1.326  52.992  1.00  0.00     0.122 C 
HETATM    5  C18 UNL     1      21.858  -0.458  54.033  1.00  0.00     0.073 C 
HETATM    6  N3  UNL     1      21.647  -1.342  55.031  1.00  0.00    -0.244 NA
HETATM    7  C19 UNL     1      23.082  -1.531  55.549  1.00  0.00     0.230 C 
HETATM    8  N4  UNL     1      23.905  -0.766  54.823  1.00  0.00    -0.246 NA
ENDROOT
BRANCH   3   9
HETATM    9  N2  UNL     1      24.963  -0.710  52.624  1.00  0.00    -0.358 N 
HETATM   10  H16 UNL     1      24.761  -1.113  51.659  1.00  0.00     0.162 HD
BRANCH   9  11
HETATM   11  C11 UNL     1      26.331  -0.491  52.887  1.00  0.00     0.032 A 
HETATM   12  C12 UNL     1      27.240  -1.557  52.900  1.00  0.00     0.032 A 
HETATM   13  C13 UNL     1      28.581  -1.419  53.153  1.00  0.00     0.046 A 
HETATM   14  C14 UNL     1      29.063  -0.155  53.408  1.00  0.00     0.138 A 
HETATM   15  F1  UNL     1      30.376  -0.028  53.654  1.00  0.00    -0.204 F 
HETATM   16  C15 UNL     1      28.249   0.956  53.417  1.00  0.00     0.074 A 
HETATM   17 CL1  UNL     1      28.862   2.577  53.744  1.00  0.00    -0.081 Cl
HETATM   18  C16 UNL     1      26.919   0.724  53.154  1.00  0.00     0.056 A 
ENDBRANCH   9  11
ENDBRANCH   3   9
BRANCH   1  19
HETATM   19  O1  UNL     1      20.618   1.500  53.453  1.00  0.00    -0.347 OA
BRANCH  19  20
HETATM   20  C7  UNL     1      19.897   1.800  52.267  1.00  0.00     0.206 C 
BRANCH  20  21
HETATM   21  C6  UNL     1      20.005   3.233  51.922  1.00  0.00     0.299 C 
BRANCH  21  22
HETATM   22  N1  UNL     1      20.902   3.542  50.857  1.00  0.00     0.094 N 
HETATM   23  C2  UNL     1      22.158   4.040  51.390  1.00  0.00     0.219 C 
HETATM   24  C1  UNL     1      22.050   5.548  51.463  1.00  0.00     0.043 C 
HETATM   25  C3  UNL     1      23.236   3.649  50.433  1.00  0.00     0.037 C 
HETATM   26  C4  UNL     1      22.473   2.974  49.301  1.00  0.00     0.032 C 
HETATM   27  C5  UNL     1      21.297   2.386  50.075  1.00  0.00     0.273 C 
ENDBRANCH  21  22
ENDBRANCH  20  21
ENDBRANCH  19  20
ENDBRANCH   1  19
TORSDOF 6
ENDMDL
MODEL 5
REMARK VINA RESULT:      -7.6      3.173      5.340
REMARK  6 active torsions:
REMARK  status: ('A' for Active; 'I' for Inactive)
REMARK    1  A    between atoms: N1_6  and  C6_7 
REMARK    2  A    between atoms: C6_7  and  C7_8 
REMARK    3  A    between atoms: C7_8  and  O1_9 
REMARK    4  A    between atoms: O1_9  and  C8_10 
REMARK    5  A    between atoms: C10_12  and  N2_13 
REMARK    6  A    between atoms: N2_13  and  C11_14 
ROOT
HETATM    1  C8  UNL     1      24.187   0.093  53.670  1.00  0.00     0.094 C 
HETATM    2  C9  UNL     1      24.330   1.403  53.288  1.00  0.00     0.067 C 
HETATM    3  C10 UNL     1      25.783   1.787  52.952  1.00  0.00     0.153 C 
HETATM    4  C17 UNL     1      26.090   0.409  52.257  1.00  0.00     0.122 C 
HETATM    5  C18 UNL     1      25.668  -0.183  53.615  1.00  0.00     0.073 C 
HETATM    6  N3  UNL     1      26.850  -0.598  54.116  1.00  0.00    -0.244 NA
HETATM    7  C19 UNL     1      27.518   0.753  54.417  1.00  0.00     0.230 C 
HETATM    8  N4  UNL     1      26.677   1.735  54.072  1.00  0.00    -0.246 NA
ENDROOT
BRANCH   3   9
HETATM    9  N2  UNL     1      25.832   2.869  52.082  1.00  0.00    -0.358 N 
HETATM   10  H16 UNL     1      26.766   3.379  52.041  1.00  0.00     0.162 HD
BRANCH   9  11
HETATM   11  C11 UNL     1      24.839   3.406  51.238  1.00  0.00     0.032 A 
HETATM   12  C12 UNL     1      24.771   3.045  49.887  1.00  0.00     0.032 A 
HETATM   13  C13 UNL     1      23.836   3.530  49.008  1.00  0.00     0.046 A 
HETATM   14  C14 UNL     1      22.908   4.428  49.484  1.00  0.00     0.138 A 
HETATM   15  F1  UNL     1      21.997   4.899  48.619  1.00  0.00    -0.204 F 
HETATM   16  C15 UNL     1      22.892   4.845  50.797  1.00  0.00     0.074 A 
HETATM   17 CL1  UNL     1      21.705   5.995  51.411  1.00  0.00    -0.081 Cl
HETATM   18  C16 UNL     1      23.865   4.306  51.606  1.00  0.00     0.056 A 
ENDBRANCH   9  11
ENDBRANCH   3   9
BRANCH   1  19
HETATM   19  O1  UNL     1      23.465  -1.004  54.047  1.00  0.00    -0.347 OA
BRANCH  19  20
HETATM   20  C7  UNL     1      22.133  -1.197  53.595  1.00  0.00     0.206 C 
BRANCH  20  21
HETATM   21  C6  UNL     1      21.186  -0.337  54.335  1.00  0.00     0.299 C 
BRANCH  21  22
HETATM   22  N1  UNL     1      20.079   0.150  53.578  1.00  0.00     0.094 N 
HETATM   23  C2  UNL     1      20.534   0.644  52.290  1.00  0.00     0.219 C 
HETATM   24  C1  UNL     1      20.814   2.122  52.447  1.00  0.00     0.043 C 
HETATM   25  C3  UNL     1      19.423   0.433  51.313  1.00  0.00     0.037 C 
HETATM   26  C4  UNL     1      18.302  -0.135  52.174  1.00  0.00     0.032 C 
HETATM   27  C5  UNL     1      19.115  -0.877  53.230  1.00  0.00     0.273 C 
ENDBRANCH  21  22
ENDBRANCH  20  21
ENDBRANCH  19  20
ENDBRANCH   1  19
TORSDOF 6
ENDMDL
MODEL 6
REMARK VINA RESULT:      -7.5      3.611      7.407
REMARK  6 active torsions:
REMARK  status: ('A' for Active; 'I' for Inactive)
REMARK    1  A    between atoms: N1_6  and  C6_7 
REMARK    2  A    between atoms: C6_7  and  C7_8 
REMARK    3  A    between atoms: C7_8  and  O1_9 
REMARK    4  A    between atoms: O1_9  and  C8_10 
REMARK    5  A    between atoms: C10_12  and  N2_13 
REMARK    6  A    between atoms: N2_13  and  C11_14 
ROOT
HETATM    1  C8  UNL     1      24.043   0.914  52.462  1.00  0.00     0.094 C 
HETATM    2  C9  UNL     1      24.451   2.108  51.920  1.00  0.00     0.067 C 
HETATM    3  C10 UNL     1      23.342   2.833  51.134  1.00  0.00     0.153 C 
HETATM    4  C17 UNL     1      22.217   2.428  52.157  1.00  0.00     0.122 C 
HETATM    5  C18 UNL     1      22.673   0.992  51.839  1.00  0.00     0.073 C 
HETATM    6  N3  UNL     1      21.643   0.532  51.097  1.00  0.00    -0.244 NA
HETATM    7  C19 UNL     1      21.838   1.348  49.809  1.00  0.00     0.230 C 
HETATM    8  N4  UNL     1      22.907   2.139  49.958  1.00  0.00    -0.246 NA
ENDROOT
BRANCH   3   9
HETATM    9  N2  UNL     1      23.575   4.201  51.080  1.00  0.00    -0.358 N 
HETATM   10  H16 UNL     1      23.105   4.775  51.845  1.00  0.00     0.162 HD
BRANCH   9  11
HETATM   11  C11 UNL     1      24.338   4.962  50.170  1.00  0.00     0.032 A 
HETATM   12  C12 UNL     1      23.793   6.087  49.540  1.00  0.00     0.032 A 
HETATM   13  C13 UNL     1      24.475   6.870  48.642  1.00  0.00     0.046 A 
HETATM   14  C14 UNL     1      25.774   6.527  48.344  1.00  0.00     0.138 A 
HETATM   15  F1  UNL     1      26.434   7.296  47.465  1.00  0.00    -0.204 F 
HETATM   16  C15 UNL     1      26.398   5.438  48.912  1.00  0.00     0.074 A 
HETATM   17 CL1  UNL     1      28.062   4.995  48.532  1.00  0.00    -0.081 Cl
HETATM   18  C16 UNL     1      25.639   4.711  49.800  1.00  0.00     0.056 A 
ENDBRANCH   9  11
ENDBRANCH   3   9
BRANCH   1  19
HETATM   19  O1  UNL     1      24.214  -0.216  53.208  1.00  0.00    -0.347 OA
BRANCH  19  20
HETATM   20  C7  UNL     1      25.512  -0.679  53.553  1.00  0.00     0.206 C 
BRANCH  20  21
HETATM   21  C6  UNL     1      26.434  -0.598  52.400  1.00  0.00     0.299 C 
BRANCH  21  22
HETATM   22  N1  UNL     1      27.785  -0.268  52.718  1.00  0.00     0.094 N 
HETATM   23  C2  UNL     1      27.820   0.732  53.771  1.00  0.00     0.219 C 
HETATM   24  C1  UNL     1      27.860   2.090  53.103  1.00  0.00     0.043 C 
HETATM   25  C3  UNL     1      29.072   0.510  54.556  1.00  0.00     0.037 C 
HETATM   26  C4  UNL     1      29.756  -0.628  53.810  1.00  0.00     0.032 C 
HETATM   27  C5  UNL     1      28.540  -1.375  53.272  1.00  0.00     0.273 C 
ENDBRANCH  21  22
ENDBRANCH  20  21
ENDBRANCH  19  20
ENDBRANCH   1  19
TORSDOF 6
ENDMDL
MODEL 7
REMARK VINA RESULT:      -7.3      3.298      5.504
REMARK  6 active torsions:
REMARK  status: ('A' for Active; 'I' for Inactive)
REMARK    1  A    between atoms: N1_6  and  C6_7 
REMARK    2  A    between atoms: C6_7  and  C7_8 
REMARK    3  A    between atoms: C7_8  and  O1_9 
REMARK    4  A    between atoms: O1_9  and  C8_10 
REMARK    5  A    between atoms: C10_12  and  N2_13 
REMARK    6  A    between atoms: N2_13  and  C11_14 
ROOT
HETATM    1  C8  UNL     1      23.099   2.303  50.553  1.00  0.00     0.094 C 
HETATM    2  C9  UNL     1      24.105   1.791  51.334  1.00  0.00     0.067 C 
HETATM    3  C10 UNL     1      25.249   2.789  51.589  1.00  0.00     0.153 C 
HETATM    4  C17 UNL     1      24.278   4.019  51.730  1.00  0.00     0.122 C 
HETATM    5  C18 UNL     1      23.817   3.608  50.319  1.00  0.00     0.073 C 
HETATM    6  N3  UNL     1      24.345   4.589  49.558  1.00  0.00    -0.244 NA
HETATM    7  C19 UNL     1      25.840   4.242  49.648  1.00  0.00     0.230 C 
HETATM    8  N4  UNL     1      25.983   3.153  50.412  1.00  0.00    -0.246 NA
ENDROOT
BRANCH   3   9
HETATM    9  N2  UNL     1      25.933   2.486  52.759  1.00  0.00    -0.358 N 
HETATM   10  H16 UNL     1      25.674   3.080  53.605  1.00  0.00     0.162 HD
BRANCH   9  11
HETATM   11  C11 UNL     1      26.919   1.512  53.014  1.00  0.00     0.032 A 
HETATM   12  C12 UNL     1      28.158   1.869  53.562  1.00  0.00     0.032 A 
HETATM   13  C13 UNL     1      29.164   0.976  53.831  1.00  0.00     0.046 A 
HETATM   14  C14 UNL     1      28.942  -0.352  53.545  1.00  0.00     0.138 A 
HETATM   15  F1  UNL     1      29.931  -1.219  53.811  1.00  0.00    -0.204 F 
HETATM   16  C15 UNL     1      27.757  -0.802  53.005  1.00  0.00     0.074 A 
HETATM   17 CL1  UNL     1      27.470  -2.502  52.637  1.00  0.00    -0.081 Cl
HETATM   18  C16 UNL     1      26.806   0.163  52.768  1.00  0.00     0.056 A 
ENDBRANCH   9  11
ENDBRANCH   3   9
BRANCH   1  19
HETATM   19  O1  UNL     1      21.888   2.254  49.924  1.00  0.00    -0.347 OA
BRANCH  19  20
HETATM   20  C7  UNL     1      20.731   2.830  50.513  1.00  0.00     0.206 C 
BRANCH  20  21
HETATM   21  C6  UNL     1      20.454   2.240  51.840  1.00  0.00     0.299 C 
BRANCH  21  22
HETATM   22  N1  UNL     1      19.924   0.916  51.824  1.00  0.00     0.094 N 
HETATM   23  C2  UNL     1      20.218   0.245  53.077  1.00  0.00     0.219 C 
HETATM   24  C1  UNL     1      21.526  -0.496  52.897  1.00  0.00     0.043 C 
HETATM   25  C3  UNL     1      19.111  -0.724  53.336  1.00  0.00     0.037 C 
HETATM   26  C4  UNL     1      18.235  -0.594  52.097  1.00  0.00     0.032 C 
HETATM   27  C5  UNL     1      18.477   0.870  51.742  1.00  0.00     0.273 C 
ENDBRANCH  21  22
ENDBRANCH  20  21
ENDBRANCH  19  20
ENDBRANCH   1  19
TORSDOF 6
ENDMDL
MODEL 8
REMARK VINA RESULT:      -7.2      3.297      5.656
REMARK  6 active torsions:
REMARK  status: ('A' for Active; 'I' for Inactive)
REMARK    1  A    between atoms: N1_6  and  C6_7 
REMARK    2  A    between atoms: C6_7  and  C7_8 
REMARK    3  A    between atoms: C7_8  and  O1_9 
REMARK    4  A    between atoms: O1_9  and  C8_10 
REMARK    5  A    between atoms: C10_12  and  N2_13 
REMARK    6  A    between atoms: N2_13  and  C11_14 
ROOT
HETATM    1  C8  UNL     1      22.512   3.110  50.419  1.00  0.00     0.094 C 
HETATM    2  C9  UNL     1      23.794   2.884  49.981  1.00  0.00     0.067 C 
HETATM    3  C10 UNL     1      24.857   3.671  50.768  1.00  0.00     0.153 C 
HETATM    4  C17 UNL     1      24.125   3.473  52.147  1.00  0.00     0.122 C 
HETATM    5  C18 UNL     1      22.940   4.145  51.428  1.00  0.00     0.073 C 
HETATM    6  N3  UNL     1      22.914   5.360  52.015  1.00  0.00    -0.244 NA
HETATM    7  C19 UNL     1      24.191   5.983  51.429  1.00  0.00     0.230 C 
HETATM    8  N4  UNL     1      24.768   5.094  50.613  1.00  0.00    -0.246 NA
ENDROOT
BRANCH   3   9
HETATM    9  N2  UNL     1      26.096   3.048  50.704  1.00  0.00    -0.358 N 
HETATM   10  H16 UNL     1      26.703   3.324  49.873  1.00  0.00     0.162 HD
BRANCH   9  11
HETATM   11  C11 UNL     1      26.688   2.103  51.567  1.00  0.00     0.032 A 
HETATM   12  C12 UNL     1      26.332   0.750  51.504  1.00  0.00     0.032 A 
HETATM   13  C13 UNL     1      26.863  -0.222  52.313  1.00  0.00     0.046 A 
HETATM   14  C14 UNL     1      27.803   0.156  53.244  1.00  0.00     0.138 A 
HETATM   15  F1  UNL     1      28.318  -0.799  54.033  1.00  0.00    -0.204 F 
HETATM   16  C15 UNL     1      28.219   1.462  53.384  1.00  0.00     0.074 A 
HETATM   17 CL1  UNL     1      29.422   1.951  54.576  1.00  0.00    -0.081 Cl
HETATM   18  C16 UNL     1      27.634   2.369  52.531  1.00  0.00     0.056 A 
ENDBRANCH   9  11
ENDBRANCH   3   9
BRANCH   1  19
HETATM   19  O1  UNL     1      21.162   2.909  50.418  1.00  0.00    -0.347 OA
BRANCH  19  20
HETATM   20  C7  UNL     1      20.609   1.639  50.107  1.00  0.00     0.206 C 
BRANCH  20  21
HETATM   21  C6  UNL     1      21.490   0.543  50.566  1.00  0.00     0.299 C 
BRANCH  21  22
HETATM   22  N1  UNL     1      21.090  -0.100  51.775  1.00  0.00     0.094 N 
HETATM   23  C2  UNL     1      21.761   0.507  52.910  1.00  0.00     0.219 C 
HETATM   24  C1  UNL     1      23.033  -0.276  53.155  1.00  0.00     0.043 C 
HETATM   25  C3  UNL     1      20.849   0.385  54.087  1.00  0.00     0.037 C 
HETATM   26  C4  UNL     1      19.668  -0.404  53.535  1.00  0.00     0.032 C 
HETATM   27  C5  UNL     1      19.682   0.063  52.082  1.00  0.00     0.273 C 
ENDBRANCH  21  22
ENDBRANCH  20  21
ENDBRANCH  19  20
ENDBRANCH   1  19
TORSDOF 6
ENDMDL
MODEL 9
REMARK VINA RESULT:      -7.2      3.348      5.482
REMARK  6 active torsions:
REMARK  status: ('A' for Active; 'I' for Inactive)
REMARK    1  A    between atoms: N1_6  and  C6_7 
REMARK    2  A    between atoms: C6_7  and  C7_8 
REMARK    3  A    between atoms: C7_8  and  O1_9 
REMARK    4  A    between atoms: O1_9  and  C8_10 
REMARK    5  A    between atoms: C10_12  and  N2_13 
REMARK    6  A    between atoms: N2_13  and  C11_14 
ROOT
HETATM    1  C8  UNL     1      20.576   2.250  52.709  1.00  0.00     0.094 C 
HETATM    2  C9  UNL     1      21.599   1.456  53.167  1.00  0.00     0.067 C 
HETATM    3  C10 UNL     1      21.392  -0.040  52.869  1.00  0.00     0.153 C 
HETATM    4  C17 UNL     1      20.773   0.228  51.447  1.00  0.00     0.122 C 
HETATM    5  C18 UNL     1      19.756   1.079  52.230  1.00  0.00     0.073 C 
HETATM    6  N3  UNL     1      18.644   0.317  52.158  1.00  0.00    -0.244 NA
HETATM    7  C19 UNL     1      19.040  -0.848  53.078  1.00  0.00     0.230 C 
HETATM    8  N4  UNL     1      20.273  -0.625  53.549  1.00  0.00    -0.246 NA
ENDROOT
BRANCH   3   9
HETATM    9  N2  UNL     1      22.603  -0.719  52.827  1.00  0.00    -0.358 N 
HETATM   10  H16 UNL     1      22.569  -1.686  52.382  1.00  0.00     0.162 HD
BRANCH   9  11
HETATM   11  C11 UNL     1      23.881  -0.333  53.281  1.00  0.00     0.032 A 
HETATM   12  C12 UNL     1      24.386  -0.810  54.497  1.00  0.00     0.032 A 
HETATM   13  C13 UNL     1      25.617  -0.474  55.001  1.00  0.00     0.046 A 
HETATM   14  C14 UNL     1      26.403   0.384  54.266  1.00  0.00     0.138 A 
HETATM   15  F1  UNL     1      27.605   0.709  54.765  1.00  0.00    -0.204 F 
HETATM   16  C15 UNL     1      25.995   0.906  53.059  1.00  0.00     0.074 A 
HETATM   17 CL1  UNL     1      26.998   2.007  52.114  1.00  0.00    -0.081 Cl
HETATM   18  C16 UNL     1      24.747   0.515  52.631  1.00  0.00     0.056 A 
ENDBRANCH   9  11
ENDBRANCH   3   9
BRANCH   1  19
HETATM   19  O1  UNL     1      19.960   3.447  52.479  1.00  0.00    -0.347 OA
BRANCH  19  20
HETATM   20  C7  UNL     1      19.913   4.010  51.177  1.00  0.00     0.206 C 
BRANCH  20  21
HETATM   21  C6  UNL     1      21.063   4.910  50.940  1.00  0.00     0.299 C 
BRANCH  21  22
HETATM   22  N1  UNL     1      22.047   4.421  50.030  1.00  0.00     0.094 N 
HETATM   23  C2  UNL     1      23.215   3.959  50.759  1.00  0.00     0.219 C 
HETATM   24  C1  UNL     1      24.177   5.123  50.855  1.00  0.00     0.043 C 
HETATM   25  C3  UNL     1      23.827   2.851  49.964  1.00  0.00     0.037 C 
HETATM   26  C4  UNL     1      22.961   2.797  48.713  1.00  0.00     0.032 C 
HETATM   27  C5  UNL     1      21.621   3.251  49.286  1.00  0.00     0.273 C 
ENDBRANCH  21  22
ENDBRANCH  20  21
ENDBRANCH  19  20
ENDBRANCH   1  19
TORSDOF 6
ENDMDL
