MODEL 1
REMARK VINA RESULT:      -8.7      0.000      0.000
REMARK  4 active torsions:
REMARK  status: ('A' for Active; 'I' for Inactive)
REMARK    1  A    between atoms: N1_1  and  C1_2 
REMARK    2  A    between atoms: C1_2  and  C2_3 
REMARK    3  A    between atoms: N3_17  and  C14_18 
REMARK    4  A    between atoms: C14_18  and  C15_19 
ROOT
HETATM    1  C2  UNL     1      20.484   3.687  51.574  1.00  0.00     0.013 C 
HETATM    2  C3  UNL     1      21.095   4.540  50.740  1.00  0.00    -0.017 C 
HETATM    3  C4  UNL     1      20.850   4.678  49.314  1.00  0.00    -0.001 A 
HETATM    4  C5  UNL     1      19.818   4.380  48.458  1.00  0.00     0.014 A 
HETATM    5  C6  UNL     1      19.853   4.633  47.106  1.00  0.00     0.001 A 
HETATM    6  C7  UNL     1      20.977   5.213  46.593  1.00  0.00     0.002 A 
HETATM    7  C8  UNL     1      22.008   5.510  47.453  1.00  0.00     0.030 A 
HETATM    8  C9  UNL     1      21.984   5.256  48.832  1.00  0.00     0.042 A 
HETATM    9  N2  UNL     1      22.976   5.520  49.855  1.00  0.00    -0.362 N 
HETATM   10  C10 UNL     1      24.360   5.800  49.652  1.00  0.00     0.150 C 
HETATM   11  C11 UNL     1      25.361   4.884  50.195  1.00  0.00     0.187 C 
HETATM   12  O1  UNL     1      25.404   3.574  49.819  1.00  0.00    -0.388 OA
HETATM   13  C12 UNL     1      26.426   2.832  50.267  1.00  0.00     0.198 C 
HETATM   14  C13 UNL     1      26.735   2.437  51.636  1.00  0.00     0.299 C 
HETATM   15  N3  UNL     1      25.948   1.598  52.426  1.00  0.00     0.098 NA
HETATM   16  C21 UNL     1      24.704   2.070  52.976  1.00  0.00     0.300 C 
HETATM   17  C22 UNL     1      23.738   2.297  51.903  1.00  0.00     0.007 C 
HETATM   18  C23 UNL     1      23.294   3.531  51.888  1.00  0.00     0.050 C 
HETATM   19  C24 UNL     1      23.040   4.917  52.174  1.00  0.00     0.176 C 
HETATM   20  O2  UNL     1      23.747   4.754  53.179  1.00  0.00    -0.291 OA
HETATM   21  C25 UNL     1      22.162   5.476  51.095  1.00  0.00     0.192 C 
ENDROOT
BRANCH  15  22
HETATM   22  C14 UNL     1      26.713   1.168  53.638  1.00  0.00     0.311 C 
BRANCH  22  23
HETATM   23  C15 UNL     1      27.460  -0.078  53.430  1.00  0.00    -0.030 A 
HETATM   24  C16 UNL     1      26.914  -1.234  52.862  1.00  0.00     0.009 A 
HETATM   25  C17 UNL     1      27.608  -2.407  52.661  1.00  0.00     0.001 A 
HETATM   26  C18 UNL     1      28.924  -2.482  53.031  1.00  0.00     0.000 A 
HETATM   27  C19 UNL     1      29.533  -1.388  53.596  1.00  0.00     0.001 A 
HETATM   28  C20 UNL     1      28.785  -0.262  53.765  1.00  0.00     0.009 A 
ENDBRANCH  22  23
ENDBRANCH  15  22
BRANCH   1  29
HETATM   29  C1  UNL     1      19.546   2.628  51.925  1.00  0.00     0.294 C 
BRANCH  29  30
HETATM   30  N1  UNL     1      20.109   1.529  52.693  1.00  0.00     0.081 N 
HETATM   31  H1  UNL     1      21.135   1.544  52.715  1.00  0.00     0.313 HD
HETATM   32  H2  UNL     1      19.658   0.630  52.479  1.00  0.00     0.313 HD
ENDBRANCH  29  30
ENDBRANCH   1  29
TORSDOF 4
ENDMDL
MODEL 2
REMARK VINA RESULT:      -8.2      2.868      6.302
REMARK  4 active torsions:
REMARK  status: ('A' for Active; 'I' for Inactive)
REMARK    1  A    between atoms: N1_1  and  C1_2 
REMARK    2  A    between atoms: C1_2  and  C2_3 
REMARK    3  A    between atoms: N3_17  and  C14_18 
REMARK    4  A    between atoms: C14_18  and  C15_19 
ROOT
HETATM    1  C2  UNL     1      24.765   2.859  52.775  1.00  0.00     0.013 C 
HETATM    2  C3  UNL     1      23.466   3.017  52.486  1.00  0.00    -0.017 C 
HETATM    3  C4  UNL     1      22.539   1.974  52.082  1.00  0.00    -0.001 A 
HETATM    4  C5  UNL     1      22.477   0.607  52.211  1.00  0.00     0.014 A 
HETATM    5  C6  UNL     1      21.442  -0.156  51.721  1.00  0.00     0.001 A 
HETATM    6  C7  UNL     1      20.425   0.483  51.073  1.00  0.00     0.002 A 
HETATM    7  C8  UNL     1      20.491   1.851  50.947  1.00  0.00     0.030 A 
HETATM    8  C9  UNL     1      21.540   2.640  51.442  1.00  0.00     0.042 A 
HETATM    9  N2  UNL     1      21.741   4.073  51.396  1.00  0.00    -0.362 N 
HETATM   10  C10 UNL     1      21.079   5.003  50.539  1.00  0.00     0.150 C 
HETATM   11  C11 UNL     1      21.866   5.773  49.577  1.00  0.00     0.187 C 
HETATM   12  O1  UNL     1      22.606   5.159  48.610  1.00  0.00    -0.388 OA
HETATM   13  C12 UNL     1      23.198   5.937  47.694  1.00  0.00     0.198 C 
HETATM   14  C13 UNL     1      24.268   6.910  47.877  1.00  0.00     0.299 C 
HETATM   15  N3  UNL     1      25.571   6.605  48.273  1.00  0.00     0.098 NA
HETATM   16  C21 UNL     1      25.850   6.228  49.634  1.00  0.00     0.300 C 
HETATM   17  C22 UNL     1      25.244   4.931  49.927  1.00  0.00     0.007 C 
HETATM   18  C23 UNL     1      24.415   4.989  50.941  1.00  0.00     0.050 C 
HETATM   19  C24 UNL     1      23.613   5.420  52.053  1.00  0.00     0.176 C 
HETATM   20  O2  UNL     1      24.190   6.511  51.941  1.00  0.00    -0.291 OA
HETATM   21  C25 UNL     1      22.732   4.283  52.479  1.00  0.00     0.192 C 
ENDROOT
BRANCH  15  22
HETATM   22  C14 UNL     1      26.462   7.787  48.059  1.00  0.00     0.311 C 
BRANCH  22  23
HETATM   23  C15 UNL     1      27.886   7.464  48.206  1.00  0.00    -0.030 A 
HETATM   24  C16 UNL     1      28.854   8.369  48.656  1.00  0.00     0.009 A 
HETATM   25  C17 UNL     1      30.191   8.073  48.800  1.00  0.00     0.001 A 
HETATM   26  C18 UNL     1      30.641   6.817  48.490  1.00  0.00     0.000 A 
HETATM   27  C19 UNL     1      29.752   5.872  48.041  1.00  0.00     0.001 A 
HETATM   28  C20 UNL     1      28.444   6.235  47.923  1.00  0.00     0.009 A 
ENDBRANCH  22  23
ENDBRANCH  15  22
BRANCH   1  29
HETATM   29  C1  UNL     1      25.997   2.099  52.943  1.00  0.00     0.294 C 
BRANCH  29  30
HETATM   30  N1  UNL     1      26.924   2.628  53.931  1.00  0.00     0.081 N 
HETATM   31  H1  UNL     1      26.720   2.303  54.882  1.00  0.00     0.313 HD
HETATM   32  H2  UNL     1      27.095   3.636  53.807  1.00  0.00     0.313 HD
ENDBRANCH  29  30
ENDBRANCH   1  29
TORSDOF 4
ENDMDL
MODEL 3
REMARK VINA RESULT:      -8.1      2.118      4.141
REMARK  4 active torsions:
REMARK  status: ('A' for Active; 'I' for Inactive)
REMARK    1  A    between atoms: N1_1  and  C1_2 
REMARK    2  A    between atoms: C1_2  and  C2_3 
REMARK    3  A    between atoms: N3_17  and  C14_18 
REMARK    4  A    between atoms: C14_18  and  C15_19 
ROOT
HETATM    1  C2  UNL     1      24.665   5.464  48.809  1.00  0.00     0.013 C 
HETATM    2  C3  UNL     1      23.338   5.611  48.698  1.00  0.00    -0.017 C 
HETATM    3  C4  UNL     1      22.575   6.812  48.993  1.00  0.00    -0.001 A 
HETATM    4  C5  UNL     1      22.847   8.157  49.075  1.00  0.00     0.014 A 
HETATM    5  C6  UNL     1      21.898   9.107  49.376  1.00  0.00     0.001 A 
HETATM    6  C7  UNL     1      20.620   8.686  49.605  1.00  0.00     0.002 A 
HETATM    7  C8  UNL     1      20.353   7.340  49.521  1.00  0.00     0.030 A 
HETATM    8  C9  UNL     1      21.311   6.362  49.215  1.00  0.00     0.042 A 
HETATM    9  N2  UNL     1      21.178   4.926  49.082  1.00  0.00    -0.362 N 
HETATM   10  C10 UNL     1      20.104   4.117  49.560  1.00  0.00     0.150 C 
HETATM   11  C11 UNL     1      20.374   3.090  50.563  1.00  0.00     0.187 C 
HETATM   12  O1  UNL     1      20.894   3.408  51.784  1.00  0.00    -0.388 OA
HETATM   13  C12 UNL     1      20.997   2.426  52.690  1.00  0.00     0.198 C 
HETATM   14  C13 UNL     1      21.839   1.236  52.654  1.00  0.00     0.299 C 
HETATM   15  N3  UNL     1      23.234   1.240  52.690  1.00  0.00     0.098 NA
HETATM   16  C21 UNL     1      23.992   1.658  51.539  1.00  0.00     0.300 C 
HETATM   17  C22 UNL     1      23.795   3.086  51.304  1.00  0.00     0.007 C 
HETATM   18  C23 UNL     1      23.324   3.331  50.104  1.00  0.00     0.050 C 
HETATM   19  C24 UNL     1      22.831   3.219  48.759  1.00  0.00     0.176 C 
HETATM   20  O2  UNL     1      23.100   2.012  48.849  1.00  0.00    -0.291 OA
HETATM   21  C25 UNL     1      22.386   4.574  48.296  1.00  0.00     0.192 C 
ENDROOT
BRANCH  15  22
HETATM   22  C14 UNL     1      23.744  -0.143  52.948  1.00  0.00     0.311 C 
BRANCH  22  23
HETATM   23  C15 UNL     1      25.177  -0.173  53.266  1.00  0.00    -0.030 A 
HETATM   24  C16 UNL     1      26.109  -0.985  52.609  1.00  0.00     0.009 A 
HETATM   25  C17 UNL     1      27.454  -1.018  52.899  1.00  0.00     0.001 A 
HETATM   26  C18 UNL     1      27.950  -0.216  53.892  1.00  0.00     0.000 A 
HETATM   27  C19 UNL     1      27.098   0.610  54.584  1.00  0.00     0.001 A 
HETATM   28  C20 UNL     1      25.778   0.590  54.243  1.00  0.00     0.009 A 
ENDBRANCH  22  23
ENDBRANCH  15  22
BRANCH   1  29
HETATM   29  C1  UNL     1      26.021   5.903  49.114  1.00  0.00     0.294 C 
BRANCH  29  30
HETATM   30  N1  UNL     1      26.141   6.807  50.247  1.00  0.00     0.081 N 
HETATM   31  H1  UNL     1      25.763   7.741  50.053  1.00  0.00     0.313 HD
HETATM   32  H2  UNL     1      27.070   6.761  50.689  1.00  0.00     0.313 HD
ENDBRANCH  29  30
ENDBRANCH   1  29
TORSDOF 4
ENDMDL
MODEL 4
REMARK VINA RESULT:      -8.0      2.497      8.430
REMARK  4 active torsions:
REMARK  status: ('A' for Active; 'I' for Inactive)
REMARK    1  A    between atoms: N1_1  and  C1_2 
REMARK    2  A    between atoms: C1_2  and  C2_3 
REMARK    3  A    between atoms: N3_17  and  C14_18 
REMARK    4  A    between atoms: C14_18  and  C15_19 
ROOT
HETATM    1  C2  UNL     1      25.824   3.594  50.434  1.00  0.00     0.013 C 
HETATM    2  C3  UNL     1      25.255   2.887  51.419  1.00  0.00    -0.017 C 
HETATM    3  C4  UNL     1      25.672   1.580  51.895  1.00  0.00    -0.001 A 
HETATM    4  C5  UNL     1      26.832   0.843  51.863  1.00  0.00     0.014 A 
HETATM    5  C6  UNL     1      26.953  -0.410  52.419  1.00  0.00     0.001 A 
HETATM    6  C7  UNL     1      25.859  -0.945  53.035  1.00  0.00     0.002 A 
HETATM    7  C8  UNL     1      24.701  -0.204  53.066  1.00  0.00     0.030 A 
HETATM    8  C9  UNL     1      24.565   1.073  52.503  1.00  0.00     0.042 A 
HETATM    9  N2  UNL     1      23.427   1.968  52.466  1.00  0.00    -0.362 N 
HETATM   10  C10 UNL     1      22.062   1.627  52.704  1.00  0.00     0.150 C 
HETATM   11  C11 UNL     1      21.085   1.799  51.631  1.00  0.00     0.187 C 
HETATM   12  O1  UNL     1      21.211   1.142  50.442  1.00  0.00    -0.388 OA
HETATM   13  C12 UNL     1      20.210   1.258  49.558  1.00  0.00     0.198 C 
HETATM   14  C13 UNL     1      19.759   2.445  48.842  1.00  0.00     0.299 C 
HETATM   15  N3  UNL     1      20.507   3.140  47.890  1.00  0.00     0.098 NA
HETATM   16  C21 UNL     1      21.620   3.960  48.294  1.00  0.00     0.300 C 
HETATM   17  C22 UNL     1      22.694   3.119  48.818  1.00  0.00     0.007 C 
HETATM   18  C23 UNL     1      23.023   3.443  50.046  1.00  0.00     0.050 C 
HETATM   19  C24 UNL     1      23.111   4.061  51.341  1.00  0.00     0.176 C 
HETATM   20  O2  UNL     1      22.294   4.889  50.910  1.00  0.00    -0.291 OA
HETATM   21  C25 UNL     1      24.069   3.275  52.184  1.00  0.00     0.192 C 
ENDROOT
BRANCH  15  22
HETATM   22  C14 UNL     1      19.630   4.099  47.149  1.00  0.00     0.311 C 
BRANCH  22  23
HETATM   23  C15 UNL     1      19.512   3.779  45.721  1.00  0.00    -0.030 A 
HETATM   24  C16 UNL     1      18.414   3.123  45.153  1.00  0.00     0.009 A 
HETATM   25  C17 UNL     1      18.293   2.822  43.815  1.00  0.00     0.001 A 
HETATM   26  C18 UNL     1      19.297   3.172  42.952  1.00  0.00     0.000 A 
HETATM   27  C19 UNL     1      20.409   3.819  43.433  1.00  0.00     0.001 A 
HETATM   28  C20 UNL     1      20.460   4.085  44.769  1.00  0.00     0.009 A 
ENDBRANCH  22  23
ENDBRANCH  15  22
BRANCH   1  29
HETATM   29  C1  UNL     1      26.800   3.840  49.378  1.00  0.00     0.294 C 
BRANCH  29  30
HETATM   30  N1  UNL     1      27.389   5.170  49.375  1.00  0.00     0.081 N 
HETATM   31  H1  UNL     1      28.246   5.227  49.936  1.00  0.00     0.313 HD
HETATM   32  H2  UNL     1      26.687   5.910  49.516  1.00  0.00     0.313 HD
ENDBRANCH  29  30
ENDBRANCH   1  29
TORSDOF 4
ENDMDL
MODEL 5
REMARK VINA RESULT:      -7.9      3.779      8.976
REMARK  4 active torsions:
REMARK  status: ('A' for Active; 'I' for Inactive)
REMARK    1  A    between atoms: N1_1  and  C1_2 
REMARK    2  A    between atoms: C1_2  and  C2_3 
REMARK    3  A    between atoms: N3_17  and  C14_18 
REMARK    4  A    between atoms: C14_18  and  C15_19 
ROOT
HETATM    1  C2  UNL     1      20.938  -0.184  52.555  1.00  0.00     0.013 C 
HETATM    2  C3  UNL     1      21.782   0.441  51.723  1.00  0.00    -0.017 C 
HETATM    3  C4  UNL     1      23.048   1.057  52.080  1.00  0.00    -0.001 A 
HETATM    4  C5  UNL     1      23.953   0.925  53.106  1.00  0.00     0.014 A 
HETATM    5  C6  UNL     1      25.114   1.658  53.193  1.00  0.00     0.001 A 
HETATM    6  C7  UNL     1      25.377   2.564  52.206  1.00  0.00     0.002 A 
HETATM    7  C8  UNL     1      24.468   2.691  51.182  1.00  0.00     0.030 A 
HETATM    8  C9  UNL     1      23.282   1.951  51.082  1.00  0.00     0.042 A 
HETATM    9  N2  UNL     1      22.246   1.968  50.069  1.00  0.00    -0.362 N 
HETATM   10  C10 UNL     1      22.017   2.985  49.095  1.00  0.00     0.150 C 
HETATM   11  C11 UNL     1      20.753   3.718  49.111  1.00  0.00     0.187 C 
HETATM   12  O1  UNL     1      20.365   4.443  50.198  1.00  0.00    -0.388 OA
HETATM   13  C12 UNL     1      19.253   5.184  50.087  1.00  0.00     0.198 C 
HETATM   14  C13 UNL     1      17.876   4.741  49.906  1.00  0.00     0.299 C 
HETATM   15  N3  UNL     1      17.140   4.009  50.839  1.00  0.00     0.098 NA
HETATM   16  C21 UNL     1      17.427   2.616  51.064  1.00  0.00     0.300 C 
HETATM   17  C22 UNL     1      18.740   2.472  51.688  1.00  0.00     0.007 C 
HETATM   18  C23 UNL     1      19.544   1.714  50.981  1.00  0.00     0.050 C 
HETATM   19  C24 UNL     1      20.121   0.862  49.977  1.00  0.00     0.176 C 
HETATM   20  O2  UNL     1      18.991   0.837  49.467  1.00  0.00    -0.291 OA
HETATM   21  C25 UNL     1      21.573   0.664  50.291  1.00  0.00     0.192 C 
ENDROOT
BRANCH  15  22
HETATM   22  C14 UNL     1      15.693   4.000  50.458  1.00  0.00     0.311 C 
BRANCH  22  23
HETATM   23  C15 UNL     1      14.798   4.145  51.612  1.00  0.00    -0.030 A 
HETATM   24  C16 UNL     1      15.237   4.300  52.931  1.00  0.00     0.009 A 
HETATM   25  C17 UNL     1      14.405   4.439  54.019  1.00  0.00     0.001 A 
HETATM   26  C18 UNL     1      13.048   4.429  53.835  1.00  0.00     0.000 A 
HETATM   27  C19 UNL     1      12.537   4.280  52.569  1.00  0.00     0.001 A 
HETATM   28  C20 UNL     1      13.421   4.147  51.539  1.00  0.00     0.009 A 
ENDBRANCH  22  23
ENDBRANCH  15  22
BRANCH   1  29
HETATM   29  C1  UNL     1      20.488  -0.686  53.847  1.00  0.00     0.294 C 
BRANCH  29  30
HETATM   30  N1  UNL     1      20.677   0.223  54.967  1.00  0.00     0.081 N 
HETATM   31  H1  UNL     1      21.451   0.880  54.819  1.00  0.00     0.313 HD
HETATM   32  H2  UNL     1      20.640  -0.261  55.875  1.00  0.00     0.313 HD
ENDBRANCH  29  30
ENDBRANCH   1  29
TORSDOF 4
ENDMDL
MODEL 6
REMARK VINA RESULT:      -7.9      2.331      3.901
REMARK  4 active torsions:
REMARK  status: ('A' for Active; 'I' for Inactive)
REMARK    1  A    between atoms: N1_1  and  C1_2 
REMARK    2  A    between atoms: C1_2  and  C2_3 
REMARK    3  A    between atoms: N3_17  and  C14_18 
REMARK    4  A    between atoms: C14_18  and  C15_19 
ROOT
HETATM    1  C2  UNL     1      20.023   0.606  53.180  1.00  0.00     0.013 C 
HETATM    2  C3  UNL     1      19.411   1.390  52.281  1.00  0.00    -0.017 C 
HETATM    3  C4  UNL     1      18.450   0.965  51.279  1.00  0.00    -0.001 A 
HETATM    4  C5  UNL     1      17.597  -0.100  51.120  1.00  0.00     0.014 A 
HETATM    5  C6  UNL     1      16.762  -0.252  50.037  1.00  0.00     0.001 A 
HETATM    6  C7  UNL     1      16.787   0.711  49.070  1.00  0.00     0.002 A 
HETATM    7  C8  UNL     1      17.641   1.776  49.233  1.00  0.00     0.030 A 
HETATM    8  C9  UNL     1      18.496   1.941  50.332  1.00  0.00     0.042 A 
HETATM    9  N2  UNL     1      19.433   3.002  50.643  1.00  0.00    -0.362 N 
HETATM   10  C10 UNL     1      19.957   3.973  49.739  1.00  0.00     0.150 C 
HETATM   11  C11 UNL     1      21.396   4.009  49.484  1.00  0.00     0.187 C 
HETATM   12  O1  UNL     1      22.053   2.933  48.966  1.00  0.00    -0.388 OA
HETATM   13  C12 UNL     1      23.346   3.088  48.648  1.00  0.00     0.198 C 
HETATM   14  C13 UNL     1      24.478   3.340  49.530  1.00  0.00     0.299 C 
HETATM   15  N3  UNL     1      24.956   2.452  50.495  1.00  0.00     0.098 NA
HETATM   16  C21 UNL     1      24.218   2.230  51.711  1.00  0.00     0.300 C 
HETATM   17  C22 UNL     1      22.961   1.546  51.415  1.00  0.00     0.007 C 
HETATM   18  C23 UNL     1      21.918   2.222  51.831  1.00  0.00     0.050 C 
HETATM   19  C24 UNL     1      21.043   3.208  52.407  1.00  0.00     0.176 C 
HETATM   20  O2  UNL     1      22.074   3.771  52.803  1.00  0.00    -0.291 OA
HETATM   21  C25 UNL     1      19.625   2.827  52.104  1.00  0.00     0.192 C 
ENDROOT
BRANCH  15  22
HETATM   22  C14 UNL     1      26.295   2.901  50.988  1.00  0.00     0.311 C 
BRANCH  22  23
HETATM   23  C15 UNL     1      26.940   1.918  51.867  1.00  0.00    -0.030 A 
HETATM   24  C16 UNL     1      27.850   2.248  52.878  1.00  0.00     0.009 A 
HETATM   25  C17 UNL     1      28.458   1.333  53.708  1.00  0.00     0.001 A 
HETATM   26  C18 UNL     1      28.176   0.001  53.564  1.00  0.00     0.000 A 
HETATM   27  C19 UNL     1      27.292  -0.403  52.594  1.00  0.00     0.001 A 
HETATM   28  C20 UNL     1      26.729   0.557  51.808  1.00  0.00     0.009 A 
ENDBRANCH  22  23
ENDBRANCH  15  22
BRANCH   1  29
HETATM   29  C1  UNL     1      20.325  -0.657  53.841  1.00  0.00     0.294 C 
BRANCH  29  30
HETATM   30  N1  UNL     1      21.264  -0.569  54.949  1.00  0.00     0.081 N 
HETATM   31  H1  UNL     1      21.227   0.336  55.430  1.00  0.00     0.313 HD
HETATM   32  H2  UNL     1      22.195  -0.931  54.703  1.00  0.00     0.313 HD
ENDBRANCH  29  30
ENDBRANCH   1  29
TORSDOF 4
ENDMDL
MODEL 7
REMARK VINA RESULT:      -7.8      3.006      7.326
REMARK  4 active torsions:
REMARK  status: ('A' for Active; 'I' for Inactive)
REMARK    1  A    between atoms: N1_1  and  C1_2 
REMARK    2  A    between atoms: C1_2  and  C2_3 
REMARK    3  A    between atoms: N3_17  and  C14_18 
REMARK    4  A    between atoms: C14_18  and  C15_19 
ROOT
HETATM    1  C2  UNL     1      19.562   0.608  51.387  1.00  0.00     0.013 C 
HETATM    2  C3  UNL     1      20.841   0.314  51.659  1.00  0.00    -0.017 C 
HETATM    3  C4  UNL     1      21.341  -0.335  52.859  1.00  0.00    -0.001 A 
HETATM    4  C5  UNL     1      20.813  -1.148  53.832  1.00  0.00     0.014 A 
HETATM    5  C6  UNL     1      21.543  -1.641  54.890  1.00  0.00     0.001 A 
HETATM    6  C7  UNL     1      22.862  -1.300  54.972  1.00  0.00     0.002 A 
HETATM    7  C8  UNL     1      23.386  -0.487  53.995  1.00  0.00     0.030 A 
HETATM    8  C9  UNL     1      22.653   0.022  52.913  1.00  0.00     0.042 A 
HETATM    9  N2  UNL     1      23.065   0.870  51.814  1.00  0.00    -0.362 N 
HETATM   10  C10 UNL     1      24.244   1.672  51.747  1.00  0.00     0.150 C 
HETATM   11  C11 UNL     1      24.116   3.123  51.631  1.00  0.00     0.187 C 
HETATM   12  O1  UNL     1      23.474   3.858  52.584  1.00  0.00    -0.388 OA
HETATM   13  C12 UNL     1      23.507   5.193  52.466  1.00  0.00     0.198 C 
HETATM   14  C13 UNL     1      22.912   6.032  51.434  1.00  0.00     0.299 C 
HETATM   15  N3  UNL     1      21.543   6.176  51.207  1.00  0.00     0.098 NA
HETATM   16  C21 UNL     1      20.788   5.110  50.599  1.00  0.00     0.300 C 
HETATM   17  C22 UNL     1      20.722   3.966  51.506  1.00  0.00     0.007 C 
HETATM   18  C23 UNL     1      21.207   2.875  50.963  1.00  0.00     0.050 C 
HETATM   19  C24 UNL     1      21.792   1.912  50.070  1.00  0.00     0.176 C 
HETATM   20  O2  UNL     1      21.754   2.807  49.213  1.00  0.00    -0.291 OA
HETATM   21  C25 UNL     1      21.995   0.627  50.815  1.00  0.00     0.192 C 
ENDROOT
BRANCH  15  22
HETATM   22  C14 UNL     1      21.292   7.333  50.293  1.00  0.00     0.311 C 
BRANCH  22  23
HETATM   23  C15 UNL     1      22.373   7.538  49.321  1.00  0.00    -0.030 A 
HETATM   24  C16 UNL     1      22.520   6.795  48.144  1.00  0.00     0.009 A 
HETATM   25  C17 UNL     1      23.529   6.983  47.225  1.00  0.00     0.001 A 
HETATM   26  C18 UNL     1      24.470   7.953  47.446  1.00  0.00     0.000 A 
HETATM   27  C19 UNL     1      24.394   8.724  48.580  1.00  0.00     0.001 A 
HETATM   28  C20 UNL     1      23.369   8.483  49.445  1.00  0.00     0.009 A 
ENDBRANCH  22  23
ENDBRANCH  15  22
BRANCH   1  29
HETATM   29  C1  UNL     1      18.132   0.657  51.662  1.00  0.00     0.294 C 
BRANCH  29  30
HETATM   30  N1  UNL     1      17.570  -0.553  52.243  1.00  0.00     0.081 N 
HETATM   31  H1  UNL     1      18.286  -1.239  52.504  1.00  0.00     0.313 HD
HETATM   32  H2  UNL     1      16.759  -0.901  51.714  1.00  0.00     0.313 HD
ENDBRANCH  29  30
ENDBRANCH   1  29
TORSDOF 4
ENDMDL
MODEL 8
REMARK VINA RESULT:      -7.7      8.810     13.068
REMARK  4 active torsions:
REMARK  status: ('A' for Active; 'I' for Inactive)
REMARK    1  A    between atoms: N1_1  and  C1_2 
REMARK    2  A    between atoms: C1_2  and  C2_3 
REMARK    3  A    between atoms: N3_17  and  C14_18 
REMARK    4  A    between atoms: C14_18  and  C15_19 
ROOT
HETATM    1  C2  UNL     1      34.196   7.455  48.601  1.00  0.00     0.013 C 
HETATM    2  C3  UNL     1      33.260   6.496  48.581  1.00  0.00    -0.017 C 
HETATM    3  C4  UNL     1      33.321   5.247  47.842  1.00  0.00    -0.001 A 
HETATM    4  C5  UNL     1      34.317   4.466  47.307  1.00  0.00     0.014 A 
HETATM    5  C6  UNL     1      34.082   3.285  46.640  1.00  0.00     0.001 A 
HETATM    6  C7  UNL     1      32.788   2.872  46.505  1.00  0.00     0.002 A 
HETATM    7  C8  UNL     1      31.795   3.657  47.042  1.00  0.00     0.030 A 
HETATM    8  C9  UNL     1      32.022   4.861  47.724  1.00  0.00     0.042 A 
HETATM    9  N2  UNL     1      31.089   5.779  48.346  1.00  0.00    -0.362 N 
HETATM   10  C10 UNL     1      29.681   5.850  48.126  1.00  0.00     0.150 C 
HETATM   11  C11 UNL     1      29.107   7.071  47.564  1.00  0.00     0.187 C 
HETATM   12  O1  UNL     1      29.486   7.537  46.340  1.00  0.00    -0.388 OA
HETATM   13  C12 UNL     1      28.824   8.592  45.844  1.00  0.00     0.198 C 
HETATM   14  C13 UNL     1      28.787   9.961  46.341  1.00  0.00     0.299 C 
HETATM   15  N3  UNL     1      29.878  10.830  46.382  1.00  0.00     0.098 NA
HETATM   16  C21 UNL     1      30.926  10.639  47.352  1.00  0.00     0.300 C 
HETATM   17  C22 UNL     1      31.660   9.410  47.058  1.00  0.00     0.007 C 
HETATM   18  C23 UNL     1      31.648   8.573  48.068  1.00  0.00     0.050 C 
HETATM   19  C24 UNL     1      31.433   7.935  49.338  1.00  0.00     0.176 C 
HETATM   20  O2  UNL     1      30.913   9.003  49.693  1.00  0.00    -0.291 OA
HETATM   21  C25 UNL     1      31.970   6.537  49.270  1.00  0.00     0.192 C 
ENDROOT
BRANCH  15  22
HETATM   22  C14 UNL     1      29.414  12.226  46.655  1.00  0.00     0.311 C 
BRANCH  22  23
HETATM   23  C15 UNL     1      29.995  13.212  45.736  1.00  0.00    -0.030 A 
HETATM   24  C16 UNL     1      29.620  14.559  45.693  1.00  0.00     0.009 A 
HETATM   25  C17 UNL     1      30.161  15.491  44.836  1.00  0.00     0.001 A 
HETATM   26  C18 UNL     1      31.135  15.109  43.952  1.00  0.00     0.000 A 
HETATM   27  C19 UNL     1      31.558  13.803  43.934  1.00  0.00     0.001 A 
HETATM   28  C20 UNL     1      30.977  12.935  44.810  1.00  0.00     0.009 A 
ENDBRANCH  22  23
ENDBRANCH  15  22
BRANCH   1  29
HETATM   29  C1  UNL     1      35.467   8.067  48.235  1.00  0.00     0.294 C 
BRANCH  29  30
HETATM   30  N1  UNL     1      36.647   7.435  48.804  1.00  0.00     0.081 N 
HETATM   31  H1  UNL     1      37.318   7.130  48.091  1.00  0.00     0.313 HD
HETATM   32  H2  UNL     1      36.411   6.760  49.544  1.00  0.00     0.313 HD
ENDBRANCH  29  30
ENDBRANCH   1  29
TORSDOF 4
ENDMDL
MODEL 9
REMARK VINA RESULT:      -7.7      3.180      8.075
REMARK  4 active torsions:
REMARK  status: ('A' for Active; 'I' for Inactive)
REMARK    1  A    between atoms: N1_1  and  C1_2 
REMARK    2  A    between atoms: C1_2  and  C2_3 
REMARK    3  A    between atoms: N3_17  and  C14_18 
REMARK    4  A    between atoms: C14_18  and  C15_19 
ROOT
HETATM    1  C2  UNL     1      19.645   1.265  49.983  1.00  0.00     0.013 C 
HETATM    2  C3  UNL     1      20.738   0.866  50.647  1.00  0.00    -0.017 C 
HETATM    3  C4  UNL     1      20.776   0.281  51.976  1.00  0.00    -0.001 A 
HETATM    4  C5  UNL     1      19.886  -0.383  52.786  1.00  0.00     0.014 A 
HETATM    5  C6  UNL     1      20.202  -0.851  54.041  1.00  0.00     0.001 A 
HETATM    6  C7  UNL     1      21.469  -0.641  54.502  1.00  0.00     0.002 A 
HETATM    7  C8  UNL     1      22.357   0.023  53.688  1.00  0.00     0.030 A 
HETATM    8  C9  UNL     1      22.047   0.504  52.407  1.00  0.00     0.042 A 
HETATM    9  N2  UNL     1      22.869   1.203  51.441  1.00  0.00    -0.362 N 
HETATM   10  C10 UNL     1      24.105   1.870  51.692  1.00  0.00     0.150 C 
HETATM   11  C11 UNL     1      24.200   3.310  51.464  1.00  0.00     0.187 C 
HETATM   12  O1  UNL     1      23.402   4.190  52.134  1.00  0.00    -0.388 OA
HETATM   13  C12 UNL     1      23.635   5.498  51.958  1.00  0.00     0.198 C 
HETATM   14  C13 UNL     1      23.482   6.298  50.749  1.00  0.00     0.299 C 
HETATM   15  N3  UNL     1      22.270   6.560  50.109  1.00  0.00     0.098 NA
HETATM   16  C21 UNL     1      21.603   5.528  49.360  1.00  0.00     0.300 C 
HETATM   17  C22 UNL     1      21.128   4.483  50.265  1.00  0.00     0.007 C 
HETATM   18  C23 UNL     1      21.611   3.303  49.956  1.00  0.00     0.050 C 
HETATM   19  C24 UNL     1      22.309   2.209  49.338  1.00  0.00     0.176 C 
HETATM   20  O2  UNL     1      22.639   3.022  48.462  1.00  0.00    -0.291 OA
HETATM   21  C25 UNL     1      22.120   0.982  50.179  1.00  0.00     0.192 C 
ENDROOT
BRANCH  15  22
HETATM   22  C14 UNL     1      22.448   7.650  49.100  1.00  0.00     0.311 C 
BRANCH  22  23
HETATM   23  C15 UNL     1      21.435   8.706  49.213  1.00  0.00    -0.030 A 
HETATM   24  C16 UNL     1      20.263   8.589  49.968  1.00  0.00     0.009 A 
HETATM   25  C17 UNL     1      19.308   9.575  50.083  1.00  0.00     0.001 A 
HETATM   26  C18 UNL     1      19.486  10.764  49.426  1.00  0.00     0.000 A 
HETATM   27  C19 UNL     1      20.612  10.956  48.664  1.00  0.00     0.001 A 
HETATM   28  C20 UNL     1      21.514   9.936  48.596  1.00  0.00     0.009 A 
ENDBRANCH  22  23
ENDBRANCH  15  22
BRANCH   1  29
HETATM   29  C1  UNL     1      18.215   1.485  49.807  1.00  0.00     0.294 C 
BRANCH  29  30
HETATM   30  N1  UNL     1      17.416   0.280  49.647  1.00  0.00     0.081 N 
HETATM   31  H1  UNL     1      16.411   0.475  49.578  1.00  0.00     0.313 HD
HETATM   32  H2  UNL     1      17.705  -0.469  50.291  1.00  0.00     0.313 HD
ENDBRANCH  29  30
ENDBRANCH   1  29
TORSDOF 4
ENDMDL
