MODEL 1
REMARK VINA RESULT:      -7.5      0.000      0.000
REMARK  6 active torsions:
REMARK  status: ('A' for Active; 'I' for Inactive)
REMARK    1  A    between atoms: C2_3  and  C3_4 
REMARK    2  A    between atoms: C3_4  and  N2_5 
REMARK    3  A    between atoms: C3_4  and  C4_6 
REMARK    4  A    between atoms: C7_9  and  O1_10 
REMARK    5  A    between atoms: O1_10  and  C8_11 
REMARK    6  A    between atoms: C8_11  and  C9_12 
ROOT
HETATM    1  N1  UNL     1      29.297   2.385  54.467  1.00  0.00    -0.197 NA
HETATM    2  C1  UNL     1      29.024   1.253  54.577  1.00  0.00     0.061 C 
HETATM    3  C2  UNL     1      28.659  -0.180  54.700  1.00  0.00     0.164 C 
ENDROOT
BRANCH   3   4
HETATM    4  C3  UNL     1      28.114  -0.637  53.371  1.00  0.00     0.263 C 
BRANCH   4   5
HETATM    5  N2  UNL     1      28.277  -2.072  53.233  1.00  0.00     0.088 N 
HETATM    6  H4  UNL     1      27.462  -2.508  52.739  1.00  0.00     0.313 HD
HETATM    7  H5  UNL     1      29.159  -2.284  52.692  1.00  0.00     0.313 HD
ENDBRANCH   4   5
BRANCH   4   8
HETATM    8  C4  UNL     1      26.713  -0.224  53.154  1.00  0.00    -0.023 A 
HETATM    9  C5  UNL     1      26.535   0.714  52.159  1.00  0.00     0.012 A 
HETATM   10  C6  UNL     1      25.274   1.159  51.884  1.00  0.00     0.039 A 
HETATM   11  C7  UNL     1      24.144   0.727  52.543  1.00  0.00     0.090 A 
HETATM   12  C15 UNL     1      24.361  -0.229  53.553  1.00  0.00     0.068 A 
HETATM   13 CL1  UNL     1      23.144  -0.995  54.593  1.00  0.00    -0.081 Cl
HETATM   14  C16 UNL     1      25.637  -0.708  53.863  1.00  0.00     0.036 A 
BRANCH  11  15
HETATM   15  O1  UNL     1      22.821   0.972  52.497  1.00  0.00    -0.345 OA
BRANCH  15  16
HETATM   16  C8  UNL     1      21.875   0.968  51.506  1.00  0.00     0.214 C 
BRANCH  16  17
HETATM   17  C9  UNL     1      20.587   0.378  51.929  1.00  0.00    -0.034 A 
HETATM   18  C10 UNL     1      19.510   0.552  51.052  1.00  0.00     0.009 A 
HETATM   19  C11 UNL     1      18.233   0.078  51.242  1.00  0.00     0.001 A 
HETATM   20  C12 UNL     1      17.973  -0.635  52.392  1.00  0.00     0.000 A 
HETATM   21  C13 UNL     1      19.000  -0.832  53.283  1.00  0.00     0.001 A 
HETATM   22  C14 UNL     1      20.267  -0.341  53.059  1.00  0.00     0.009 A 
ENDBRANCH  16  17
ENDBRANCH  15  16
ENDBRANCH  11  15
ENDBRANCH   4   8
ENDBRANCH   3   4
TORSDOF 6
ENDMDL
MODEL 2
REMARK VINA RESULT:      -7.3      1.821      2.938
REMARK  6 active torsions:
REMARK  status: ('A' for Active; 'I' for Inactive)
REMARK    1  A    between atoms: C2_3  and  C3_4 
REMARK    2  A    between atoms: C3_4  and  N2_5 
REMARK    3  A    between atoms: C3_4  and  C4_6 
REMARK    4  A    between atoms: C7_9  and  O1_10 
REMARK    5  A    between atoms: O1_10  and  C8_11 
REMARK    6  A    between atoms: C8_11  and  C9_12 
ROOT
HETATM    1  N1  UNL     1      29.283   2.305  54.443  1.00  0.00    -0.197 NA
HETATM    2  C1  UNL     1      29.113   1.150  54.516  1.00  0.00     0.061 C 
HETATM    3  C2  UNL     1      28.879  -0.313  54.593  1.00  0.00     0.164 C 
ENDROOT
BRANCH   3   4
HETATM    4  C3  UNL     1      28.282  -0.759  53.283  1.00  0.00     0.263 C 
BRANCH   4   5
HETATM    5  N2  UNL     1      28.377  -2.202  53.158  1.00  0.00     0.088 N 
HETATM    6  H4  UNL     1      28.790  -2.483  52.237  1.00  0.00     0.313 HD
HETATM    7  H5  UNL     1      28.976  -2.591  53.936  1.00  0.00     0.313 HD
ENDBRANCH   4   5
BRANCH   4   8
HETATM    8  C4  UNL     1      26.896  -0.286  53.093  1.00  0.00    -0.023 A 
HETATM    9  C5  UNL     1      26.743   0.672  52.113  1.00  0.00     0.012 A 
HETATM   10  C6  UNL     1      25.497   1.172  51.863  1.00  0.00     0.039 A 
HETATM   11  C7  UNL     1      24.360   0.779  52.535  1.00  0.00     0.090 A 
HETATM   12  C15 UNL     1      24.552  -0.199  53.529  1.00  0.00     0.068 A 
HETATM   13 CL1  UNL     1      23.321  -0.928  54.578  1.00  0.00    -0.081 Cl
HETATM   14  C16 UNL     1      25.812  -0.734  53.812  1.00  0.00     0.036 A 
BRANCH  11  15
HETATM   15  O1  UNL     1      23.048   1.079  52.513  1.00  0.00    -0.345 OA
BRANCH  15  16
HETATM   16  C8  UNL     1      22.034   0.898  51.610  1.00  0.00     0.214 C 
BRANCH  16  17
HETATM   17  C9  UNL     1      22.225   1.656  50.355  1.00  0.00    -0.034 A 
HETATM   18  C10 UNL     1      21.697   1.076  49.196  1.00  0.00     0.009 A 
HETATM   19  C11 UNL     1      21.751   1.613  47.931  1.00  0.00     0.001 A 
HETATM   20  C12 UNL     1      22.377   2.830  47.773  1.00  0.00     0.000 A 
HETATM   21  C13 UNL     1      22.911   3.438  48.883  1.00  0.00     0.001 A 
HETATM   22  C14 UNL     1      22.837   2.869  50.134  1.00  0.00     0.009 A 
ENDBRANCH  16  17
ENDBRANCH  15  16
ENDBRANCH  11  15
ENDBRANCH   4   8
ENDBRANCH   3   4
TORSDOF 6
ENDMDL
MODEL 3
REMARK VINA RESULT:      -7.2      3.869      8.093
REMARK  6 active torsions:
REMARK  status: ('A' for Active; 'I' for Inactive)
REMARK    1  A    between atoms: C2_3  and  C3_4 
REMARK    2  A    between atoms: C3_4  and  N2_5 
REMARK    3  A    between atoms: C3_4  and  C4_6 
REMARK    4  A    between atoms: C7_9  and  O1_10 
REMARK    5  A    between atoms: O1_10  and  C8_11 
REMARK    6  A    between atoms: C8_11  and  C9_12 
ROOT
HETATM    1  N1  UNL     1      15.249  -1.843  52.308  1.00  0.00    -0.197 NA
HETATM    2  C1  UNL     1      16.302  -1.350  52.181  1.00  0.00     0.061 C 
HETATM    3  C2  UNL     1      17.637  -0.718  52.043  1.00  0.00     0.164 C 
ENDROOT
BRANCH   3   4
HETATM    4  C3  UNL     1      18.370  -0.888  53.349  1.00  0.00     0.263 C 
BRANCH   4   5
HETATM    5  N2  UNL     1      18.094  -2.199  53.908  1.00  0.00     0.088 N 
HETATM    6  H4  UNL     1      18.737  -2.928  53.519  1.00  0.00     0.313 HD
HETATM    7  H5  UNL     1      18.200  -2.171  54.958  1.00  0.00     0.313 HD
ENDBRANCH   4   5
BRANCH   4   8
HETATM    8  C4  UNL     1      19.821  -0.642  53.229  1.00  0.00    -0.023 A 
HETATM    9  C5  UNL     1      20.198   0.040  52.091  1.00  0.00     0.012 A 
HETATM   10  C6  UNL     1      21.521   0.315  51.890  1.00  0.00     0.039 A 
HETATM   11  C7  UNL     1      22.524  -0.047  52.762  1.00  0.00     0.090 A 
HETATM   12  C15 UNL     1      22.105  -0.741  53.913  1.00  0.00     0.068 A 
HETATM   13 CL1  UNL     1      23.119  -1.352  55.234  1.00  0.00    -0.081 Cl
HETATM   14  C16 UNL     1      20.760  -1.041  54.152  1.00  0.00     0.036 A 
BRANCH  11  15
HETATM   15  O1  UNL     1      23.862   0.079  52.833  1.00  0.00    -0.345 OA
BRANCH  15  16
HETATM   16  C8  UNL     1      24.718   1.103  53.144  1.00  0.00     0.214 C 
BRANCH  16  17
HETATM   17  C9  UNL     1      26.118   0.661  53.325  1.00  0.00    -0.034 A 
HETATM   18  C10 UNL     1      26.416  -0.637  52.894  1.00  0.00     0.009 A 
HETATM   19  C11 UNL     1      27.649  -1.241  52.956  1.00  0.00     0.001 A 
HETATM   20  C12 UNL     1      28.696  -0.519  53.486  1.00  0.00     0.000 A 
HETATM   21  C13 UNL     1      28.451   0.760  53.923  1.00  0.00     0.001 A 
HETATM   22  C14 UNL     1      27.201   1.332  53.845  1.00  0.00     0.009 A 
ENDBRANCH  16  17
ENDBRANCH  15  16
ENDBRANCH  11  15
ENDBRANCH   4   8
ENDBRANCH   3   4
TORSDOF 6
ENDMDL
MODEL 4
REMARK VINA RESULT:      -7.0      4.461      7.261
REMARK  6 active torsions:
REMARK  status: ('A' for Active; 'I' for Inactive)
REMARK    1  A    between atoms: C2_3  and  C3_4 
REMARK    2  A    between atoms: C3_4  and  N2_5 
REMARK    3  A    between atoms: C3_4  and  C4_6 
REMARK    4  A    between atoms: C7_9  and  O1_10 
REMARK    5  A    between atoms: O1_10  and  C8_11 
REMARK    6  A    between atoms: C8_11  and  C9_12 
ROOT
HETATM    1  N1  UNL     1      24.763   8.435  50.230  1.00  0.00    -0.197 NA
HETATM    2  C1  UNL     1      24.652   7.448  49.612  1.00  0.00     0.061 C 
HETATM    3  C2  UNL     1      24.535   6.195  48.825  1.00  0.00     0.164 C 
ENDROOT
BRANCH   3   4
HETATM    4  C3  UNL     1      25.780   5.379  49.062  1.00  0.00     0.263 C 
BRANCH   4   5
HETATM    5  N2  UNL     1      26.877   6.245  49.451  1.00  0.00     0.088 N 
HETATM    6  H4  UNL     1      27.777   5.716  49.532  1.00  0.00     0.313 HD
HETATM    7  H5  UNL     1      26.995   7.017  48.739  1.00  0.00     0.313 HD
ENDBRANCH   4   5
BRANCH   4   8
HETATM    8  C4  UNL     1      25.574   4.289  50.037  1.00  0.00    -0.023 A 
HETATM    9  C5  UNL     1      26.631   3.410  50.152  1.00  0.00     0.012 A 
HETATM   10  C6  UNL     1      26.534   2.368  51.029  1.00  0.00     0.039 A 
HETATM   11  C7  UNL     1      25.435   2.129  51.823  1.00  0.00     0.090 A 
HETATM   12  C15 UNL     1      24.375   3.044  51.682  1.00  0.00     0.068 A 
HETATM   13 CL1  UNL     1      22.823   3.039  52.540  1.00  0.00    -0.081 Cl
HETATM   14  C16 UNL     1      24.437   4.122  50.794  1.00  0.00     0.036 A 
BRANCH  11  15
HETATM   15  O1  UNL     1      25.063   1.222  52.746  1.00  0.00    -0.345 OA
BRANCH  15  16
HETATM   16  C8  UNL     1      25.329  -0.107  52.953  1.00  0.00     0.214 C 
BRANCH  16  17
HETATM   17  C9  UNL     1      26.747  -0.376  53.274  1.00  0.00    -0.034 A 
HETATM   18  C10 UNL     1      27.329   0.450  54.242  1.00  0.00     0.009 A 
HETATM   19  C11 UNL     1      28.623   0.368  54.698  1.00  0.00     0.001 A 
HETATM   20  C12 UNL     1      29.434  -0.611  54.165  1.00  0.00     0.000 A 
HETATM   21  C13 UNL     1      28.907  -1.447  53.211  1.00  0.00     0.001 A 
HETATM   22  C14 UNL     1      27.604  -1.333  52.779  1.00  0.00     0.009 A 
ENDBRANCH  16  17
ENDBRANCH  15  16
ENDBRANCH  11  15
ENDBRANCH   4   8
ENDBRANCH   3   4
TORSDOF 6
ENDMDL
MODEL 5
REMARK VINA RESULT:      -6.9      4.276      5.745
REMARK  6 active torsions:
REMARK  status: ('A' for Active; 'I' for Inactive)
REMARK    1  A    between atoms: C2_3  and  C3_4 
REMARK    2  A    between atoms: C3_4  and  N2_5 
REMARK    3  A    between atoms: C3_4  and  C4_6 
REMARK    4  A    between atoms: C7_9  and  O1_10 
REMARK    5  A    between atoms: O1_10  and  C8_11 
REMARK    6  A    between atoms: C8_11  and  C9_12 
ROOT
HETATM    1  N1  UNL     1      27.124   8.805  50.129  1.00  0.00    -0.197 NA
HETATM    2  C1  UNL     1      26.453   8.054  49.534  1.00  0.00     0.061 C 
HETATM    3  C2  UNL     1      25.621   7.091  48.771  1.00  0.00     0.164 C 
ENDROOT
BRANCH   3   4
HETATM    4  C3  UNL     1      26.383   5.793  48.675  1.00  0.00     0.263 C 
BRANCH   4   5
HETATM    5  N2  UNL     1      27.810   6.047  48.751  1.00  0.00     0.088 N 
HETATM    6  H4  UNL     1      28.309   5.707  47.895  1.00  0.00     0.313 HD
HETATM    7  H5  UNL     1      27.985   7.082  48.863  1.00  0.00     0.313 HD
ENDBRANCH   4   5
BRANCH   4   8
HETATM    8  C4  UNL     1      25.951   4.799  49.678  1.00  0.00    -0.023 A 
HETATM    9  C5  UNL     1      26.734   3.665  49.740  1.00  0.00     0.012 A 
HETATM   10  C6  UNL     1      26.414   2.687  50.638  1.00  0.00     0.039 A 
HETATM   11  C7  UNL     1      25.344   2.756  51.503  1.00  0.00     0.090 A 
HETATM   12  C15 UNL     1      24.567   3.925  51.413  1.00  0.00     0.068 A 
HETATM   13 CL1  UNL     1      23.130   4.342  52.366  1.00  0.00    -0.081 Cl
HETATM   14  C16 UNL     1      24.863   4.947  50.506  1.00  0.00     0.036 A 
BRANCH  11  15
HETATM   15  O1  UNL     1      24.799   1.982  52.461  1.00  0.00    -0.345 OA
BRANCH  15  16
HETATM   16  C8  UNL     1      24.613   0.634  52.620  1.00  0.00     0.214 C 
BRANCH  16  17
HETATM   17  C9  UNL     1      23.310   0.291  53.229  1.00  0.00    -0.034 A 
HETATM   18  C10 UNL     1      23.314  -0.769  54.142  1.00  0.00     0.009 A 
HETATM   19  C11 UNL     1      22.222  -1.243  54.829  1.00  0.00     0.001 A 
HETATM   20  C12 UNL     1      21.007  -0.632  54.612  1.00  0.00     0.000 A 
HETATM   21  C13 UNL     1      20.953   0.415  53.723  1.00  0.00     0.001 A 
HETATM   22  C14 UNL     1      22.069   0.862  53.053  1.00  0.00     0.009 A 
ENDBRANCH  16  17
ENDBRANCH  15  16
ENDBRANCH  11  15
ENDBRANCH   4   8
ENDBRANCH   3   4
TORSDOF 6
ENDMDL
MODEL 6
REMARK VINA RESULT:      -6.9      3.098      4.093
REMARK  6 active torsions:
REMARK  status: ('A' for Active; 'I' for Inactive)
REMARK    1  A    between atoms: C2_3  and  C3_4 
REMARK    2  A    between atoms: C3_4  and  N2_5 
REMARK    3  A    between atoms: C3_4  and  C4_6 
REMARK    4  A    between atoms: C7_9  and  O1_10 
REMARK    5  A    between atoms: O1_10  and  C8_11 
REMARK    6  A    between atoms: C8_11  and  C9_12 
ROOT
HETATM    1  N1  UNL     1      29.522  -2.402  53.457  1.00  0.00    -0.197 NA
HETATM    2  C1  UNL     1      29.013  -1.349  53.441  1.00  0.00     0.061 C 
HETATM    3  C2  UNL     1      28.351  -0.022  53.404  1.00  0.00     0.164 C 
ENDROOT
BRANCH   3   4
HETATM    4  C3  UNL     1      26.889  -0.239  53.106  1.00  0.00     0.263 C 
BRANCH   4   5
HETATM    5  N2  UNL     1      26.211  -0.745  54.285  1.00  0.00     0.088 N 
HETATM    6  H4  UNL     1      25.294  -0.262  54.440  1.00  0.00     0.313 HD
HETATM    7  H5  UNL     1      26.039  -1.782  54.184  1.00  0.00     0.313 HD
ENDBRANCH   4   5
BRANCH   4   8
HETATM    8  C4  UNL     1      26.227   0.968  52.573  1.00  0.00    -0.023 A 
HETATM    9  C5  UNL     1      25.186   1.444  53.343  1.00  0.00     0.012 A 
HETATM   10  C6  UNL     1      24.512   2.558  52.931  1.00  0.00     0.039 A 
HETATM   11  C7  UNL     1      24.804   3.253  51.779  1.00  0.00     0.090 A 
HETATM   12  C15 UNL     1      25.870   2.741  51.017  1.00  0.00     0.068 A 
HETATM   13 CL1  UNL     1      26.510   3.380  49.490  1.00  0.00    -0.081 Cl
HETATM   14  C16 UNL     1      26.584   1.604  51.406  1.00  0.00     0.036 A 
BRANCH  11  15
HETATM   15  O1  UNL     1      24.336   4.340  51.138  1.00  0.00    -0.345 OA
BRANCH  15  16
HETATM   16  C8  UNL     1      23.204   4.622  50.418  1.00  0.00     0.214 C 
BRANCH  16  17
HETATM   17  C9  UNL     1      22.668   3.452  49.690  1.00  0.00    -0.034 A 
HETATM   18  C10 UNL     1      21.733   2.670  50.379  1.00  0.00     0.009 A 
HETATM   19  C11 UNL     1      21.103   1.551  49.889  1.00  0.00     0.001 A 
HETATM   20  C12 UNL     1      21.406   1.149  48.606  1.00  0.00     0.000 A 
HETATM   21  C13 UNL     1      22.318   1.886  47.890  1.00  0.00     0.001 A 
HETATM   22  C14 UNL     1      22.929   3.002  48.416  1.00  0.00     0.009 A 
ENDBRANCH  16  17
ENDBRANCH  15  16
ENDBRANCH  11  15
ENDBRANCH   4   8
ENDBRANCH   3   4
TORSDOF 6
ENDMDL
MODEL 7
REMARK VINA RESULT:      -6.8      4.117      7.281
REMARK  6 active torsions:
REMARK  status: ('A' for Active; 'I' for Inactive)
REMARK    1  A    between atoms: C2_3  and  C3_4 
REMARK    2  A    between atoms: C3_4  and  N2_5 
REMARK    3  A    between atoms: C3_4  and  C4_6 
REMARK    4  A    between atoms: C7_9  and  O1_10 
REMARK    5  A    between atoms: O1_10  and  C8_11 
REMARK    6  A    between atoms: C8_11  and  C9_12 
ROOT
HETATM    1  N1  UNL     1      21.528   3.855  45.676  1.00  0.00    -0.197 NA
HETATM    2  C1  UNL     1      21.942   3.261  46.595  1.00  0.00     0.061 C 
HETATM    3  C2  UNL     1      22.454   2.522  47.775  1.00  0.00     0.164 C 
ENDROOT
BRANCH   3   4
HETATM    4  C3  UNL     1      21.388   2.552  48.841  1.00  0.00     0.263 C 
BRANCH   4   5
HETATM    5  N2  UNL     1      20.182   1.906  48.357  1.00  0.00     0.088 N 
HETATM    6  H4  UNL     1      20.398   1.012  47.855  1.00  0.00     0.313 HD
HETATM    7  H5  UNL     1      19.537   1.697  49.167  1.00  0.00     0.313 HD
ENDBRANCH   4   5
BRANCH   4   8
HETATM    8  C4  UNL     1      21.841   1.972  50.121  1.00  0.00    -0.023 A 
HETATM    9  C5  UNL     1      21.272   0.756  50.438  1.00  0.00     0.012 A 
HETATM   10  C6  UNL     1      21.629   0.140  51.603  1.00  0.00     0.039 A 
HETATM   11  C7  UNL     1      22.535   0.657  52.502  1.00  0.00     0.090 A 
HETATM   12  C15 UNL     1      23.097   1.899  52.149  1.00  0.00     0.068 A 
HETATM   13 CL1  UNL     1      24.286   2.845  53.064  1.00  0.00    -0.081 Cl
HETATM   14  C16 UNL     1      22.756   2.559  50.965  1.00  0.00     0.036 A 
BRANCH  11  15
HETATM   15  O1  UNL     1      23.066   0.297  53.685  1.00  0.00    -0.345 OA
BRANCH  15  16
HETATM   16  C8  UNL     1      23.839  -0.750  54.116  1.00  0.00     0.214 C 
BRANCH  16  17
HETATM   17  C9  UNL     1      25.290  -0.478  54.036  1.00  0.00    -0.034 A 
HETATM   18  C10 UNL     1      25.906  -0.763  52.812  1.00  0.00     0.009 A 
HETATM   19  C11 UNL     1      27.235  -0.576  52.518  1.00  0.00     0.001 A 
HETATM   20  C12 UNL     1      28.049  -0.061  53.504  1.00  0.00     0.000 A 
HETATM   21  C13 UNL     1      27.488   0.234  54.723  1.00  0.00     0.001 A 
HETATM   22  C14 UNL     1      26.151   0.032  54.981  1.00  0.00     0.009 A 
ENDBRANCH  16  17
ENDBRANCH  15  16
ENDBRANCH  11  15
ENDBRANCH   4   8
ENDBRANCH   3   4
TORSDOF 6
ENDMDL
MODEL 8
REMARK VINA RESULT:      -6.6      5.340      6.782
REMARK  6 active torsions:
REMARK  status: ('A' for Active; 'I' for Inactive)
REMARK    1  A    between atoms: C2_3  and  C3_4 
REMARK    2  A    between atoms: C3_4  and  N2_5 
REMARK    3  A    between atoms: C3_4  and  C4_6 
REMARK    4  A    between atoms: C7_9  and  O1_10 
REMARK    5  A    between atoms: O1_10  and  C8_11 
REMARK    6  A    between atoms: C8_11  and  C9_12 
ROOT
HETATM    1  N1  UNL     1      29.052   9.517  47.058  1.00  0.00    -0.197 NA
HETATM    2  C1  UNL     1      28.193   8.767  47.320  1.00  0.00     0.061 C 
HETATM    3  C2  UNL     1      27.119   7.797  47.646  1.00  0.00     0.164 C 
ENDROOT
BRANCH   3   4
HETATM    4  C3  UNL     1      27.769   6.537  48.160  1.00  0.00     0.263 C 
BRANCH   4   5
HETATM    5  N2  UNL     1      28.963   6.867  48.916  1.00  0.00     0.088 N 
HETATM    6  H4  UNL     1      29.834   6.630  48.385  1.00  0.00     0.313 HD
HETATM    7  H5  UNL     1      28.970   7.898  49.146  1.00  0.00     0.313 HD
ENDBRANCH   4   5
BRANCH   4   8
HETATM    8  C4  UNL     1      26.844   5.693  48.942  1.00  0.00    -0.023 A 
HETATM    9  C5  UNL     1      27.185   4.357  48.994  1.00  0.00     0.012 A 
HETATM   10  C6  UNL     1      26.390   3.496  49.694  1.00  0.00     0.039 A 
HETATM   11  C7  UNL     1      25.249   3.875  50.366  1.00  0.00     0.090 A 
HETATM   12  C15 UNL     1      24.930   5.244  50.294  1.00  0.00     0.068 A 
HETATM   13 CL1  UNL     1      23.545   6.070  51.034  1.00  0.00    -0.081 Cl
HETATM   14  C16 UNL     1      25.719   6.155  49.586  1.00  0.00     0.036 A 
BRANCH  11  15
HETATM   15  O1  UNL     1      24.301   3.279  51.113  1.00  0.00    -0.345 OA
BRANCH  15  16
HETATM   16  C8  UNL     1      24.134   3.047  52.453  1.00  0.00     0.214 C 
BRANCH  16  17
HETATM   17  C9  UNL     1      23.527   1.732  52.749  1.00  0.00    -0.034 A 
HETATM   18  C10 UNL     1      24.412   0.714  53.123  1.00  0.00     0.009 A 
HETATM   19  C11 UNL     1      24.063  -0.575  53.451  1.00  0.00     0.001 A 
HETATM   20  C12 UNL     1      22.727  -0.911  53.415  1.00  0.00     0.000 A 
HETATM   21  C13 UNL     1      21.821   0.056  53.053  1.00  0.00     0.001 A 
HETATM   22  C14 UNL     1      22.209   1.337  52.730  1.00  0.00     0.009 A 
ENDBRANCH  16  17
ENDBRANCH  15  16
ENDBRANCH  11  15
ENDBRANCH   4   8
ENDBRANCH   3   4
TORSDOF 6
ENDMDL
MODEL 9
REMARK VINA RESULT:      -6.5      4.062      7.605
REMARK  6 active torsions:
REMARK  status: ('A' for Active; 'I' for Inactive)
REMARK    1  A    between atoms: C2_3  and  C3_4 
REMARK    2  A    between atoms: C3_4  and  N2_5 
REMARK    3  A    between atoms: C3_4  and  C4_6 
REMARK    4  A    between atoms: C7_9  and  O1_10 
REMARK    5  A    between atoms: O1_10  and  C8_11 
REMARK    6  A    between atoms: C8_11  and  C9_12 
ROOT
HETATM    1  N1  UNL     1      15.564   0.910  51.893  1.00  0.00    -0.197 NA
HETATM    2  C1  UNL     1      16.502   0.213  51.850  1.00  0.00     0.061 C 
HETATM    3  C2  UNL     1      17.704  -0.657  51.812  1.00  0.00     0.164 C 
ENDROOT
BRANCH   3   4
HETATM    4  C3  UNL     1      18.331  -0.644  53.183  1.00  0.00     0.263 C 
BRANCH   4   5
HETATM    5  N2  UNL     1      17.934  -1.827  53.923  1.00  0.00     0.088 N 
HETATM    6  H4  UNL     1      18.219  -1.767  54.929  1.00  0.00     0.313 HD
HETATM    7  H5  UNL     1      16.886  -1.950  53.870  1.00  0.00     0.313 HD
ENDBRANCH   4   5
BRANCH   4   8
HETATM    8  C4  UNL     1      19.799  -0.496  53.139  1.00  0.00    -0.023 A 
HETATM    9  C5  UNL     1      20.283   0.137  52.013  1.00  0.00     0.012 A 
HETATM   10  C6  UNL     1      21.629   0.322  51.882  1.00  0.00     0.039 A 
HETATM   11  C7  UNL     1      22.557  -0.088  52.814  1.00  0.00     0.090 A 
HETATM   12  C15 UNL     1      22.031  -0.730  53.950  1.00  0.00     0.068 A 
HETATM   13 CL1  UNL     1      22.929  -1.380  55.335  1.00  0.00    -0.081 Cl
HETATM   14  C16 UNL     1      20.659  -0.937  54.119  1.00  0.00     0.036 A 
BRANCH  11  15
HETATM   15  O1  UNL     1      23.895  -0.048  52.957  1.00  0.00    -0.345 OA
BRANCH  15  16
HETATM   16  C8  UNL     1      24.797   0.919  53.315  1.00  0.00     0.214 C 
BRANCH  16  17
HETATM   17  C9  UNL     1      24.967   1.971  52.290  1.00  0.00    -0.034 A 
HETATM   18  C10 UNL     1      26.141   1.910  51.531  1.00  0.00     0.009 A 
HETATM   19  C11 UNL     1      26.492   2.775  50.522  1.00  0.00     0.001 A 
HETATM   20  C12 UNL     1      25.623   3.800  50.218  1.00  0.00     0.000 A 
HETATM   21  C13 UNL     1      24.456   3.900  50.937  1.00  0.00     0.001 A 
HETATM   22  C14 UNL     1      24.138   3.013  51.941  1.00  0.00     0.009 A 
ENDBRANCH  16  17
ENDBRANCH  15  16
ENDBRANCH  11  15
ENDBRANCH   4   8
ENDBRANCH   3   4
TORSDOF 6
ENDMDL
