MODEL 1
REMARK VINA RESULT:      -6.3      0.000      0.000
REMARK  11 active torsions:
REMARK  status: ('A' for Active; 'I' for Inactive)
REMARK    1  A    between atoms: C2_2  and  O1_3 
REMARK    2  A    between atoms: O1_3  and  C3_4 
REMARK    3  A    between atoms: C3_4  and  C15_21 
REMARK    4  A    between atoms: C4_5  and  C5_6 
REMARK    5  A    between atoms: C6_7  and  C7_8 
REMARK    6  A    between atoms: C10_11  and  N1_12 
REMARK    7  A    between atoms: N1_12  and  C11_13 
REMARK    8  A    between atoms: C11_13  and  C12_14 
REMARK    9  A    between atoms: C12_14  and  S1_15 
REMARK   10  A    between atoms: S1_15  and  C13_18 
REMARK   11  A    between atoms: C15_21  and  N2_22 
ROOT
HETATM    1  C7  UNL     1      27.235   4.788  48.854  1.00  0.00     0.077 A 
HETATM    2  C8  UNL     1      26.708   6.042  48.603  1.00  0.00     0.041 A 
HETATM    3  C9  UNL     1      27.800   6.769  48.109  1.00  0.00     0.059 A 
HETATM    4  C10 UNL     1      28.908   5.911  48.094  1.00  0.00     0.144 A 
HETATM    5  O4  UNL     1      28.507   4.747  48.549  1.00  0.00    -0.294 OA
ENDROOT
BRANCH   1   6
HETATM    6  C6  UNL     1      26.448   3.682  49.386  1.00  0.00     0.037 C 
HETATM    7  C5  UNL     1      26.695   3.186  50.588  1.00  0.00     0.005 C 
BRANCH   7   8
HETATM    8  C4  UNL     1      25.949   2.095  51.163  1.00  0.00     0.034 C 
HETATM    9  C3  UNL     1      26.273   1.329  52.192  1.00  0.00     0.074 C 
BRANCH   9  10
HETATM   10  O1  UNL     1      25.451   0.303  52.645  1.00  0.00    -0.354 OA
BRANCH  10  11
HETATM   11  C2  UNL     1      24.345   0.473  53.497  1.00  0.00     0.171 C 
HETATM   12  C1  UNL     1      23.225  -0.484  53.160  1.00  0.00     0.034 C 
ENDBRANCH  10  11
ENDBRANCH   9  10
BRANCH   9  13
HETATM   13  C15 UNL     1      27.494   1.388  53.034  1.00  0.00     0.330 C 
BRANCH  13  14
HETATM   14  N2  UNL     1      27.324   2.503  53.980  1.00  0.00     0.084 N 
HETATM   15  H23 UNL     1      26.324   2.521  54.221  1.00  0.00     0.313 HD
HETATM   16  H24 UNL     1      27.928   2.361  54.805  1.00  0.00     0.313 HD
ENDBRANCH  13  14
ENDBRANCH   9  13
ENDBRANCH   7   8
ENDBRANCH   1   6
BRANCH   4  17
HETATM   17  N1  UNL     1      30.073   6.565  47.603  1.00  0.00    -0.370 N 
HETATM   18  H11 UNL     1      30.001   6.514  46.554  1.00  0.00     0.161 HD
BRANCH  17  19
HETATM   19  C11 UNL     1      30.918   7.051  48.674  1.00  0.00     0.136 C 
BRANCH  19  20
HETATM   20  C12 UNL     1      32.385   7.043  48.331  1.00  0.00     0.160 C 
BRANCH  20  21
HETATM   21  S1  UNL     1      32.780   5.412  47.727  1.00  0.00     0.145 S 
HETATM   22  O2  UNL     1      32.473   5.377  46.268  1.00  0.00    -0.228 OA
HETATM   23  O3  UNL     1      32.002   4.365  48.476  1.00  0.00    -0.228 OA
BRANCH  21  24
HETATM   24  C13 UNL     1      34.510   5.056  47.955  1.00  0.00     0.136 C 
HETATM   25  C14 UNL     1      34.804   3.575  47.812  1.00  0.00     0.021 C 
ENDBRANCH  21  24
ENDBRANCH  20  21
ENDBRANCH  19  20
ENDBRANCH  17  19
ENDBRANCH   4  17
TORSDOF 11
ENDMDL
MODEL 2
REMARK VINA RESULT:      -6.0      3.893      8.526
REMARK  11 active torsions:
REMARK  status: ('A' for Active; 'I' for Inactive)
REMARK    1  A    between atoms: C2_2  and  O1_3 
REMARK    2  A    between atoms: O1_3  and  C3_4 
REMARK    3  A    between atoms: C3_4  and  C15_21 
REMARK    4  A    between atoms: C4_5  and  C5_6 
REMARK    5  A    between atoms: C6_7  and  C7_8 
REMARK    6  A    between atoms: C10_11  and  N1_12 
REMARK    7  A    between atoms: N1_12  and  C11_13 
REMARK    8  A    between atoms: C11_13  and  C12_14 
REMARK    9  A    between atoms: C12_14  and  S1_15 
REMARK   10  A    between atoms: S1_15  and  C13_18 
REMARK   11  A    between atoms: C15_21  and  N2_22 
ROOT
HETATM    1  C7  UNL     1      26.803   4.323  49.332  1.00  0.00     0.077 A 
HETATM    2  C8  UNL     1      25.432   4.501  49.284  1.00  0.00     0.041 A 
HETATM    3  C9  UNL     1      24.939   3.526  50.162  1.00  0.00     0.059 A 
HETATM    4  C10 UNL     1      26.038   2.829  50.681  1.00  0.00     0.144 A 
HETATM    5  O4  UNL     1      27.119   3.350  50.148  1.00  0.00    -0.294 OA
ENDROOT
BRANCH   1   6
HETATM    6  C6  UNL     1      27.741   5.132  48.564  1.00  0.00     0.037 C 
HETATM    7  C5  UNL     1      27.499   6.410  48.319  1.00  0.00     0.005 C 
BRANCH   7   8
HETATM    8  C4  UNL     1      28.391   7.255  47.566  1.00  0.00     0.034 C 
HETATM    9  C3  UNL     1      28.664   8.536  47.755  1.00  0.00     0.074 C 
BRANCH   9  10
HETATM   10  O1  UNL     1      29.553   9.235  46.945  1.00  0.00    -0.354 OA
BRANCH  10  11
HETATM   11  C2  UNL     1      29.234  10.387  46.205  1.00  0.00     0.171 C 
HETATM   12  C1  UNL     1      28.219  10.096  45.125  1.00  0.00     0.034 C 
ENDBRANCH  10  11
ENDBRANCH   9  10
BRANCH   9  13
HETATM   13  C15 UNL     1      28.127   9.448  48.795  1.00  0.00     0.330 C 
BRANCH  13  14
HETATM   14  N2  UNL     1      29.023   9.365  49.961  1.00  0.00     0.084 N 
HETATM   15  H23 UNL     1      29.106   8.364  50.183  1.00  0.00     0.313 HD
HETATM   16  H24 UNL     1      29.933   9.798  49.738  1.00  0.00     0.313 HD
ENDBRANCH  13  14
ENDBRANCH   9  13
ENDBRANCH   7   8
ENDBRANCH   1   6
BRANCH   4  17
HETATM   17  N1  UNL     1      25.634   1.812  51.591  1.00  0.00    -0.370 N 
HETATM   18  H11 UNL     1      24.697   2.122  51.959  1.00  0.00     0.161 HD
BRANCH  17  19
HETATM   19  C11 UNL     1      26.612   0.749  51.691  1.00  0.00     0.136 C 
BRANCH  19  20
HETATM   20  C12 UNL     1      26.316  -0.237  52.791  1.00  0.00     0.160 C 
BRANCH  20  21
HETATM   21  S1  UNL     1      26.963   0.448  54.306  1.00  0.00     0.145 S 
HETATM   22  O2  UNL     1      26.563  -0.455  55.424  1.00  0.00    -0.228 OA
HETATM   23  O3  UNL     1      26.450   1.845  54.519  1.00  0.00    -0.228 OA
BRANCH  21  24
HETATM   24  C13 UNL     1      28.741   0.533  54.251  1.00  0.00     0.136 C 
HETATM   25  C14 UNL     1      29.354  -0.781  53.809  1.00  0.00     0.021 C 
ENDBRANCH  21  24
ENDBRANCH  20  21
ENDBRANCH  19  20
ENDBRANCH  17  19
ENDBRANCH   4  17
TORSDOF 11
ENDMDL
MODEL 3
REMARK VINA RESULT:      -6.0      2.823      8.131
REMARK  11 active torsions:
REMARK  status: ('A' for Active; 'I' for Inactive)
REMARK    1  A    between atoms: C2_2  and  O1_3 
REMARK    2  A    between atoms: O1_3  and  C3_4 
REMARK    3  A    between atoms: C3_4  and  C15_21 
REMARK    4  A    between atoms: C4_5  and  C5_6 
REMARK    5  A    between atoms: C6_7  and  C7_8 
REMARK    6  A    between atoms: C10_11  and  N1_12 
REMARK    7  A    between atoms: N1_12  and  C11_13 
REMARK    8  A    between atoms: C11_13  and  C12_14 
REMARK    9  A    between atoms: C12_14  and  S1_15 
REMARK   10  A    between atoms: S1_15  and  C13_18 
REMARK   11  A    between atoms: C15_21  and  N2_22 
ROOT
HETATM    1  C7  UNL     1      27.226   5.154  48.841  1.00  0.00     0.077 A 
HETATM    2  C8  UNL     1      25.909   5.579  48.838  1.00  0.00     0.041 A 
HETATM    3  C9  UNL     1      25.238   4.589  49.568  1.00  0.00     0.059 A 
HETATM    4  C10 UNL     1      26.187   3.637  49.962  1.00  0.00     0.144 A 
HETATM    5  O4  UNL     1      27.351   4.030  49.498  1.00  0.00    -0.294 OA
ENDROOT
BRANCH   1   6
HETATM    6  C6  UNL     1      28.303   5.887  48.189  1.00  0.00     0.037 C 
HETATM    7  C5  UNL     1      29.538   5.411  48.169  1.00  0.00     0.005 C 
BRANCH   7   8
HETATM    8  C4  UNL     1      30.640   6.093  47.539  1.00  0.00     0.034 C 
HETATM    9  C3  UNL     1      31.564   6.856  48.101  1.00  0.00     0.074 C 
BRANCH   9  10
HETATM   10  O1  UNL     1      32.580   7.458  47.366  1.00  0.00    -0.354 OA
BRANCH  10  11
HETATM   11  C2  UNL     1      33.478   6.777  46.525  1.00  0.00     0.171 C 
HETATM   12  C1  UNL     1      34.427   5.901  47.310  1.00  0.00     0.034 C 
ENDBRANCH  10  11
ENDBRANCH   9  10
BRANCH   9  13
HETATM   13  C15 UNL     1      31.715   7.215  49.533  1.00  0.00     0.330 C 
BRANCH  13  14
HETATM   14  N2  UNL     1      30.905   8.421  49.773  1.00  0.00     0.084 N 
HETATM   15  H23 UNL     1      31.320   9.162  49.193  1.00  0.00     0.313 HD
HETATM   16  H24 UNL     1      29.918   8.236  49.534  1.00  0.00     0.313 HD
ENDBRANCH  13  14
ENDBRANCH   9  13
ENDBRANCH   7   8
ENDBRANCH   1   6
BRANCH   4  17
HETATM   17  N1  UNL     1      25.595   2.584  50.716  1.00  0.00    -0.370 N 
HETATM   18  H11 UNL     1      24.728   2.312  50.184  1.00  0.00     0.161 HD
BRANCH  17  19
HETATM   19  C11 UNL     1      26.359   2.269  51.905  1.00  0.00     0.136 C 
BRANCH  19  20
HETATM   20  C12 UNL     1      26.830   0.839  51.953  1.00  0.00     0.160 C 
BRANCH  20  21
HETATM   21  S1  UNL     1      27.369   0.513  53.622  1.00  0.00     0.145 S 
HETATM   22  O2  UNL     1      26.827  -0.817  54.026  1.00  0.00    -0.228 OA
HETATM   23  O3  UNL     1      26.904   1.600  54.552  1.00  0.00    -0.228 OA
BRANCH  21  24
HETATM   24  C13 UNL     1      29.147   0.457  53.713  1.00  0.00     0.136 C 
HETATM   25  C14 UNL     1      29.671  -0.961  53.593  1.00  0.00     0.021 C 
ENDBRANCH  21  24
ENDBRANCH  20  21
ENDBRANCH  19  20
ENDBRANCH  17  19
ENDBRANCH   4  17
TORSDOF 11
ENDMDL
MODEL 4
REMARK VINA RESULT:      -6.0      2.536      3.491
REMARK  11 active torsions:
REMARK  status: ('A' for Active; 'I' for Inactive)
REMARK    1  A    between atoms: C2_2  and  O1_3 
REMARK    2  A    between atoms: O1_3  and  C3_4 
REMARK    3  A    between atoms: C3_4  and  C15_21 
REMARK    4  A    between atoms: C4_5  and  C5_6 
REMARK    5  A    between atoms: C6_7  and  C7_8 
REMARK    6  A    between atoms: C10_11  and  N1_12 
REMARK    7  A    between atoms: N1_12  and  C11_13 
REMARK    8  A    between atoms: C11_13  and  C12_14 
REMARK    9  A    between atoms: C12_14  and  S1_15 
REMARK   10  A    between atoms: S1_15  and  C13_18 
REMARK   11  A    between atoms: C15_21  and  N2_22 
ROOT
HETATM    1  C7  UNL     1      27.163   4.551  48.986  1.00  0.00     0.077 A 
HETATM    2  C8  UNL     1      26.434   5.726  48.977  1.00  0.00     0.041 A 
HETATM    3  C9  UNL     1      27.326   6.666  48.443  1.00  0.00     0.059 A 
HETATM    4  C10 UNL     1      28.527   6.001  48.166  1.00  0.00     0.144 A 
HETATM    5  O4  UNL     1      28.367   4.745  48.511  1.00  0.00    -0.294 OA
ENDROOT
BRANCH   1   6
HETATM    6  C6  UNL     1      26.629   3.283  49.467  1.00  0.00     0.037 C 
HETATM    7  C5  UNL     1      26.428   3.073  50.759  1.00  0.00     0.005 C 
BRANCH   7   8
HETATM    8  C4  UNL     1      25.902   1.840  51.288  1.00  0.00     0.034 C 
HETATM    9  C3  UNL     1      25.668   1.522  52.552  1.00  0.00     0.074 C 
BRANCH   9  10
HETATM   10  O1  UNL     1      25.154   0.284  52.924  1.00  0.00    -0.354 OA
BRANCH  10  11
HETATM   11  C2  UNL     1      25.883  -0.730  53.570  1.00  0.00     0.171 C 
HETATM   12  C1  UNL     1      26.968  -1.293  52.683  1.00  0.00     0.034 C 
ENDBRANCH  10  11
ENDBRANCH   9  10
BRANCH   9  13
HETATM   13  C15 UNL     1      25.882   2.349  53.764  1.00  0.00     0.330 C 
BRANCH  13  14
HETATM   14  N2  UNL     1      27.336   2.490  53.951  1.00  0.00     0.084 N 
HETATM   15  H23 UNL     1      27.476   2.678  54.953  1.00  0.00     0.313 HD
HETATM   16  H24 UNL     1      27.817   1.632  53.638  1.00  0.00     0.313 HD
ENDBRANCH  13  14
ENDBRANCH   9  13
ENDBRANCH   7   8
ENDBRANCH   1   6
BRANCH   4  17
HETATM   17  N1  UNL     1      29.500   6.881  47.615  1.00  0.00    -0.370 N 
HETATM   18  H11 UNL     1      29.141   7.133  46.658  1.00  0.00     0.161 HD
BRANCH  17  19
HETATM   19  C11 UNL     1      30.603   7.113  48.525  1.00  0.00     0.136 C 
BRANCH  19  20
HETATM   20  C12 UNL     1      31.440   8.312  48.159  1.00  0.00     0.160 C 
BRANCH  20  21
HETATM   21  S1  UNL     1      30.341   9.712  48.044  1.00  0.00     0.145 S 
HETATM   22  O2  UNL     1      29.403   9.652  49.202  1.00  0.00    -0.228 OA
HETATM   23  O3  UNL     1      29.601   9.701  46.736  1.00  0.00    -0.228 OA
BRANCH  21  24
HETATM   24  C13 UNL     1      31.254  11.239  48.128  1.00  0.00     0.136 C 
HETATM   25  C14 UNL     1      30.654  12.198  49.139  1.00  0.00     0.021 C 
ENDBRANCH  21  24
ENDBRANCH  20  21
ENDBRANCH  19  20
ENDBRANCH  17  19
ENDBRANCH   4  17
TORSDOF 11
ENDMDL
MODEL 5
REMARK VINA RESULT:      -5.9      3.556      4.539
REMARK  11 active torsions:
REMARK  status: ('A' for Active; 'I' for Inactive)
REMARK    1  A    between atoms: C2_2  and  O1_3 
REMARK    2  A    between atoms: O1_3  and  C3_4 
REMARK    3  A    between atoms: C3_4  and  C15_21 
REMARK    4  A    between atoms: C4_5  and  C5_6 
REMARK    5  A    between atoms: C6_7  and  C7_8 
REMARK    6  A    between atoms: C10_11  and  N1_12 
REMARK    7  A    between atoms: N1_12  and  C11_13 
REMARK    8  A    between atoms: C11_13  and  C12_14 
REMARK    9  A    between atoms: C12_14  and  S1_15 
REMARK   10  A    between atoms: S1_15  and  C13_18 
REMARK   11  A    between atoms: C15_21  and  N2_22 
ROOT
HETATM    1  C7  UNL     1      26.576   4.702  49.153  1.00  0.00     0.077 A 
HETATM    2  C8  UNL     1      27.834   4.868  48.604  1.00  0.00     0.041 A 
HETATM    3  C9  UNL     1      27.853   6.215  48.218  1.00  0.00     0.059 A 
HETATM    4  C10 UNL     1      26.614   6.771  48.558  1.00  0.00     0.144 A 
HETATM    5  O4  UNL     1      25.897   5.820  49.111  1.00  0.00    -0.294 OA
ENDROOT
BRANCH   1   6
HETATM    6  C6  UNL     1      26.103   3.436  49.698  1.00  0.00     0.037 C 
HETATM    7  C5  UNL     1      26.695   2.879  50.743  1.00  0.00     0.005 C 
BRANCH   7   8
HETATM    8  C4  UNL     1      26.269   1.630  51.323  1.00  0.00     0.034 C 
HETATM    9  C3  UNL     1      26.764   1.002  52.377  1.00  0.00     0.074 C 
BRANCH   9  10
HETATM   10  O1  UNL     1      26.252  -0.209  52.830  1.00  0.00    -0.354 OA
BRANCH  10  11
HETATM   11  C2  UNL     1      25.311  -0.348  53.867  1.00  0.00     0.171 C 
HETATM   12  C1  UNL     1      23.920   0.033  53.417  1.00  0.00     0.034 C 
ENDBRANCH  10  11
ENDBRANCH   9  10
BRANCH   9  13
HETATM   13  C15 UNL     1      27.892   1.414  53.248  1.00  0.00     0.330 C 
BRANCH  13  14
HETATM   14  N2  UNL     1      27.451   2.593  54.012  1.00  0.00     0.084 N 
HETATM   15  H23 UNL     1      26.435   2.489  54.131  1.00  0.00     0.313 HD
HETATM   16  H24 UNL     1      27.954   2.638  54.912  1.00  0.00     0.313 HD
ENDBRANCH  13  14
ENDBRANCH   9  13
ENDBRANCH   7   8
ENDBRANCH   1   6
BRANCH   4  17
HETATM   17  N1  UNL     1      26.539   8.148  48.204  1.00  0.00    -0.370 N 
HETATM   18  H11 UNL     1      25.806   8.561  48.837  1.00  0.00     0.161 HD
BRANCH  17  19
HETATM   19  C11 UNL     1      27.458   8.487  47.137  1.00  0.00     0.136 C 
BRANCH  19  20
HETATM   20  C12 UNL     1      27.817   9.950  47.098  1.00  0.00     0.160 C 
BRANCH  20  21
HETATM   21  S1  UNL     1      28.168  10.456  48.771  1.00  0.00     0.145 S 
HETATM   22  O2  UNL     1      28.974   9.380  49.415  1.00  0.00    -0.228 OA
HETATM   23  O3  UNL     1      26.893  10.714  49.527  1.00  0.00    -0.228 OA
BRANCH  21  24
HETATM   24  C13 UNL     1      29.114  11.966  48.789  1.00  0.00     0.136 C 
HETATM   25  C14 UNL     1      28.220  13.190  48.766  1.00  0.00     0.021 C 
ENDBRANCH  21  24
ENDBRANCH  20  21
ENDBRANCH  19  20
ENDBRANCH  17  19
ENDBRANCH   4  17
TORSDOF 11
ENDMDL
MODEL 6
REMARK VINA RESULT:      -5.8      1.681      2.054
REMARK  11 active torsions:
REMARK  status: ('A' for Active; 'I' for Inactive)
REMARK    1  A    between atoms: C2_2  and  O1_3 
REMARK    2  A    between atoms: O1_3  and  C3_4 
REMARK    3  A    between atoms: C3_4  and  C15_21 
REMARK    4  A    between atoms: C4_5  and  C5_6 
REMARK    5  A    between atoms: C6_7  and  C7_8 
REMARK    6  A    between atoms: C10_11  and  N1_12 
REMARK    7  A    between atoms: N1_12  and  C11_13 
REMARK    8  A    between atoms: C11_13  and  C12_14 
REMARK    9  A    between atoms: C12_14  and  S1_15 
REMARK   10  A    between atoms: S1_15  and  C13_18 
REMARK   11  A    between atoms: C15_21  and  N2_22 
ROOT
HETATM    1  C7  UNL     1      26.871   4.446  49.094  1.00  0.00     0.077 A 
HETATM    2  C8  UNL     1      25.958   5.481  49.005  1.00  0.00     0.041 A 
HETATM    3  C9  UNL     1      26.698   6.530  48.443  1.00  0.00     0.059 A 
HETATM    4  C10 UNL     1      28.002   6.063  48.231  1.00  0.00     0.144 A 
HETATM    5  O4  UNL     1      28.041   4.815  48.639  1.00  0.00    -0.294 OA
ENDROOT
BRANCH   1   6
HETATM    6  C6  UNL     1      26.539   3.132  49.629  1.00  0.00     0.037 C 
HETATM    7  C5  UNL     1      26.732   2.846  50.907  1.00  0.00     0.005 C 
BRANCH   7   8
HETATM    8  C4  UNL     1      26.420   1.565  51.488  1.00  0.00     0.034 C 
HETATM    9  C3  UNL     1      25.419   1.249  52.293  1.00  0.00     0.074 C 
BRANCH   9  10
HETATM   10  O1  UNL     1      25.236  -0.040  52.784  1.00  0.00    -0.354 OA
BRANCH  10  11
HETATM   11  C2  UNL     1      26.219  -0.795  53.448  1.00  0.00     0.171 C 
HETATM   12  C1  UNL     1      26.783  -1.883  52.564  1.00  0.00     0.034 C 
ENDBRANCH  10  11
ENDBRANCH   9  10
BRANCH   9  13
HETATM   13  C15 UNL     1      24.343   2.129  52.813  1.00  0.00     0.330 C 
BRANCH  13  14
HETATM   14  N2  UNL     1      23.290   2.193  51.786  1.00  0.00     0.084 N 
HETATM   15  H23 UNL     1      22.423   2.434  52.284  1.00  0.00     0.313 HD
HETATM   16  H24 UNL     1      23.541   2.890  51.068  1.00  0.00     0.313 HD
ENDBRANCH  13  14
ENDBRANCH   9  13
ENDBRANCH   7   8
ENDBRANCH   1   6
BRANCH   4  17
HETATM   17  N1  UNL     1      28.833   7.065  47.657  1.00  0.00    -0.370 N 
HETATM   18  H11 UNL     1      28.247   7.522  46.911  1.00  0.00     0.161 HD
BRANCH  17  19
HETATM   19  C11 UNL     1      30.144   7.104  48.272  1.00  0.00     0.136 C 
BRANCH  19  20
HETATM   20  C12 UNL     1      31.199   6.372  47.483  1.00  0.00     0.160 C 
BRANCH  20  21
HETATM   21  S1  UNL     1      32.180   5.442  48.646  1.00  0.00     0.145 S 
HETATM   22  O2  UNL     1      32.189   4.018  48.201  1.00  0.00    -0.228 OA
HETATM   23  O3  UNL     1      31.627   5.578  50.038  1.00  0.00    -0.228 OA
BRANCH  21  24
HETATM   24  C13 UNL     1      33.858   6.040  48.677  1.00  0.00     0.136 C 
HETATM   25  C14 UNL     1      33.920   7.547  48.519  1.00  0.00     0.021 C 
ENDBRANCH  21  24
ENDBRANCH  20  21
ENDBRANCH  19  20
ENDBRANCH  17  19
ENDBRANCH   4  17
TORSDOF 11
ENDMDL
MODEL 7
REMARK VINA RESULT:      -5.8      1.704      1.848
REMARK  11 active torsions:
REMARK  status: ('A' for Active; 'I' for Inactive)
REMARK    1  A    between atoms: C2_2  and  O1_3 
REMARK    2  A    between atoms: O1_3  and  C3_4 
REMARK    3  A    between atoms: C3_4  and  C15_21 
REMARK    4  A    between atoms: C4_5  and  C5_6 
REMARK    5  A    between atoms: C6_7  and  C7_8 
REMARK    6  A    between atoms: C10_11  and  N1_12 
REMARK    7  A    between atoms: N1_12  and  C11_13 
REMARK    8  A    between atoms: C11_13  and  C12_14 
REMARK    9  A    between atoms: C12_14  and  S1_15 
REMARK   10  A    between atoms: S1_15  and  C13_18 
REMARK   11  A    between atoms: C15_21  and  N2_22 
ROOT
HETATM    1  C7  UNL     1      27.197   4.686  48.955  1.00  0.00     0.077 A 
HETATM    2  C8  UNL     1      26.629   5.935  48.776  1.00  0.00     0.041 A 
HETATM    3  C9  UNL     1      27.677   6.705  48.254  1.00  0.00     0.059 A 
HETATM    4  C10 UNL     1      28.802   5.877  48.152  1.00  0.00     0.144 A 
HETATM    5  O4  UNL     1      28.452   4.688  48.585  1.00  0.00    -0.294 OA
ENDROOT
BRANCH   1   6
HETATM    6  C6  UNL     1      26.464   3.544  49.486  1.00  0.00     0.037 C 
HETATM    7  C5  UNL     1      25.186   3.647  49.815  1.00  0.00     0.005 C 
BRANCH   7   8
HETATM    8  C4  UNL     1      24.414   2.551  50.344  1.00  0.00     0.034 C 
HETATM    9  C3  UNL     1      23.971   2.377  51.579  1.00  0.00     0.074 C 
BRANCH   9  10
HETATM   10  O1  UNL     1      23.230   1.262  51.954  1.00  0.00    -0.354 OA
BRANCH  10  11
HETATM   11  C2  UNL     1      22.131   1.282  52.831  1.00  0.00     0.171 C 
HETATM   12  C1  UNL     1      22.145   0.102  53.775  1.00  0.00     0.034 C 
ENDBRANCH  10  11
ENDBRANCH   9  10
BRANCH   9  13
HETATM   13  C15 UNL     1      24.149   3.266  52.754  1.00  0.00     0.330 C 
BRANCH  13  14
HETATM   14  N2  UNL     1      25.372   2.836  53.451  1.00  0.00     0.084 N 
HETATM   15  H23 UNL     1      25.290   1.817  53.565  1.00  0.00     0.313 HD
HETATM   16  H24 UNL     1      26.204   3.108  52.905  1.00  0.00     0.313 HD
ENDBRANCH  13  14
ENDBRANCH   9  13
ENDBRANCH   7   8
ENDBRANCH   1   6
BRANCH   4  17
HETATM   17  N1  UNL     1      29.925   6.576  47.627  1.00  0.00    -0.370 N 
HETATM   18  H11 UNL     1      29.780   6.595  46.584  1.00  0.00     0.161 HD
BRANCH  17  19
HETATM   19  C11 UNL     1      30.840   6.999  48.666  1.00  0.00     0.136 C 
BRANCH  19  20
HETATM   20  C12 UNL     1      31.688   5.878  49.210  1.00  0.00     0.160 C 
BRANCH  20  21
HETATM   21  S1  UNL     1      32.764   5.339  47.894  1.00  0.00     0.145 S 
HETATM   22  O2  UNL     1      34.134   5.179  48.459  1.00  0.00    -0.228 OA
HETATM   23  O3  UNL     1      32.750   6.326  46.759  1.00  0.00    -0.228 OA
BRANCH  21  24
HETATM   24  C13 UNL     1      32.228   3.770  47.243  1.00  0.00     0.136 C 
HETATM   25  C14 UNL     1      33.129   2.637  47.696  1.00  0.00     0.021 C 
ENDBRANCH  21  24
ENDBRANCH  20  21
ENDBRANCH  19  20
ENDBRANCH  17  19
ENDBRANCH   4  17
TORSDOF 11
ENDMDL
MODEL 8
REMARK VINA RESULT:      -5.7      1.696      1.915
REMARK  11 active torsions:
REMARK  status: ('A' for Active; 'I' for Inactive)
REMARK    1  A    between atoms: C2_2  and  O1_3 
REMARK    2  A    between atoms: O1_3  and  C3_4 
REMARK    3  A    between atoms: C3_4  and  C15_21 
REMARK    4  A    between atoms: C4_5  and  C5_6 
REMARK    5  A    between atoms: C6_7  and  C7_8 
REMARK    6  A    between atoms: C10_11  and  N1_12 
REMARK    7  A    between atoms: N1_12  and  C11_13 
REMARK    8  A    between atoms: C11_13  and  C12_14 
REMARK    9  A    between atoms: C12_14  and  S1_15 
REMARK   10  A    between atoms: S1_15  and  C13_18 
REMARK   11  A    between atoms: C15_21  and  N2_22 
ROOT
HETATM    1  C7  UNL     1      26.232   4.167  49.526  1.00  0.00     0.077 A 
HETATM    2  C8  UNL     1      25.824   5.447  49.198  1.00  0.00     0.041 A 
HETATM    3  C9  UNL     1      26.945   6.001  48.565  1.00  0.00     0.059 A 
HETATM    4  C10 UNL     1      27.950   5.025  48.552  1.00  0.00     0.144 A 
HETATM    5  O4  UNL     1      27.464   3.956  49.138  1.00  0.00    -0.294 OA
ENDROOT
BRANCH   1   6
HETATM    6  C6  UNL     1      25.376   3.207  50.212  1.00  0.00     0.037 C 
HETATM    7  C5  UNL     1      25.767   2.625  51.334  1.00  0.00     0.005 C 
BRANCH   7   8
HETATM    8  C4  UNL     1      24.961   1.670  52.053  1.00  0.00     0.034 C 
HETATM    9  C3  UNL     1      25.302   0.465  52.483  1.00  0.00     0.074 C 
BRANCH   9  10
HETATM   10  O1  UNL     1      24.416  -0.358  53.170  1.00  0.00    -0.354 OA
BRANCH  10  11
HETATM   11  C2  UNL     1      23.053  -0.082  53.374  1.00  0.00     0.171 C 
HETATM   12  C1  UNL     1      22.369  -1.178  54.157  1.00  0.00     0.034 C 
ENDBRANCH  10  11
ENDBRANCH   9  10
BRANCH   9  13
HETATM   13  C15 UNL     1      26.607  -0.227  52.344  1.00  0.00     0.330 C 
BRANCH  13  14
HETATM   14  N2  UNL     1      26.679  -1.251  53.399  1.00  0.00     0.084 N 
HETATM   15  H23 UNL     1      27.271  -2.003  53.024  1.00  0.00     0.313 HD
HETATM   16  H24 UNL     1      27.063  -0.839  54.264  1.00  0.00     0.313 HD
ENDBRANCH  13  14
ENDBRANCH   9  13
ENDBRANCH   7   8
ENDBRANCH   1   6
BRANCH   4  17
HETATM   17  N1  UNL     1      29.135   5.499  47.922  1.00  0.00    -0.370 N 
HETATM   18  H11 UNL     1      29.412   4.745  47.242  1.00  0.00     0.161 HD
BRANCH  17  19
HETATM   19  C11 UNL     1      29.534   6.800  48.419  1.00  0.00     0.136 C 
BRANCH  19  20
HETATM   20  C12 UNL     1      30.826   7.298  47.825  1.00  0.00     0.160 C 
BRANCH  20  21
HETATM   21  S1  UNL     1      32.106   6.149  48.297  1.00  0.00     0.145 S 
HETATM   22  O2  UNL     1      31.551   5.257  49.356  1.00  0.00    -0.228 OA
HETATM   23  O3  UNL     1      33.326   6.882  48.782  1.00  0.00    -0.228 OA
BRANCH  21  24
HETATM   24  C13 UNL     1      32.600   5.149  46.909  1.00  0.00     0.136 C 
HETATM   25  C14 UNL     1      32.083   3.728  47.027  1.00  0.00     0.021 C 
ENDBRANCH  21  24
ENDBRANCH  20  21
ENDBRANCH  19  20
ENDBRANCH  17  19
ENDBRANCH   4  17
TORSDOF 11
ENDMDL
MODEL 9
REMARK VINA RESULT:      -5.6      2.473      3.384
REMARK  11 active torsions:
REMARK  status: ('A' for Active; 'I' for Inactive)
REMARK    1  A    between atoms: C2_2  and  O1_3 
REMARK    2  A    between atoms: O1_3  and  C3_4 
REMARK    3  A    between atoms: C3_4  and  C15_21 
REMARK    4  A    between atoms: C4_5  and  C5_6 
REMARK    5  A    between atoms: C6_7  and  C7_8 
REMARK    6  A    between atoms: C10_11  and  N1_12 
REMARK    7  A    between atoms: N1_12  and  C11_13 
REMARK    8  A    between atoms: C11_13  and  C12_14 
REMARK    9  A    between atoms: C12_14  and  S1_15 
REMARK   10  A    between atoms: S1_15  and  C13_18 
REMARK   11  A    between atoms: C15_21  and  N2_22 
ROOT
HETATM    1  C7  UNL     1      24.846   3.240  50.306  1.00  0.00     0.077 A 
HETATM    2  C8  UNL     1      24.305   4.400  49.782  1.00  0.00     0.041 A 
HETATM    3  C9  UNL     1      25.400   5.036  49.181  1.00  0.00     0.059 A 
HETATM    4  C10 UNL     1      26.523   4.222  49.379  1.00  0.00     0.144 A 
HETATM    5  O4  UNL     1      26.128   3.168  50.055  1.00  0.00    -0.294 OA
ENDROOT
BRANCH   1   6
HETATM    6  C6  UNL     1      24.061   2.250  51.033  1.00  0.00     0.037 C 
HETATM    7  C5  UNL     1      24.450   1.808  52.219  1.00  0.00     0.005 C 
BRANCH   7   8
HETATM    8  C4  UNL     1      23.714   0.831  52.981  1.00  0.00     0.034 C 
HETATM    9  C3  UNL     1      24.179  -0.217  53.642  1.00  0.00     0.074 C 
BRANCH   9  10
HETATM   10  O1  UNL     1      23.347  -1.084  54.341  1.00  0.00    -0.354 OA
BRANCH  10  11
HETATM   11  C2  UNL     1      22.086  -0.746  54.864  1.00  0.00     0.171 C 
HETATM   12  C1  UNL     1      20.977  -1.540  54.214  1.00  0.00     0.034 C 
ENDBRANCH  10  11
ENDBRANCH   9  10
BRANCH   9  13
HETATM   13  C15 UNL     1      25.585  -0.669  53.778  1.00  0.00     0.330 C 
BRANCH  13  14
HETATM   14  N2  UNL     1      25.953  -0.544  55.198  1.00  0.00     0.084 N 
HETATM   15  H23 UNL     1      25.871   0.455  55.426  1.00  0.00     0.313 HD
HETATM   16  H24 UNL     1      25.335  -1.135  55.776  1.00  0.00     0.313 HD
ENDBRANCH  13  14
ENDBRANCH   9  13
ENDBRANCH   7   8
ENDBRANCH   1   6
BRANCH   4  17
HETATM   17  N1  UNL     1      27.692   4.789  48.798  1.00  0.00    -0.370 N 
HETATM   18  H11 UNL     1      28.353   3.982  48.654  1.00  0.00     0.161 HD
BRANCH  17  19
HETATM   19  C11 UNL     1      27.572   6.221  48.616  1.00  0.00     0.136 C 
BRANCH  19  20
HETATM   20  C12 UNL     1      28.420   6.756  47.492  1.00  0.00     0.160 C 
BRANCH  20  21
HETATM   21  S1  UNL     1      30.113   6.745  48.052  1.00  0.00     0.145 S 
HETATM   22  O2  UNL     1      30.993   6.770  46.849  1.00  0.00    -0.228 OA
HETATM   23  O3  UNL     1      30.383   5.536  48.905  1.00  0.00    -0.228 OA
BRANCH  21  24
HETATM   24  C13 UNL     1      30.460   8.185  49.043  1.00  0.00     0.136 C 
HETATM   25  C14 UNL     1      31.871   8.159  49.598  1.00  0.00     0.021 C 
ENDBRANCH  21  24
ENDBRANCH  20  21
ENDBRANCH  19  20
ENDBRANCH  17  19
ENDBRANCH   4  17
TORSDOF 11
ENDMDL
