MODEL 1
REMARK VINA RESULT:      -6.8      0.000      0.000
REMARK  10 active torsions:
REMARK  status: ('A' for Active; 'I' for Inactive)
REMARK    1  A    between atoms: O1_2  and  C2_3 
REMARK    2  A    between atoms: C5_6  and  C6_7 
REMARK    3  A    between atoms: C6_7  and  N1_8 
REMARK    4  A    between atoms: N1_8  and  C7_9 
REMARK    5  A    between atoms: C7_9  and  N2_10 
REMARK    6  A    between atoms: N2_10  and  C8_11 
REMARK    7  A    between atoms: C8_11  and  N3_12 
REMARK    8  A    between atoms: N3_12  and  C10_14 
REMARK    9  A    between atoms: C10_14  and  C11_15 
REMARK   10  A    between atoms: C18_24  and  O2_25 
ROOT
HETATM    1  C7  UNL     1      22.411   1.613  50.292  1.00  0.00     0.092 C 
ENDROOT
BRANCH   1   2
HETATM    2  N1  UNL     1      22.528   1.157  51.487  1.00  0.00    -0.226 NA
BRANCH   2   3
HETATM    3  C6  UNL     1      23.029   2.086  52.488  1.00  0.00     0.196 C 
BRANCH   3   4
HETATM    4  C5  UNL     1      24.279   1.507  53.044  1.00  0.00    -0.042 C 
HETATM    5  C4  UNL     1      24.374   0.019  53.065  1.00  0.00     0.067 C 
HETATM    6  C3  UNL     1      25.816  -0.357  52.955  1.00  0.00     0.017 C 
HETATM    7  C2  UNL     1      26.856   0.460  53.178  1.00  0.00     0.098 C 
HETATM    8  C18 UNL     1      26.472   1.832  53.559  1.00  0.00     0.110 C 
HETATM    9  C17 UNL     1      25.249   2.270  53.491  1.00  0.00     0.018 C 
BRANCH   7  10
HETATM   10  O1  UNL     1      28.206   0.128  53.080  1.00  0.00    -0.353 OA
HETATM   11  C1  UNL     1      28.986  -0.347  54.152  1.00  0.00     0.210 C 
ENDBRANCH   7  10
BRANCH   8  12
HETATM   12  O2  UNL     1      27.426   2.755  54.025  1.00  0.00    -0.357 OA
HETATM   13  H21 UNL     1      27.609   2.802  55.037  1.00  0.00     0.217 HD
ENDBRANCH   8  12
ENDBRANCH   3   4
ENDBRANCH   2   3
ENDBRANCH   1   2
BRANCH   1  14
HETATM   14  N2  UNL     1      22.165   2.169  49.154  1.00  0.00    -0.200 NA
BRANCH  14  15
HETATM   15  C8  UNL     1      23.254   2.929  48.597  1.00  0.00     0.433 C 
BRANCH  15  16
HETATM   16  N3  UNL     1      23.252   4.253  49.105  1.00  0.00     0.120 N 
HETATM   17  C9  UNL     1      22.989   5.207  48.022  1.00  0.00     0.313 C 
BRANCH  16  18
HETATM   18  C10 UNL     1      24.389   4.689  49.848  1.00  0.00     0.209 A 
HETATM   19  C12 UNL     1      25.419   3.615  49.991  1.00  0.00     0.017 A 
HETATM   20  C13 UNL     1      26.679   3.573  49.593  1.00  0.00    -0.000 A 
HETATM   21  C14 UNL     1      27.234   4.721  48.892  1.00  0.00     0.014 A 
HETATM   22  C15 UNL     1      26.379   5.715  48.727  1.00  0.00    -0.009 A 
HETATM   23 BR1  UNL     1      27.031   7.270  47.810  1.00  0.00    -0.056 Br
HETATM   24  C16 UNL     1      24.977   5.891  49.109  1.00  0.00     0.095 A 
BRANCH  18  25
HETATM   25  C11 UNL     1      24.076   5.161  51.237  1.00  0.00     0.268 C 
HETATM   26  F1  UNL     1      22.658   5.171  51.295  1.00  0.00    -0.252 F 
ENDBRANCH  18  25
ENDBRANCH  16  18
ENDBRANCH  15  16
ENDBRANCH  14  15
ENDBRANCH   1  14
TORSDOF 10
ENDMDL
MODEL 2
REMARK VINA RESULT:      -6.6      2.755      4.284
REMARK  10 active torsions:
REMARK  status: ('A' for Active; 'I' for Inactive)
REMARK    1  A    between atoms: O1_2  and  C2_3 
REMARK    2  A    between atoms: C5_6  and  C6_7 
REMARK    3  A    between atoms: C6_7  and  N1_8 
REMARK    4  A    between atoms: N1_8  and  C7_9 
REMARK    5  A    between atoms: C7_9  and  N2_10 
REMARK    6  A    between atoms: N2_10  and  C8_11 
REMARK    7  A    between atoms: C8_11  and  N3_12 
REMARK    8  A    between atoms: N3_12  and  C10_14 
REMARK    9  A    between atoms: C10_14  and  C11_15 
REMARK   10  A    between atoms: C18_24  and  O2_25 
ROOT
HETATM    1  C7  UNL     1      25.934   4.448  49.866  1.00  0.00     0.092 C 
ENDROOT
BRANCH   1   2
HETATM    2  N1  UNL     1      26.771   3.596  50.339  1.00  0.00    -0.226 NA
BRANCH   2   3
HETATM    3  C6  UNL     1      26.325   2.213  50.398  1.00  0.00     0.196 C 
BRANCH   3   4
HETATM    4  C5  UNL     1      26.756   1.663  51.708  1.00  0.00    -0.042 C 
HETATM    5  C4  UNL     1      26.222   0.321  52.079  1.00  0.00     0.067 C 
HETATM    6  C3  UNL     1      27.224  -0.350  52.963  1.00  0.00     0.017 C 
HETATM    7  C2  UNL     1      28.225   0.259  53.613  1.00  0.00     0.098 C 
HETATM    8  C18 UNL     1      28.286   1.717  53.393  1.00  0.00     0.110 C 
HETATM    9  C17 UNL     1      27.568   2.328  52.497  1.00  0.00     0.018 C 
BRANCH   7  10
HETATM   10  O1  UNL     1      29.167  -0.348  54.441  1.00  0.00    -0.353 OA
HETATM   11  C1  UNL     1      30.213  -1.171  53.983  1.00  0.00     0.210 C 
ENDBRANCH   7  10
BRANCH   8  12
HETATM   12  O2  UNL     1      29.139   2.535  54.154  1.00  0.00    -0.357 OA
HETATM   13  H21 UNL     1      30.145   2.536  53.933  1.00  0.00     0.217 HD
ENDBRANCH   8  12
ENDBRANCH   3   4
ENDBRANCH   2   3
ENDBRANCH   1   2
BRANCH   1  14
HETATM   14  N2  UNL     1      25.002   5.166  49.337  1.00  0.00    -0.200 NA
BRANCH  14  15
HETATM   15  C8  UNL     1      23.823   5.332  50.147  1.00  0.00     0.433 C 
BRANCH  15  16
HETATM   16  N3  UNL     1      23.255   4.074  50.470  1.00  0.00     0.120 N 
HETATM   17  C9  UNL     1      22.159   3.765  49.544  1.00  0.00     0.313 C 
BRANCH  16  18
HETATM   18  C10 UNL     1      22.812   3.861  51.809  1.00  0.00     0.209 A 
HETATM   19  C12 UNL     1      21.342   4.084  51.962  1.00  0.00     0.017 A 
HETATM   20  C13 UNL     1      20.383   3.260  52.349  1.00  0.00    -0.000 A 
HETATM   21  C14 UNL     1      20.730   1.891  52.702  1.00  0.00     0.014 A 
HETATM   22  C15 UNL     1      22.018   1.618  52.591  1.00  0.00    -0.009 A 
HETATM   23 BR1  UNL     1      22.563  -0.167  53.039  1.00  0.00    -0.056 Br
HETATM   24  C16 UNL     1      23.171   2.422  52.179  1.00  0.00     0.095 A 
BRANCH  18  25
HETATM   25  C11 UNL     1      23.479   4.736  52.828  1.00  0.00     0.268 C 
HETATM   26  F1  UNL     1      24.316   3.853  53.559  1.00  0.00    -0.252 F 
ENDBRANCH  18  25
ENDBRANCH  16  18
ENDBRANCH  15  16
ENDBRANCH  14  15
ENDBRANCH   1  14
TORSDOF 10
ENDMDL
MODEL 3
REMARK VINA RESULT:      -6.6      3.647      5.588
REMARK  10 active torsions:
REMARK  status: ('A' for Active; 'I' for Inactive)
REMARK    1  A    between atoms: O1_2  and  C2_3 
REMARK    2  A    between atoms: C5_6  and  C6_7 
REMARK    3  A    between atoms: C6_7  and  N1_8 
REMARK    4  A    between atoms: N1_8  and  C7_9 
REMARK    5  A    between atoms: C7_9  and  N2_10 
REMARK    6  A    between atoms: N2_10  and  C8_11 
REMARK    7  A    between atoms: C8_11  and  N3_12 
REMARK    8  A    between atoms: N3_12  and  C10_14 
REMARK    9  A    between atoms: C10_14  and  C11_15 
REMARK   10  A    between atoms: C18_24  and  O2_25 
ROOT
HETATM    1  C7  UNL     1      23.123   2.473  50.165  1.00  0.00     0.092 C 
ENDROOT
BRANCH   1   2
HETATM    2  N1  UNL     1      24.109   2.763  50.936  1.00  0.00    -0.226 NA
BRANCH   2   3
HETATM    3  C6  UNL     1      23.976   2.371  52.331  1.00  0.00     0.196 C 
BRANCH   3   4
HETATM    4  C5  UNL     1      24.983   1.311  52.591  1.00  0.00    -0.042 C 
HETATM    5  C4  UNL     1      26.227   1.355  51.769  1.00  0.00     0.067 C 
HETATM    6  C3  UNL     1      27.337   0.759  52.573  1.00  0.00     0.017 C 
HETATM    7  C2  UNL     1      27.189  -0.012  53.660  1.00  0.00     0.098 C 
HETATM    8  C18 UNL     1      25.784  -0.251  54.041  1.00  0.00     0.110 C 
HETATM    9  C17 UNL     1      24.786   0.385  53.500  1.00  0.00     0.018 C 
BRANCH   7  10
HETATM   10  O1  UNL     1      28.210  -0.577  54.422  1.00  0.00    -0.353 OA
HETATM   11  C1  UNL     1      29.483  -0.910  53.921  1.00  0.00     0.210 C 
ENDBRANCH   7  10
BRANCH   8  12
HETATM   12  O2  UNL     1      25.444  -1.197  55.024  1.00  0.00    -0.357 OA
HETATM   13  H21 UNL     1      24.641  -1.000  55.638  1.00  0.00     0.217 HD
ENDBRANCH   8  12
ENDBRANCH   3   4
ENDBRANCH   2   3
ENDBRANCH   1   2
BRANCH   1  14
HETATM   14  N2  UNL     1      22.110   2.045  49.492  1.00  0.00    -0.200 NA
BRANCH  14  15
HETATM   15  C8  UNL     1      21.537   0.812  49.967  1.00  0.00     0.433 C 
BRANCH  15  16
HETATM   16  N3  UNL     1      20.133   0.936  50.117  1.00  0.00     0.120 N 
HETATM   17  C9  UNL     1      19.629   2.011  49.255  1.00  0.00     0.313 C 
BRANCH  16  18
HETATM   18  C10 UNL     1      19.610   1.106  51.434  1.00  0.00     0.209 A 
HETATM   19  C12 UNL     1      18.289   0.433  51.611  1.00  0.00     0.017 A 
HETATM   20  C13 UNL     1      17.917  -0.530  52.437  1.00  0.00    -0.000 A 
HETATM   21  C14 UNL     1      18.898  -1.080  53.362  1.00  0.00     0.014 A 
HETATM   22  C15 UNL     1      20.095  -0.532  53.264  1.00  0.00    -0.009 A 
HETATM   23 BR1  UNL     1      21.450  -1.200  54.449  1.00  0.00    -0.056 Br
HETATM   24  C16 UNL     1      20.636   0.523  52.405  1.00  0.00     0.095 A 
BRANCH  18  25
HETATM   25  C11 UNL     1      19.412   2.537  51.840  1.00  0.00     0.268 C 
HETATM   26  F1  UNL     1      20.280   2.712  52.949  1.00  0.00    -0.252 F 
ENDBRANCH  18  25
ENDBRANCH  16  18
ENDBRANCH  15  16
ENDBRANCH  14  15
ENDBRANCH   1  14
TORSDOF 10
ENDMDL
MODEL 4
REMARK VINA RESULT:      -6.5      2.624      3.381
REMARK  10 active torsions:
REMARK  status: ('A' for Active; 'I' for Inactive)
REMARK    1  A    between atoms: O1_2  and  C2_3 
REMARK    2  A    between atoms: C5_6  and  C6_7 
REMARK    3  A    between atoms: C6_7  and  N1_8 
REMARK    4  A    between atoms: N1_8  and  C7_9 
REMARK    5  A    between atoms: C7_9  and  N2_10 
REMARK    6  A    between atoms: N2_10  and  C8_11 
REMARK    7  A    between atoms: C8_11  and  N3_12 
REMARK    8  A    between atoms: N3_12  and  C10_14 
REMARK    9  A    between atoms: C10_14  and  C11_15 
REMARK   10  A    between atoms: C18_24  and  O2_25 
ROOT
HETATM    1  C7  UNL     1      20.478   1.840  52.879  1.00  0.00     0.092 C 
ENDROOT
BRANCH   1   2
HETATM    2  N1  UNL     1      20.710   0.581  52.972  1.00  0.00    -0.226 NA
BRANCH   2   3
HETATM    3  C6  UNL     1      21.122   0.093  54.280  1.00  0.00     0.196 C 
BRANCH   3   4
HETATM    4  C5  UNL     1      22.508  -0.422  54.145  1.00  0.00    -0.042 C 
HETATM    5  C4  UNL     1      23.159  -0.247  52.814  1.00  0.00     0.067 C 
HETATM    6  C3  UNL     1      24.634  -0.137  53.030  1.00  0.00     0.017 C 
HETATM    7  C2  UNL     1      25.291  -0.503  54.139  1.00  0.00     0.098 C 
HETATM    8  C18 UNL     1      24.425  -1.052  55.199  1.00  0.00     0.110 C 
HETATM    9  C17 UNL     1      23.125  -1.001  55.148  1.00  0.00     0.018 C 
BRANCH   7  10
HETATM   10  O1  UNL     1      26.665  -0.410  54.358  1.00  0.00    -0.353 OA
HETATM   11  C1  UNL     1      27.644  -0.650  53.376  1.00  0.00     0.210 C 
ENDBRANCH   7  10
BRANCH   8  12
HETATM   12  O2  UNL     1      24.967  -1.671  56.339  1.00  0.00    -0.357 OA
HETATM   13  H21 UNL     1      24.509  -2.518  56.702  1.00  0.00     0.217 HD
ENDBRANCH   8  12
ENDBRANCH   3   4
ENDBRANCH   2   3
ENDBRANCH   1   2
BRANCH   1  14
HETATM   14  N2  UNL     1      20.088   3.060  52.725  1.00  0.00    -0.200 NA
BRANCH  14  15
HETATM   15  C8  UNL     1      20.391   3.643  51.443  1.00  0.00     0.433 C 
BRANCH  15  16
HETATM   16  N3  UNL     1      21.766   3.979  51.359  1.00  0.00     0.120 N 
HETATM   17  C9  UNL     1      21.932   5.435  51.435  1.00  0.00     0.313 C 
BRANCH  16  18
HETATM   18  C10 UNL     1      22.513   3.480  50.251  1.00  0.00     0.209 A 
HETATM   19  C12 UNL     1      22.887   4.557  49.287  1.00  0.00     0.017 A 
HETATM   20  C13 UNL     1      24.075   4.980  48.887  1.00  0.00    -0.000 A 
HETATM   21  C14 UNL     1      25.267   4.343  49.427  1.00  0.00     0.014 A 
HETATM   22  C15 UNL     1      25.015   3.376  50.290  1.00  0.00    -0.009 A 
HETATM   23 BR1  UNL     1      26.533   2.481  51.052  1.00  0.00    -0.056 Br
HETATM   24  C16 UNL     1      23.768   2.815  50.817  1.00  0.00     0.095 A 
BRANCH  18  25
HETATM   25  C11 UNL     1      21.804   2.426  49.452  1.00  0.00     0.268 C 
HETATM   26  F1  UNL     1      22.366   1.203  49.903  1.00  0.00    -0.252 F 
ENDBRANCH  18  25
ENDBRANCH  16  18
ENDBRANCH  15  16
ENDBRANCH  14  15
ENDBRANCH   1  14
TORSDOF 10
ENDMDL
MODEL 5
REMARK VINA RESULT:      -6.3      1.789      2.380
REMARK  10 active torsions:
REMARK  status: ('A' for Active; 'I' for Inactive)
REMARK    1  A    between atoms: O1_2  and  C2_3 
REMARK    2  A    between atoms: C5_6  and  C6_7 
REMARK    3  A    between atoms: C6_7  and  N1_8 
REMARK    4  A    between atoms: N1_8  and  C7_9 
REMARK    5  A    between atoms: C7_9  and  N2_10 
REMARK    6  A    between atoms: N2_10  and  C8_11 
REMARK    7  A    between atoms: C8_11  and  N3_12 
REMARK    8  A    between atoms: N3_12  and  C10_14 
REMARK    9  A    between atoms: C10_14  and  C11_15 
REMARK   10  A    between atoms: C18_24  and  O2_25 
ROOT
HETATM    1  C7  UNL     1      21.712   3.475  52.001  1.00  0.00     0.092 C 
ENDROOT
BRANCH   1   2
HETATM    2  N1  UNL     1      21.980   2.263  52.331  1.00  0.00    -0.226 NA
BRANCH   2   3
HETATM    3  C6  UNL     1      23.166   1.675  51.726  1.00  0.00     0.196 C 
BRANCH   3   4
HETATM    4  C5  UNL     1      24.097   1.321  52.828  1.00  0.00    -0.042 C 
HETATM    5  C4  UNL     1      23.869   0.010  53.500  1.00  0.00     0.067 C 
HETATM    6  C3  UNL     1      25.185  -0.486  54.008  1.00  0.00     0.017 C 
HETATM    7  C2  UNL     1      26.288   0.256  54.176  1.00  0.00     0.098 C 
HETATM    8  C18 UNL     1      26.121   1.675  53.808  1.00  0.00     0.110 C 
HETATM    9  C17 UNL     1      25.069   2.126  53.189  1.00  0.00     0.018 C 
BRANCH   7  10
HETATM   10  O1  UNL     1      27.522  -0.188  54.649  1.00  0.00    -0.353 OA
HETATM   11  C1  UNL     1      28.606  -0.546  53.825  1.00  0.00     0.210 C 
ENDBRANCH   7  10
BRANCH   8  12
HETATM   12  O2  UNL     1      27.107   2.630  54.113  1.00  0.00    -0.357 OA
HETATM   13  H21 UNL     1      27.026   3.153  54.996  1.00  0.00     0.217 HD
ENDBRANCH   8  12
ENDBRANCH   3   4
ENDBRANCH   2   3
ENDBRANCH   1   2
BRANCH   1  14
HETATM   14  N2  UNL     1      21.485   4.645  51.509  1.00  0.00    -0.200 NA
BRANCH  14  15
HETATM   15  C8  UNL     1      22.657   5.450  51.279  1.00  0.00     0.433 C 
BRANCH  15  16
HETATM   16  N3  UNL     1      22.551   6.150  50.050  1.00  0.00     0.120 N 
HETATM   17  C9  UNL     1      21.146   6.220  49.631  1.00  0.00     0.313 C 
BRANCH  16  18
HETATM   18  C10 UNL     1      23.346   5.705  48.952  1.00  0.00     0.209 A 
HETATM   19  C12 UNL     1      24.236   6.782  48.424  1.00  0.00     0.017 A 
HETATM   20  C13 UNL     1      25.554   6.842  48.334  1.00  0.00    -0.000 A 
HETATM   21  C14 UNL     1      26.344   5.714  48.807  1.00  0.00     0.014 A 
HETATM   22  C15 UNL     1      25.623   4.719  49.290  1.00  0.00    -0.009 A 
HETATM   23 BR1  UNL     1      26.586   3.189  49.935  1.00  0.00    -0.056 Br
HETATM   24  C16 UNL     1      24.180   4.524  49.448  1.00  0.00     0.095 A 
BRANCH  18  25
HETATM   25  C11 UNL     1      22.555   5.199  47.782  1.00  0.00     0.268 C 
HETATM   26  F1  UNL     1      22.781   3.798  47.783  1.00  0.00    -0.252 F 
ENDBRANCH  18  25
ENDBRANCH  16  18
ENDBRANCH  15  16
ENDBRANCH  14  15
ENDBRANCH   1  14
TORSDOF 10
ENDMDL
MODEL 6
REMARK VINA RESULT:      -6.3      3.653      5.419
REMARK  10 active torsions:
REMARK  status: ('A' for Active; 'I' for Inactive)
REMARK    1  A    between atoms: O1_2  and  C2_3 
REMARK    2  A    between atoms: C5_6  and  C6_7 
REMARK    3  A    between atoms: C6_7  and  N1_8 
REMARK    4  A    between atoms: N1_8  and  C7_9 
REMARK    5  A    between atoms: C7_9  and  N2_10 
REMARK    6  A    between atoms: N2_10  and  C8_11 
REMARK    7  A    between atoms: C8_11  and  N3_12 
REMARK    8  A    between atoms: N3_12  and  C10_14 
REMARK    9  A    between atoms: C10_14  and  C11_15 
REMARK   10  A    between atoms: C18_24  and  O2_25 
ROOT
HETATM    1  C7  UNL     1      23.504   3.852  51.492  1.00  0.00     0.092 C 
ENDROOT
BRANCH   1   2
HETATM    2  N1  UNL     1      24.734   3.530  51.673  1.00  0.00    -0.226 NA
BRANCH   2   3
HETATM    3  C6  UNL     1      25.163   2.263  51.100  1.00  0.00     0.196 C 
BRANCH   3   4
HETATM    4  C5  UNL     1      26.024   1.591  52.107  1.00  0.00    -0.042 C 
HETATM    5  C4  UNL     1      25.512   0.312  52.677  1.00  0.00     0.067 C 
HETATM    6  C3  UNL     1      26.686  -0.532  53.056  1.00  0.00     0.017 C 
HETATM    7  C2  UNL     1      27.943  -0.095  53.216  1.00  0.00     0.098 C 
HETATM    8  C18 UNL     1      28.112   1.352  52.982  1.00  0.00     0.110 C 
HETATM    9  C17 UNL     1      27.177   2.100  52.472  1.00  0.00     0.018 C 
BRANCH   7  10
HETATM   10  O1  UNL     1      29.050  -0.865  53.569  1.00  0.00    -0.353 OA
HETATM   11  C1  UNL     1      29.212  -2.222  53.235  1.00  0.00     0.210 C 
ENDBRANCH   7  10
BRANCH   8  12
HETATM   12  O2  UNL     1      29.313   2.009  53.304  1.00  0.00    -0.357 OA
HETATM   13  H21 UNL     1      29.306   3.036  53.377  1.00  0.00     0.217 HD
ENDBRANCH   8  12
ENDBRANCH   3   4
ENDBRANCH   2   3
ENDBRANCH   1   2
BRANCH   1  14
HETATM   14  N2  UNL     1      22.258   4.184  51.483  1.00  0.00    -0.200 NA
BRANCH  14  15
HETATM   15  C8  UNL     1      21.391   3.329  52.252  1.00  0.00     0.433 C 
BRANCH  15  16
HETATM   16  N3  UNL     1      20.598   2.522  51.399  1.00  0.00     0.120 N 
HETATM   17  C9  UNL     1      19.174   2.776  51.647  1.00  0.00     0.313 C 
BRANCH  16  18
HETATM   18  C10 UNL     1      20.829   1.114  51.398  1.00  0.00     0.209 A 
HETATM   19  C12 UNL     1      21.864   0.709  52.396  1.00  0.00     0.017 A 
HETATM   20  C13 UNL     1      21.784  -0.100  53.439  1.00  0.00    -0.000 A 
HETATM   21  C14 UNL     1      20.512  -0.743  53.734  1.00  0.00     0.014 A 
HETATM   22  C15 UNL     1      19.544  -0.432  52.891  1.00  0.00    -0.009 A 
HETATM   23 BR1  UNL     1      17.832  -1.239  53.207  1.00  0.00    -0.056 Br
HETATM   24  C16 UNL     1      19.496   0.437  51.713  1.00  0.00     0.095 A 
BRANCH  18  25
HETATM   25  C11 UNL     1      21.279   0.562  50.077  1.00  0.00     0.268 C 
HETATM   26  F1  UNL     1      22.371   1.389  49.703  1.00  0.00    -0.252 F 
ENDBRANCH  18  25
ENDBRANCH  16  18
ENDBRANCH  15  16
ENDBRANCH  14  15
ENDBRANCH   1  14
TORSDOF 10
ENDMDL
MODEL 7
REMARK VINA RESULT:      -6.3      3.809      4.749
REMARK  10 active torsions:
REMARK  status: ('A' for Active; 'I' for Inactive)
REMARK    1  A    between atoms: O1_2  and  C2_3 
REMARK    2  A    between atoms: C5_6  and  C6_7 
REMARK    3  A    between atoms: C6_7  and  N1_8 
REMARK    4  A    between atoms: N1_8  and  C7_9 
REMARK    5  A    between atoms: C7_9  and  N2_10 
REMARK    6  A    between atoms: N2_10  and  C8_11 
REMARK    7  A    between atoms: C8_11  and  N3_12 
REMARK    8  A    between atoms: N3_12  and  C10_14 
REMARK    9  A    between atoms: C10_14  and  C11_15 
REMARK   10  A    between atoms: C18_24  and  O2_25 
ROOT
HETATM    1  C7  UNL     1      20.525   4.011  52.035  1.00  0.00     0.092 C 
ENDROOT
BRANCH   1   2
HETATM    2  N1  UNL     1      19.850   2.976  52.387  1.00  0.00    -0.226 NA
BRANCH   2   3
HETATM    3  C6  UNL     1      19.694   1.934  51.384  1.00  0.00     0.196 C 
BRANCH   3   4
HETATM    4  C5  UNL     1      20.210   0.672  51.973  1.00  0.00    -0.042 C 
HETATM    5  C4  UNL     1      21.657   0.379  51.762  1.00  0.00     0.067 C 
HETATM    6  C3  UNL     1      22.140  -0.437  52.917  1.00  0.00     0.017 C 
HETATM    7  C2  UNL     1      21.363  -1.104  53.781  1.00  0.00     0.098 C 
HETATM    8  C18 UNL     1      19.918  -0.980  53.512  1.00  0.00     0.110 C 
HETATM    9  C17 UNL     1      19.430  -0.142  52.644  1.00  0.00     0.018 C 
BRANCH   7  10
HETATM   10  O1  UNL     1      21.794  -1.870  54.863  1.00  0.00    -0.353 OA
HETATM   11  C1  UNL     1      23.005  -1.664  55.550  1.00  0.00     0.210 C 
ENDBRANCH   7  10
BRANCH   8  12
HETATM   12  O2  UNL     1      18.977  -1.775  54.189  1.00  0.00    -0.357 OA
HETATM   13  H21 UNL     1      19.234  -2.744  54.427  1.00  0.00     0.217 HD
ENDBRANCH   8  12
ENDBRANCH   3   4
ENDBRANCH   2   3
ENDBRANCH   1   2
BRANCH   1  14
HETATM   14  N2  UNL     1      21.238   4.963  51.536  1.00  0.00    -0.200 NA
BRANCH  14  15
HETATM   15  C8  UNL     1      22.631   4.939  51.899  1.00  0.00     0.433 C 
BRANCH  15  16
HETATM   16  N3  UNL     1      23.449   4.876  50.742  1.00  0.00     0.120 N 
HETATM   17  C9  UNL     1      22.774   5.525  49.613  1.00  0.00     0.313 C 
BRANCH  16  18
HETATM   18  C10 UNL     1      23.931   3.599  50.329  1.00  0.00     0.209 A 
HETATM   19  C12 UNL     1      25.217   3.694  49.575  1.00  0.00     0.017 A 
HETATM   20  C13 UNL     1      26.408   3.184  49.836  1.00  0.00    -0.000 A 
HETATM   21  C14 UNL     1      26.582   2.382  51.038  1.00  0.00     0.014 A 
HETATM   22  C15 UNL     1      25.483   2.252  51.760  1.00  0.00    -0.009 A 
HETATM   23 BR1  UNL     1      25.623   1.207  53.365  1.00  0.00    -0.056 Br
HETATM   24  C16 UNL     1      24.119   2.757  51.592  1.00  0.00     0.095 A 
BRANCH  18  25
HETATM   25  C11 UNL     1      22.983   2.835  49.452  1.00  0.00     0.268 C 
HETATM   26  F1  UNL     1      23.670   2.709  48.216  1.00  0.00    -0.252 F 
ENDBRANCH  18  25
ENDBRANCH  16  18
ENDBRANCH  15  16
ENDBRANCH  14  15
ENDBRANCH   1  14
TORSDOF 10
ENDMDL
MODEL 8
REMARK VINA RESULT:      -6.1      5.306      7.835
REMARK  10 active torsions:
REMARK  status: ('A' for Active; 'I' for Inactive)
REMARK    1  A    between atoms: O1_2  and  C2_3 
REMARK    2  A    between atoms: C5_6  and  C6_7 
REMARK    3  A    between atoms: C6_7  and  N1_8 
REMARK    4  A    between atoms: N1_8  and  C7_9 
REMARK    5  A    between atoms: C7_9  and  N2_10 
REMARK    6  A    between atoms: N2_10  and  C8_11 
REMARK    7  A    between atoms: C8_11  and  N3_12 
REMARK    8  A    between atoms: N3_12  and  C10_14 
REMARK    9  A    between atoms: C10_14  and  C11_15 
REMARK   10  A    between atoms: C18_24  and  O2_25 
ROOT
HETATM    1  C7  UNL     1      29.491   9.969  49.346  1.00  0.00     0.092 C 
ENDROOT
BRANCH   1   2
HETATM    2  N1  UNL     1      30.773  10.015  49.405  1.00  0.00    -0.226 NA
BRANCH   2   3
HETATM    3  C6  UNL     1      31.492   9.557  48.226  1.00  0.00     0.196 C 
BRANCH   3   4
HETATM    4  C5  UNL     1      31.369   8.078  48.179  1.00  0.00    -0.042 C 
HETATM    5  C4  UNL     1      31.251   7.460  46.827  1.00  0.00     0.067 C 
HETATM    6  C3  UNL     1      31.834   6.085  46.891  1.00  0.00     0.017 C 
HETATM    7  C2  UNL     1      32.070   5.388  48.012  1.00  0.00     0.098 C 
HETATM    8  C18 UNL     1      31.700   6.097  49.251  1.00  0.00     0.110 C 
HETATM    9  C17 UNL     1      31.367   7.355  49.274  1.00  0.00     0.018 C 
BRANCH   7  10
HETATM   10  O1  UNL     1      32.611   4.106  48.092  1.00  0.00    -0.353 OA
HETATM   11  C1  UNL     1      32.441   3.109  47.113  1.00  0.00     0.210 C 
ENDBRANCH   7  10
BRANCH   8  12
HETATM   12  O2  UNL     1      31.688   5.439  50.494  1.00  0.00    -0.357 OA
HETATM   13  H21 UNL     1      31.633   4.411  50.504  1.00  0.00     0.217 HD
ENDBRANCH   8  12
ENDBRANCH   3   4
ENDBRANCH   2   3
ENDBRANCH   1   2
BRANCH   1  14
HETATM   14  N2  UNL     1      28.205  10.079  49.362  1.00  0.00    -0.200 NA
BRANCH  14  15
HETATM   15  C8  UNL     1      27.498   8.924  49.852  1.00  0.00     0.433 C 
BRANCH  15  16
HETATM   16  N3  UNL     1      26.327   8.692  49.087  1.00  0.00     0.120 N 
HETATM   17  C9  UNL     1      25.157   8.620  49.969  1.00  0.00     0.313 C 
BRANCH  16  18
HETATM   18  C10 UNL     1      26.315   7.575  48.199  1.00  0.00     0.209 A 
HETATM   19  C12 UNL     1      27.680   7.008  47.982  1.00  0.00     0.017 A 
HETATM   20  C13 UNL     1      28.161   5.802  48.232  1.00  0.00    -0.000 A 
HETATM   21  C14 UNL     1      27.280   4.801  48.816  1.00  0.00     0.014 A 
HETATM   22  C15 UNL     1      26.051   5.231  49.037  1.00  0.00    -0.009 A 
HETATM   23 BR1  UNL     1      24.823   3.972  49.806  1.00  0.00    -0.056 Br
HETATM   24  C16 UNL     1      25.395   6.521  48.814  1.00  0.00     0.095 A 
BRANCH  18  25
HETATM   25  C11 UNL     1      25.761   7.874  46.837  1.00  0.00     0.268 C 
HETATM   26  F1  UNL     1      26.158   9.213  46.581  1.00  0.00    -0.252 F 
ENDBRANCH  18  25
ENDBRANCH  16  18
ENDBRANCH  15  16
ENDBRANCH  14  15
ENDBRANCH   1  14
TORSDOF 10
ENDMDL
MODEL 9
REMARK VINA RESULT:      -6.0      3.248      4.304
REMARK  10 active torsions:
REMARK  status: ('A' for Active; 'I' for Inactive)
REMARK    1  A    between atoms: O1_2  and  C2_3 
REMARK    2  A    between atoms: C5_6  and  C6_7 
REMARK    3  A    between atoms: C6_7  and  N1_8 
REMARK    4  A    between atoms: N1_8  and  C7_9 
REMARK    5  A    between atoms: C7_9  and  N2_10 
REMARK    6  A    between atoms: N2_10  and  C8_11 
REMARK    7  A    between atoms: C8_11  and  N3_12 
REMARK    8  A    between atoms: N3_12  and  C10_14 
REMARK    9  A    between atoms: C10_14  and  C11_15 
REMARK   10  A    between atoms: C18_24  and  O2_25 
ROOT
HETATM    1  C7  UNL     1      23.431   4.657  52.380  1.00  0.00     0.092 C 
ENDROOT
BRANCH   1   2
HETATM    2  N1  UNL     1      23.913   3.630  52.981  1.00  0.00    -0.226 NA
BRANCH   2   3
HETATM    3  C6  UNL     1      24.451   2.577  52.134  1.00  0.00     0.196 C 
BRANCH   3   4
HETATM    4  C5  UNL     1      25.194   1.638  53.012  1.00  0.00    -0.042 C 
HETATM    5  C4  UNL     1      24.647   0.255  53.128  1.00  0.00     0.067 C 
HETATM    6  C3  UNL     1      25.785  -0.674  53.402  1.00  0.00     0.017 C 
HETATM    7  C2  UNL     1      27.000  -0.315  53.839  1.00  0.00     0.098 C 
HETATM    8  C18 UNL     1      27.160   1.137  54.046  1.00  0.00     0.110 C 
HETATM    9  C17 UNL     1      26.278   2.009  53.651  1.00  0.00     0.018 C 
BRANCH   7  10
HETATM   10  O1  UNL     1      28.072  -1.166  54.100  1.00  0.00    -0.353 OA
HETATM   11  C1  UNL     1      29.227  -1.257  53.301  1.00  0.00     0.210 C 
ENDBRANCH   7  10
BRANCH   8  12
HETATM   12  O2  UNL     1      28.293   1.662  54.692  1.00  0.00    -0.357 OA
HETATM   13  H21 UNL     1      28.175   2.080  55.626  1.00  0.00     0.217 HD
ENDBRANCH   8  12
ENDBRANCH   3   4
ENDBRANCH   2   3
ENDBRANCH   1   2
BRANCH   1  14
HETATM   14  N2  UNL     1      22.871   5.576  51.669  1.00  0.00    -0.200 NA
BRANCH  14  15
HETATM   15  C8  UNL     1      21.568   5.243  51.154  1.00  0.00     0.433 C 
BRANCH  15  16
HETATM   16  N3  UNL     1      21.669   4.284  50.116  1.00  0.00     0.120 N 
HETATM   17  C9  UNL     1      21.642   4.952  48.809  1.00  0.00     0.313 C 
BRANCH  16  18
HETATM   18  C10 UNL     1      20.741   3.200  50.109  1.00  0.00     0.209 A 
HETATM   19  C12 UNL     1      21.165   2.097  49.195  1.00  0.00     0.017 A 
HETATM   20  C13 UNL     1      21.438   0.828  49.448  1.00  0.00    -0.000 A 
HETATM   21  C14 UNL     1      21.333   0.344  50.818  1.00  0.00     0.014 A 
HETATM   22  C15 UNL     1      20.961   1.268  51.686  1.00  0.00    -0.009 A 
HETATM   23 BR1  UNL     1      20.797   0.715  53.517  1.00  0.00    -0.056 Br
HETATM   24  C16 UNL     1      20.634   2.689  51.545  1.00  0.00     0.095 A 
BRANCH  18  25
HETATM   25  C11 UNL     1      19.351   3.581  49.693  1.00  0.00     0.268 C 
HETATM   26  F1  UNL     1      18.535   3.184  50.785  1.00  0.00    -0.252 F 
ENDBRANCH  18  25
ENDBRANCH  16  18
ENDBRANCH  15  16
ENDBRANCH  14  15
ENDBRANCH   1  14
TORSDOF 10
ENDMDL
