MODEL 1
REMARK VINA RESULT:      -8.7      0.000      0.000
REMARK  5 active torsions:
REMARK  status: ('A' for Active; 'I' for Inactive)
REMARK    1  A    between atoms: N1_1  and  C1_2 
REMARK    2  A    between atoms: C1_2  and  C2_3 
REMARK    3  A    between atoms: C3_4  and  C4_5 
REMARK       I    between atoms: C4_5  and  N2_7 
REMARK    4  A    between atoms: N2_7  and  C5_8 
REMARK    5  A    between atoms: N3_14  and  C11_15 
ROOT
HETATM    1  C5  UNL     1      24.848   3.569  51.374  1.00  0.00     0.037 A 
HETATM    2  C6  UNL     1      23.520   3.913  51.655  1.00  0.00     0.032 A 
HETATM    3  C7  UNL     1      22.652   3.067  52.321  1.00  0.00     0.036 A 
HETATM    4  C8  UNL     1      23.144   1.841  52.712  1.00  0.00     0.083 A 
HETATM    5  C9  UNL     1      24.456   1.543  52.421  1.00  0.00     0.066 A 
HETATM    6  C10 UNL     1      25.351   2.336  51.767  1.00  0.00     0.061 A 
HETATM    7  N3  UNL     1      24.919   0.276  52.934  1.00  0.00    -0.340 N 
HETATM    8  C17 UNL     1      24.045  -0.800  53.364  1.00  0.00     0.176 C 
HETATM    9  C18 UNL     1      22.680  -0.261  53.602  1.00  0.00     0.110 C 
HETATM   10  N4  UNL     1      22.231   0.936  53.317  1.00  0.00    -0.261 NA
ENDROOT
BRANCH   1  11
HETATM   11  N2  UNL     1      25.690   4.483  50.683  1.00  0.00    -0.316 N 
HETATM   12  C4  UNL     1      26.543   4.036  49.624  1.00  0.00     0.301 C 
HETATM   13  O1  UNL     1      26.601   2.823  49.240  1.00  0.00    -0.258 OA
HETATM   14  H5  UNL     1      25.676   5.490  50.961  1.00  0.00     0.170 HD
BRANCH  12  15
HETATM   15  C3  UNL     1      27.403   4.940  48.910  1.00  0.00    -0.004 C 
HETATM   16  C2  UNL     1      28.136   5.711  48.326  1.00  0.00    -0.067 C 
BRANCH  16  17
HETATM   17  C1  UNL     1      29.042   6.656  47.636  1.00  0.00     0.360 C 
BRANCH  17  18
HETATM   18  N1  UNL     1      29.808   7.398  48.607  1.00  0.00     0.089 N 
HETATM   19  H1  UNL     1      30.663   7.821  48.237  1.00  0.00     0.313 HD
HETATM   20  H2  UNL     1      29.905   6.924  49.522  1.00  0.00     0.313 HD
ENDBRANCH  17  18
ENDBRANCH  16  17
ENDBRANCH  12  15
ENDBRANCH   1  11
BRANCH   7  21
HETATM   21  C11 UNL     1      26.295  -0.045  53.119  1.00  0.00     0.036 A 
HETATM   22  C12 UNL     1      26.922  -1.230  52.795  1.00  0.00     0.033 A 
HETATM   23  C13 UNL     1      28.238  -1.489  53.015  1.00  0.00     0.046 A 
HETATM   24  C14 UNL     1      29.042  -0.539  53.595  1.00  0.00     0.138 A 
HETATM   25  F1  UNL     1      30.353  -0.737  53.837  1.00  0.00    -0.204 F 
HETATM   26  C15 UNL     1      28.511   0.681  53.957  1.00  0.00     0.074 A 
HETATM   27 CL1  UNL     1      29.458   1.954  54.702  1.00  0.00    -0.081 Cl
HETATM   28  C16 UNL     1      27.173   0.872  53.705  1.00  0.00     0.056 A 
ENDBRANCH   7  21
TORSDOF 5
ENDMDL
MODEL 2
REMARK VINA RESULT:      -8.7      1.125      1.463
REMARK  5 active torsions:
REMARK  status: ('A' for Active; 'I' for Inactive)
REMARK    1  A    between atoms: N1_1  and  C1_2 
REMARK    2  A    between atoms: C1_2  and  C2_3 
REMARK    3  A    between atoms: C3_4  and  C4_5 
REMARK       I    between atoms: C4_5  and  N2_7 
REMARK    4  A    between atoms: N2_7  and  C5_8 
REMARK    5  A    between atoms: N3_14  and  C11_15 
ROOT
HETATM    1  C5  UNL     1      24.570   3.595  51.340  1.00  0.00     0.037 A 
HETATM    2  C6  UNL     1      23.207   3.893  51.455  1.00  0.00     0.032 A 
HETATM    3  C7  UNL     1      22.308   3.057  52.093  1.00  0.00     0.036 A 
HETATM    4  C8  UNL     1      22.805   1.889  52.627  1.00  0.00     0.083 A 
HETATM    5  C9  UNL     1      24.152   1.634  52.496  1.00  0.00     0.066 A 
HETATM    6  C10 UNL     1      25.078   2.421  51.878  1.00  0.00     0.061 A 
HETATM    7  N3  UNL     1      24.609   0.433  53.152  1.00  0.00    -0.340 N 
HETATM    8  C17 UNL     1      23.739  -0.650  53.572  1.00  0.00     0.176 C 
HETATM    9  C18 UNL     1      22.335  -0.163  53.625  1.00  0.00     0.110 C 
HETATM   10  N4  UNL     1      21.871   0.987  53.204  1.00  0.00    -0.261 NA
ENDROOT
BRANCH   1  11
HETATM   11  N2  UNL     1      25.443   4.496  50.671  1.00  0.00    -0.316 N 
HETATM   12  C4  UNL     1      26.355   4.026  49.674  1.00  0.00     0.301 C 
HETATM   13  O1  UNL     1      26.443   2.803  49.329  1.00  0.00    -0.258 OA
HETATM   14  H5  UNL     1      25.407   5.510  50.919  1.00  0.00     0.170 HD
BRANCH  12  15
HETATM   15  C3  UNL     1      27.248   4.917  48.982  1.00  0.00    -0.004 C 
HETATM   16  C2  UNL     1      27.997   5.683  48.414  1.00  0.00    -0.067 C 
BRANCH  16  17
HETATM   17  C1  UNL     1      28.912   6.633  47.741  1.00  0.00     0.360 C 
BRANCH  17  18
HETATM   18  N1  UNL     1      29.888   7.122  48.683  1.00  0.00     0.089 N 
HETATM   19  H1  UNL     1      30.709   7.558  48.254  1.00  0.00     0.313 HD
HETATM   20  H2  UNL     1      30.086   6.473  49.465  1.00  0.00     0.313 HD
ENDBRANCH  17  18
ENDBRANCH  16  17
ENDBRANCH  12  15
ENDBRANCH   1  11
BRANCH   7  21
HETATM   21  C11 UNL     1      25.969   0.194  53.502  1.00  0.00     0.036 A 
HETATM   22  C12 UNL     1      26.802   1.027  54.219  1.00  0.00     0.033 A 
HETATM   23  C13 UNL     1      28.102   0.756  54.506  1.00  0.00     0.046 A 
HETATM   24  C14 UNL     1      28.673  -0.417  54.077  1.00  0.00     0.138 A 
HETATM   25  F1  UNL     1      29.957  -0.742  54.331  1.00  0.00    -0.204 F 
HETATM   26  C15 UNL     1      27.925  -1.320  53.352  1.00  0.00     0.074 A 
HETATM   27 CL1  UNL     1      28.568  -2.840  52.763  1.00  0.00    -0.081 Cl
HETATM   28  C16 UNL     1      26.618  -0.978  53.099  1.00  0.00     0.056 A 
ENDBRANCH   7  21
TORSDOF 5
ENDMDL
MODEL 3
REMARK VINA RESULT:      -8.6      3.862      7.824
REMARK  5 active torsions:
REMARK  status: ('A' for Active; 'I' for Inactive)
REMARK    1  A    between atoms: N1_1  and  C1_2 
REMARK    2  A    between atoms: C1_2  and  C2_3 
REMARK    3  A    between atoms: C3_4  and  C4_5 
REMARK       I    between atoms: C4_5  and  N2_7 
REMARK    4  A    between atoms: N2_7  and  C5_8 
REMARK    5  A    between atoms: N3_14  and  C11_15 
ROOT
HETATM    1  C5  UNL     1      23.079  -0.933  53.856  1.00  0.00     0.037 A 
HETATM    2  C6  UNL     1      23.589  -1.374  55.083  1.00  0.00     0.032 A 
HETATM    3  C7  UNL     1      24.865  -1.064  55.519  1.00  0.00     0.036 A 
HETATM    4  C8  UNL     1      25.643  -0.288  54.688  1.00  0.00     0.083 A 
HETATM    5  C9  UNL     1      25.103   0.128  53.492  1.00  0.00     0.066 A 
HETATM    6  C10 UNL     1      23.856  -0.149  53.015  1.00  0.00     0.061 A 
HETATM    7  N3  UNL     1      25.949   1.004  52.717  1.00  0.00    -0.340 N 
HETATM    8  C17 UNL     1      27.380   1.144  52.915  1.00  0.00     0.176 C 
HETATM    9  C18 UNL     1      27.746   0.615  54.256  1.00  0.00     0.110 C 
HETATM   10  N4  UNL     1      26.983  -0.043  55.092  1.00  0.00    -0.261 NA
ENDROOT
BRANCH   1  11
HETATM   11  N2  UNL     1      21.758  -1.287  53.464  1.00  0.00    -0.316 N 
HETATM   12  C4  UNL     1      20.640  -0.480  53.849  1.00  0.00     0.301 C 
HETATM   13  O1  UNL     1      20.751   0.579  54.548  1.00  0.00    -0.258 OA
HETATM   14  H5  UNL     1      21.617  -2.147  52.889  1.00  0.00     0.170 HD
BRANCH  12  15
HETATM   15  C3  UNL     1      19.296  -0.816  53.465  1.00  0.00    -0.004 C 
HETATM   16  C2  UNL     1      18.160  -1.081  53.132  1.00  0.00    -0.067 C 
BRANCH  16  17
HETATM   17  C1  UNL     1      16.773  -1.383  52.710  1.00  0.00     0.360 C 
BRANCH  17  18
HETATM   18  N1  UNL     1      16.403  -2.703  53.158  1.00  0.00     0.089 N 
HETATM   19  H1  UNL     1      16.037  -2.737  54.113  1.00  0.00     0.313 HD
HETATM   20  H2  UNL     1      17.086  -3.441  52.915  1.00  0.00     0.313 HD
ENDBRANCH  17  18
ENDBRANCH  16  17
ENDBRANCH  12  15
ENDBRANCH   1  11
BRANCH   7  21
HETATM   21  C11 UNL     1      25.463   1.867  51.693  1.00  0.00     0.036 A 
HETATM   22  C12 UNL     1      24.148   2.068  51.330  1.00  0.00     0.033 A 
HETATM   23  C13 UNL     1      23.743   2.891  50.327  1.00  0.00     0.046 A 
HETATM   24  C14 UNL     1      24.668   3.593  49.594  1.00  0.00     0.138 A 
HETATM   25  F1  UNL     1      24.327   4.423  48.588  1.00  0.00    -0.204 F 
HETATM   26  C15 UNL     1      26.011   3.462  49.877  1.00  0.00     0.074 A 
HETATM   27 CL1  UNL     1      27.262   4.317  48.997  1.00  0.00    -0.081 Cl
HETATM   28  C16 UNL     1      26.346   2.612  50.905  1.00  0.00     0.056 A 
ENDBRANCH   7  21
TORSDOF 5
ENDMDL
MODEL 4
REMARK VINA RESULT:      -8.2      3.513      6.772
REMARK  5 active torsions:
REMARK  status: ('A' for Active; 'I' for Inactive)
REMARK    1  A    between atoms: N1_1  and  C1_2 
REMARK    2  A    between atoms: C1_2  and  C2_3 
REMARK    3  A    between atoms: C3_4  and  C4_5 
REMARK       I    between atoms: C4_5  and  N2_7 
REMARK    4  A    between atoms: N2_7  and  C5_8 
REMARK    5  A    between atoms: N3_14  and  C11_15 
ROOT
HETATM    1  C5  UNL     1      24.388   1.980  51.708  1.00  0.00     0.037 A 
HETATM    2  C6  UNL     1      23.055   1.646  51.980  1.00  0.00     0.032 A 
HETATM    3  C7  UNL     1      22.020   2.559  51.883  1.00  0.00     0.036 A 
HETATM    4  C8  UNL     1      22.345   3.842  51.502  1.00  0.00     0.083 A 
HETATM    5  C9  UNL     1      23.666   4.128  51.239  1.00  0.00     0.066 A 
HETATM    6  C10 UNL     1      24.722   3.270  51.321  1.00  0.00     0.061 A 
HETATM    7  N3  UNL     1      23.913   5.469  50.767  1.00  0.00    -0.340 N 
HETATM    8  C17 UNL     1      22.984   6.573  50.918  1.00  0.00     0.176 C 
HETATM    9  C18 UNL     1      21.628   6.040  51.216  1.00  0.00     0.110 C 
HETATM   10  N4  UNL     1      21.298   4.802  51.488  1.00  0.00    -0.261 NA
ENDROOT
BRANCH   1  11
HETATM   11  N2  UNL     1      25.408   0.996  51.827  1.00  0.00    -0.316 N 
HETATM   12  C4  UNL     1      26.276   0.977  52.964  1.00  0.00     0.301 C 
HETATM   13  O1  UNL     1      26.196   1.817  53.918  1.00  0.00    -0.258 OA
HETATM   14  H5  UNL     1      25.512   0.285  51.069  1.00  0.00     0.170 HD
BRANCH  12  15
HETATM   15  C3  UNL     1      27.315  -0.008  53.108  1.00  0.00    -0.004 C 
HETATM   16  C2  UNL     1      28.204  -0.823  53.238  1.00  0.00    -0.067 C 
BRANCH  16  17
HETATM   17  C1  UNL     1      29.301  -1.801  53.410  1.00  0.00     0.360 C 
BRANCH  17  18
HETATM   18  N1  UNL     1      28.791  -3.141  53.255  1.00  0.00     0.089 N 
HETATM   19  H1  UNL     1      27.945  -3.336  53.797  1.00  0.00     0.313 HD
HETATM   20  H2  UNL     1      29.517  -3.878  53.282  1.00  0.00     0.313 HD
ENDBRANCH  17  18
ENDBRANCH  16  17
ENDBRANCH  12  15
ENDBRANCH   1  11
BRANCH   7  21
HETATM   21  C11 UNL     1      25.088   5.851  50.056  1.00  0.00     0.036 A 
HETATM   22  C12 UNL     1      25.867   5.050  49.248  1.00  0.00     0.033 A 
HETATM   23  C13 UNL     1      26.993   5.464  48.610  1.00  0.00     0.046 A 
HETATM   24  C14 UNL     1      27.426   6.760  48.744  1.00  0.00     0.138 A 
HETATM   25  F1  UNL     1      28.534   7.229  48.136  1.00  0.00    -0.204 F 
HETATM   26  C15 UNL     1      26.716   7.643  49.531  1.00  0.00     0.074 A 
HETATM   27 CL1  UNL     1      27.192   9.314  49.761  1.00  0.00    -0.081 Cl
HETATM   28  C16 UNL     1      25.589   7.153  50.146  1.00  0.00     0.056 A 
ENDBRANCH   7  21
TORSDOF 5
ENDMDL
MODEL 5
REMARK VINA RESULT:      -8.1      4.061      6.752
REMARK  5 active torsions:
REMARK  status: ('A' for Active; 'I' for Inactive)
REMARK    1  A    between atoms: N1_1  and  C1_2 
REMARK    2  A    between atoms: C1_2  and  C2_3 
REMARK    3  A    between atoms: C3_4  and  C4_5 
REMARK       I    between atoms: C4_5  and  N2_7 
REMARK    4  A    between atoms: N2_7  and  C5_8 
REMARK    5  A    between atoms: N3_14  and  C11_15 
ROOT
HETATM    1  C5  UNL     1      24.682   2.264  51.393  1.00  0.00     0.037 A 
HETATM    2  C6  UNL     1      25.073   3.598  51.227  1.00  0.00     0.032 A 
HETATM    3  C7  UNL     1      24.164   4.632  51.082  1.00  0.00     0.036 A 
HETATM    4  C8  UNL     1      22.827   4.303  51.106  1.00  0.00     0.083 A 
HETATM    5  C9  UNL     1      22.485   2.980  51.275  1.00  0.00     0.066 A 
HETATM    6  C10 UNL     1      23.337   1.925  51.420  1.00  0.00     0.061 A 
HETATM    7  N3  UNL     1      21.067   2.728  51.371  1.00  0.00    -0.340 N 
HETATM    8  C17 UNL     1      20.041   3.656  50.936  1.00  0.00     0.176 C 
HETATM    9  C18 UNL     1      20.630   5.014  50.798  1.00  0.00     0.110 C 
HETATM   10  N4  UNL     1      21.894   5.348  50.868  1.00  0.00    -0.261 NA
ENDROOT
BRANCH   1  11
HETATM   11  N2  UNL     1      25.666   1.246  51.536  1.00  0.00    -0.316 N 
HETATM   12  C4  UNL     1      26.321   1.033  52.790  1.00  0.00     0.301 C 
HETATM   13  O1  UNL     1      26.073   1.720  53.833  1.00  0.00    -0.258 OA
HETATM   14  H5  UNL     1      25.902   0.655  50.708  1.00  0.00     0.170 HD
BRANCH  12  15
HETATM   15  C3  UNL     1      27.318   0.010  52.960  1.00  0.00    -0.004 C 
HETATM   16  C2  UNL     1      28.161  -0.846  53.124  1.00  0.00    -0.067 C 
BRANCH  16  17
HETATM   17  C1  UNL     1      29.189  -1.888  53.349  1.00  0.00     0.360 C 
BRANCH  17  18
HETATM   18  N1  UNL     1      28.607  -3.195  53.171  1.00  0.00     0.089 N 
HETATM   19  H1  UNL     1      28.992  -3.725  52.385  1.00  0.00     0.313 HD
HETATM   20  H2  UNL     1      27.577  -3.217  53.263  1.00  0.00     0.313 HD
ENDBRANCH  17  18
ENDBRANCH  16  17
ENDBRANCH  12  15
ENDBRANCH   1  11
BRANCH   7  21
HETATM   21  C11 UNL     1      20.513   1.548  51.948  1.00  0.00     0.036 A 
HETATM   22  C12 UNL     1      19.356   0.902  51.568  1.00  0.00     0.033 A 
HETATM   23  C13 UNL     1      18.863  -0.212  52.170  1.00  0.00     0.046 A 
HETATM   24  C14 UNL     1      19.525  -0.772  53.235  1.00  0.00     0.138 A 
HETATM   25  F1  UNL     1      19.085  -1.875  53.873  1.00  0.00    -0.204 F 
HETATM   26  C15 UNL     1      20.693  -0.201  53.694  1.00  0.00     0.074 A 
HETATM   27 CL1  UNL     1      21.606  -0.844  55.045  1.00  0.00    -0.081 Cl
HETATM   28  C16 UNL     1      21.131   0.924  53.036  1.00  0.00     0.056 A 
ENDBRANCH   7  21
TORSDOF 5
ENDMDL
MODEL 6
REMARK VINA RESULT:      -8.0      3.727      5.591
REMARK  5 active torsions:
REMARK  status: ('A' for Active; 'I' for Inactive)
REMARK    1  A    between atoms: N1_1  and  C1_2 
REMARK    2  A    between atoms: C1_2  and  C2_3 
REMARK    3  A    between atoms: C3_4  and  C4_5 
REMARK       I    between atoms: C4_5  and  N2_7 
REMARK    4  A    between atoms: N2_7  and  C5_8 
REMARK    5  A    between atoms: N3_14  and  C11_15 
ROOT
HETATM    1  C5  UNL     1      25.985   2.129  51.799  1.00  0.00     0.037 A 
HETATM    2  C6  UNL     1      26.615   0.975  52.280  1.00  0.00     0.032 A 
HETATM    3  C7  UNL     1      25.930  -0.040  52.924  1.00  0.00     0.036 A 
HETATM    4  C8  UNL     1      24.571   0.121  53.083  1.00  0.00     0.083 A 
HETATM    5  C9  UNL     1      23.989   1.268  52.592  1.00  0.00     0.066 A 
HETATM    6  C10 UNL     1      24.616   2.297  51.953  1.00  0.00     0.061 A 
HETATM    7  N3  UNL     1      22.553   1.325  52.724  1.00  0.00    -0.340 N 
HETATM    8  C17 UNL     1      21.783   0.494  53.630  1.00  0.00     0.176 C 
HETATM    9  C18 UNL     1      22.606  -0.672  54.051  1.00  0.00     0.110 C 
HETATM   10  N4  UNL     1      23.879  -0.876  53.822  1.00  0.00    -0.261 NA
ENDROOT
BRANCH   1  11
HETATM   11  N2  UNL     1      26.747   3.137  51.146  1.00  0.00    -0.316 N 
HETATM   12  C4  UNL     1      26.412   3.565  49.822  1.00  0.00     0.301 C 
HETATM   13  O1  UNL     1      25.436   3.086  49.160  1.00  0.00    -0.258 OA
HETATM   14  H5  UNL     1      27.557   3.562  51.651  1.00  0.00     0.170 HD
BRANCH  12  15
HETATM   15  C3  UNL     1      27.167   4.583  49.141  1.00  0.00    -0.004 C 
HETATM   16  C2  UNL     1      27.820   5.437  48.580  1.00  0.00    -0.067 C 
BRANCH  16  17
HETATM   17  C1  UNL     1      28.637   6.472  47.906  1.00  0.00     0.360 C 
BRANCH  17  18
HETATM   18  N1  UNL     1      29.468   7.144  48.873  1.00  0.00     0.089 N 
HETATM   19  H1  UNL     1      29.115   7.106  49.833  1.00  0.00     0.313 HD
HETATM   20  H2  UNL     1      29.818   8.068  48.563  1.00  0.00     0.313 HD
ENDBRANCH  17  18
ENDBRANCH  16  17
ENDBRANCH  12  15
ENDBRANCH   1  11
BRANCH   7  21
HETATM   21  C11 UNL     1      21.722   2.179  51.944  1.00  0.00     0.036 A 
HETATM   22  C12 UNL     1      21.024   3.286  52.381  1.00  0.00     0.033 A 
HETATM   23  C13 UNL     1      20.227   4.054  51.593  1.00  0.00     0.046 A 
HETATM   24  C14 UNL     1      20.073   3.751  50.263  1.00  0.00     0.138 A 
HETATM   25  F1  UNL     1      19.296   4.475  49.432  1.00  0.00    -0.204 F 
HETATM   26  C15 UNL     1      20.728   2.663  49.726  1.00  0.00     0.074 A 
HETATM   27 CL1  UNL     1      20.592   2.199  48.041  1.00  0.00    -0.081 Cl
HETATM   28  C16 UNL     1      21.517   1.932  50.583  1.00  0.00     0.056 A 
ENDBRANCH   7  21
TORSDOF 5
ENDMDL
MODEL 7
REMARK VINA RESULT:      -8.0      4.869      6.803
REMARK  5 active torsions:
REMARK  status: ('A' for Active; 'I' for Inactive)
REMARK    1  A    between atoms: N1_1  and  C1_2 
REMARK    2  A    between atoms: C1_2  and  C2_3 
REMARK    3  A    between atoms: C3_4  and  C4_5 
REMARK       I    between atoms: C4_5  and  N2_7 
REMARK    4  A    between atoms: N2_7  and  C5_8 
REMARK    5  A    between atoms: N3_14  and  C11_15 
ROOT
HETATM    1  C5  UNL     1      23.109   0.042  53.811  1.00  0.00     0.037 A 
HETATM    2  C6  UNL     1      22.535  -0.954  54.611  1.00  0.00     0.032 A 
HETATM    3  C7  UNL     1      21.230  -1.385  54.449  1.00  0.00     0.036 A 
HETATM    4  C8  UNL     1      20.490  -0.790  53.451  1.00  0.00     0.083 A 
HETATM    5  C9  UNL     1      21.092   0.182  52.685  1.00  0.00     0.066 A 
HETATM    6  C10 UNL     1      22.369   0.644  52.802  1.00  0.00     0.061 A 
HETATM    7  N3  UNL     1      20.279   0.697  51.610  1.00  0.00    -0.340 N 
HETATM    8  C17 UNL     1      18.837   0.554  51.535  1.00  0.00     0.176 C 
HETATM    9  C18 UNL     1      18.401  -0.531  52.454  1.00  0.00     0.110 C 
HETATM   10  N4  UNL     1      19.124  -1.167  53.341  1.00  0.00    -0.261 NA
ENDROOT
BRANCH   1  11
HETATM   11  N2  UNL     1      24.457   0.442  54.028  1.00  0.00    -0.316 N 
HETATM   12  C4  UNL     1      25.538  -0.274  53.425  1.00  0.00     0.301 C 
HETATM   13  O1  UNL     1      25.371  -1.289  52.674  1.00  0.00    -0.258 OA
HETATM   14  H5  UNL     1      24.644   1.270  54.637  1.00  0.00     0.170 HD
BRANCH  12  15
HETATM   15  C3  UNL     1      26.909   0.110  53.629  1.00  0.00    -0.004 C 
HETATM   16  C2  UNL     1      28.071   0.423  53.783  1.00  0.00    -0.067 C 
BRANCH  16  17
HETATM   17  C1  UNL     1      29.494   0.796  53.949  1.00  0.00     0.360 C 
BRANCH  17  18
HETATM   18  N1  UNL     1      29.591   2.104  54.548  1.00  0.00     0.089 N 
HETATM   19  H1  UNL     1      28.804   2.351  55.153  1.00  0.00     0.313 HD
HETATM   20  H2  UNL     1      29.903   2.846  53.897  1.00  0.00     0.313 HD
ENDBRANCH  17  18
ENDBRANCH  16  17
ENDBRANCH  12  15
ENDBRANCH   1  11
BRANCH   7  21
HETATM   21  C11 UNL     1      20.810   1.371  50.472  1.00  0.00     0.036 A 
HETATM   22  C12 UNL     1      21.315   0.794  49.326  1.00  0.00     0.033 A 
HETATM   23  C13 UNL     1      21.830   1.489  48.277  1.00  0.00     0.046 A 
HETATM   24  C14 UNL     1      21.871   2.861  48.311  1.00  0.00     0.138 A 
HETATM   25  F1  UNL     1      22.369   3.604  47.302  1.00  0.00    -0.204 F 
HETATM   26  C15 UNL     1      21.389   3.535  49.413  1.00  0.00     0.074 A 
HETATM   27 CL1  UNL     1      21.400   5.282  49.546  1.00  0.00    -0.081 Cl
HETATM   28  C16 UNL     1      20.885   2.767  50.435  1.00  0.00     0.056 A 
ENDBRANCH   7  21
TORSDOF 5
ENDMDL
MODEL 8
REMARK VINA RESULT:      -8.0      3.606      6.429
REMARK  5 active torsions:
REMARK  status: ('A' for Active; 'I' for Inactive)
REMARK    1  A    between atoms: N1_1  and  C1_2 
REMARK    2  A    between atoms: C1_2  and  C2_3 
REMARK    3  A    between atoms: C3_4  and  C4_5 
REMARK       I    between atoms: C4_5  and  N2_7 
REMARK    4  A    between atoms: N2_7  and  C5_8 
REMARK    5  A    between atoms: N3_14  and  C11_15 
ROOT
HETATM    1  C5  UNL     1      23.281   0.610  53.140  1.00  0.00     0.037 A 
HETATM    2  C6  UNL     1      22.046   0.064  53.512  1.00  0.00     0.032 A 
HETATM    3  C7  UNL     1      20.841   0.692  53.252  1.00  0.00     0.036 A 
HETATM    4  C8  UNL     1      20.891   1.904  52.598  1.00  0.00     0.083 A 
HETATM    5  C9  UNL     1      22.124   2.404  52.247  1.00  0.00     0.066 A 
HETATM    6  C10 UNL     1      23.338   1.830  52.480  1.00  0.00     0.061 A 
HETATM    7  N3  UNL     1      22.088   3.636  51.495  1.00  0.00    -0.340 N 
HETATM    8  C17 UNL     1      20.941   4.522  51.433  1.00  0.00     0.176 C 
HETATM    9  C18 UNL     1      19.725   3.786  51.873  1.00  0.00     0.110 C 
HETATM   10  N4  UNL     1      19.663   2.593  52.410  1.00  0.00    -0.261 NA
ENDROOT
BRANCH   1  11
HETATM   11  N2  UNL     1      24.486  -0.085  53.437  1.00  0.00    -0.316 N 
HETATM   12  C4  UNL     1      25.661   0.117  52.646  1.00  0.00     0.301 C 
HETATM   13  O1  UNL     1      25.705   0.910  51.651  1.00  0.00    -0.258 OA
HETATM   14  H5  UNL     1      24.499  -0.746  54.246  1.00  0.00     0.170 HD
BRANCH  12  15
HETATM   15  C3  UNL     1      26.891  -0.573  52.927  1.00  0.00    -0.004 C 
HETATM   16  C2  UNL     1      27.926  -1.168  53.146  1.00  0.00    -0.067 C 
BRANCH  16  17
HETATM   17  C1  UNL     1      29.185  -1.906  53.392  1.00  0.00     0.360 C 
BRANCH  17  18
HETATM   18  N1  UNL     1      28.945  -3.325  53.309  1.00  0.00     0.089 N 
HETATM   19  H1  UNL     1      28.312  -3.689  54.026  1.00  0.00     0.313 HD
HETATM   20  H2  UNL     1      29.794  -3.890  53.136  1.00  0.00     0.313 HD
ENDBRANCH  17  18
ENDBRANCH  16  17
ENDBRANCH  12  15
ENDBRANCH   1  11
BRANCH   7  21
HETATM   21  C11 UNL     1      23.167   4.100  50.689  1.00  0.00     0.036 A 
HETATM   22  C12 UNL     1      23.819   3.405  49.692  1.00  0.00     0.033 A 
HETATM   23  C13 UNL     1      24.859   3.892  48.967  1.00  0.00     0.046 A 
HETATM   24  C14 UNL     1      25.332   5.159  49.204  1.00  0.00     0.138 A 
HETATM   25  F1  UNL     1      26.361   5.698  48.518  1.00  0.00    -0.204 F 
HETATM   26  C15 UNL     1      24.749   5.938  50.181  1.00  0.00     0.074 A 
HETATM   27 CL1  UNL     1      25.284   7.565  50.553  1.00  0.00    -0.081 Cl
HETATM   28  C16 UNL     1      23.702   5.379  50.873  1.00  0.00     0.056 A 
ENDBRANCH   7  21
TORSDOF 5
ENDMDL
MODEL 9
REMARK VINA RESULT:      -8.0      3.986      5.568
REMARK  5 active torsions:
REMARK  status: ('A' for Active; 'I' for Inactive)
REMARK    1  A    between atoms: N1_1  and  C1_2 
REMARK    2  A    between atoms: C1_2  and  C2_3 
REMARK    3  A    between atoms: C3_4  and  C4_5 
REMARK       I    between atoms: C4_5  and  N2_7 
REMARK    4  A    between atoms: N2_7  and  C5_8 
REMARK    5  A    between atoms: N3_14  and  C11_15 
ROOT
HETATM    1  C5  UNL     1      25.386   2.078  52.777  1.00  0.00     0.037 A 
HETATM    2  C6  UNL     1      26.450   1.510  53.488  1.00  0.00     0.032 A 
HETATM    3  C7  UNL     1      26.296   0.414  54.318  1.00  0.00     0.036 A 
HETATM    4  C8  UNL     1      25.031  -0.118  54.429  1.00  0.00     0.083 A 
HETATM    5  C9  UNL     1      24.013   0.467  53.711  1.00  0.00     0.066 A 
HETATM    6  C10 UNL     1      24.109   1.546  52.883  1.00  0.00     0.061 A 
HETATM    7  N3  UNL     1      22.736  -0.198  53.817  1.00  0.00    -0.340 N 
HETATM    8  C17 UNL     1      22.388  -1.138  54.865  1.00  0.00     0.176 C 
HETATM    9  C18 UNL     1      23.631  -1.628  55.520  1.00  0.00     0.110 C 
HETATM   10  N4  UNL     1      24.852  -1.187  55.348  1.00  0.00    -0.261 NA
ENDROOT
BRANCH   1  11
HETATM   11  N2  UNL     1      25.610   3.207  51.941  1.00  0.00    -0.316 N 
HETATM   12  C4  UNL     1      26.343   3.078  50.719  1.00  0.00     0.301 C 
HETATM   13  O1  UNL     1      26.829   1.974  50.310  1.00  0.00    -0.258 OA
HETATM   14  H5  UNL     1      25.229   4.134  52.234  1.00  0.00     0.170 HD
BRANCH  12  15
HETATM   15  C3  UNL     1      26.582   4.203  49.856  1.00  0.00    -0.004 C 
HETATM   16  C2  UNL     1      26.796   5.161  49.143  1.00  0.00    -0.067 C 
BRANCH  16  17
HETATM   17  C1  UNL     1      27.076   6.337  48.289  1.00  0.00     0.360 C 
BRANCH  17  18
HETATM   18  N1  UNL     1      28.011   7.212  48.952  1.00  0.00     0.089 N 
HETATM   19  H1  UNL     1      28.608   7.750  48.319  1.00  0.00     0.313 HD
HETATM   20  H2  UNL     1      28.492   6.783  49.761  1.00  0.00     0.313 HD
ENDBRANCH  17  18
ENDBRANCH  16  17
ENDBRANCH  12  15
ENDBRANCH   1  11
BRANCH   7  21
HETATM   21  C11 UNL     1      21.682  -0.035  52.872  1.00  0.00     0.036 A 
HETATM   22  C12 UNL     1      21.780   0.481  51.597  1.00  0.00     0.033 A 
HETATM   23  C13 UNL     1      20.733   0.632  50.744  1.00  0.00     0.046 A 
HETATM   24  C14 UNL     1      19.469   0.259  51.130  1.00  0.00     0.138 A 
HETATM   25  F1  UNL     1      18.392   0.385  50.329  1.00  0.00    -0.204 F 
HETATM   26  C15 UNL     1      19.263  -0.268  52.387  1.00  0.00     0.074 A 
HETATM   27 CL1  UNL     1      17.687  -0.771  52.967  1.00  0.00    -0.081 Cl
HETATM   28  C16 UNL     1      20.368  -0.391  53.195  1.00  0.00     0.056 A 
ENDBRANCH   7  21
TORSDOF 5
ENDMDL
