MODEL 1
REMARK VINA RESULT:      -7.9      0.000      0.000
REMARK  3 active torsions:
REMARK  status: ('A' for Active; 'I' for Inactive)
REMARK    1  A    between atoms: O1_2  and  C2_3 
REMARK    2  A    between atoms: N1_6  and  C5_7 
REMARK    3  A    between atoms: C13_19  and  O2_20 
ROOT
HETATM    1  C2  UNL     1      28.142   0.427  54.241  1.00  0.00     0.047 C 
HETATM    2  C3  UNL     1      27.027  -0.058  54.768  1.00  0.00     0.026 C 
HETATM    3  C4  UNL     1      25.636   0.390  54.686  1.00  0.00     0.171 C 
HETATM    4  N1  UNL     1      25.082   0.382  53.346  1.00  0.00    -0.206 N 
HETATM    5  C12 UNL     1      25.750   0.593  52.061  1.00  0.00     0.205 C 
HETATM    6  C13 UNL     1      26.467   1.910  52.029  1.00  0.00     0.060 C 
HETATM    7  C15 UNL     1      27.622   2.192  52.582  1.00  0.00     0.013 C 
HETATM    8  C16 UNL     1      28.665   1.521  53.385  1.00  0.00     0.093 C 
ENDROOT
BRANCH   4   9
HETATM    9  C5  UNL     1      23.686   0.132  53.272  1.00  0.00     0.709 A 
HETATM   10  N2  UNL     1      22.909   0.489  52.344  1.00  0.00    -0.063 NA
HETATM   11  C6  UNL     1      21.534   0.245  52.267  1.00  0.00     0.094 A 
HETATM   12  C7  UNL     1      20.969   0.768  51.124  1.00  0.00     0.035 A 
HETATM   13  C11 UNL     1      20.774  -0.432  53.193  1.00  0.00     0.053 A 
HETATM   14  C8  UNL     1      19.601   0.629  50.862  1.00  0.00     0.026 A 
HETATM   15  C9  UNL     1      18.836  -0.049  51.786  1.00  0.00     0.035 A 
HETATM   16 CL1  UNL     1      17.099  -0.294  51.576  1.00  0.00    -0.084 Cl
HETATM   17  C10 UNL     1      19.466  -0.545  52.907  1.00  0.00     0.046 A 
HETATM   18  S1  UNL     1      21.604  -1.071  54.641  1.00  0.00     0.004 SA
HETATM   19  N3  UNL     1      23.309  -0.584  54.407  1.00  0.00    -0.158 N 
HETATM   20  H10 UNL     1      23.676  -0.993  55.274  1.00  0.00     0.193 HD
ENDBRANCH   4   9
BRANCH   6  21
HETATM   21  O2  UNL     1      25.910   3.002  51.359  1.00  0.00    -0.359 OA
HETATM   22  C14 UNL     1      26.502   3.377  50.137  1.00  0.00     0.209 C 
ENDBRANCH   6  21
BRANCH   1  23
HETATM   23  O1  UNL     1      29.243  -0.367  54.613  1.00  0.00    -0.360 OA
HETATM   24  C1  UNL     1      29.883  -1.032  53.518  1.00  0.00     0.209 C 
ENDBRANCH   1  23
TORSDOF 3
ENDMDL
MODEL 2
REMARK VINA RESULT:      -7.8      4.323      7.051
REMARK  3 active torsions:
REMARK  status: ('A' for Active; 'I' for Inactive)
REMARK    1  A    between atoms: O1_2  and  C2_3 
REMARK    2  A    between atoms: N1_6  and  C5_7 
REMARK    3  A    between atoms: C13_19  and  O2_20 
ROOT
HETATM    1  C2  UNL     1      23.340  -0.219  53.433  1.00  0.00     0.047 C 
HETATM    2  C3  UNL     1      22.940   0.882  52.814  1.00  0.00     0.026 C 
HETATM    3  C4  UNL     1      23.550   2.206  52.689  1.00  0.00     0.171 C 
HETATM    4  N1  UNL     1      24.832   2.213  52.010  1.00  0.00    -0.206 N 
HETATM    5  C12 UNL     1      25.868   1.180  51.965  1.00  0.00     0.205 C 
HETATM    6  C13 UNL     1      26.316   0.797  53.344  1.00  0.00     0.060 C 
HETATM    7  C15 UNL     1      25.688   0.015  54.188  1.00  0.00     0.013 C 
HETATM    8  C16 UNL     1      24.442  -0.776  54.257  1.00  0.00     0.093 C 
ENDROOT
BRANCH   4   9
HETATM    9  C5  UNL     1      25.122   3.397  51.281  1.00  0.00     0.709 A 
HETATM   10  N2  UNL     1      26.073   3.563  50.469  1.00  0.00    -0.063 NA
HETATM   11  C6  UNL     1      26.362   4.727  49.750  1.00  0.00     0.094 A 
HETATM   12  C7  UNL     1      27.473   4.587  48.945  1.00  0.00     0.035 A 
HETATM   13  C11 UNL     1      25.659   5.909  49.796  1.00  0.00     0.053 A 
HETATM   14  C8  UNL     1      27.925   5.642  48.145  1.00  0.00     0.026 A 
HETATM   15  C9  UNL     1      27.223   6.828  48.187  1.00  0.00     0.035 A 
HETATM   16 CL1  UNL     1      27.690   8.235  47.227  1.00  0.00    -0.084 Cl
HETATM   17  C10 UNL     1      26.124   6.898  49.014  1.00  0.00     0.046 A 
HETATM   18  S1  UNL     1      24.234   5.986  50.872  1.00  0.00     0.004 SA
HETATM   19  N3  UNL     1      24.170   4.359  51.613  1.00  0.00    -0.158 N 
HETATM   20  H10 UNL     1      23.338   4.519  52.193  1.00  0.00     0.193 HD
ENDBRANCH   4   9
BRANCH   6  21
HETATM   21  O2  UNL     1      27.520   1.286  53.857  1.00  0.00    -0.359 OA
HETATM   22  C14 UNL     1      28.292   0.405  54.637  1.00  0.00     0.209 C 
ENDBRANCH   6  21
BRANCH   1  23
HETATM   23  O1  UNL     1      22.394  -1.247  53.261  1.00  0.00    -0.360 OA
HETATM   24  C1  UNL     1      21.738  -1.649  54.469  1.00  0.00     0.209 C 
ENDBRANCH   1  23
TORSDOF 3
ENDMDL
MODEL 3
REMARK VINA RESULT:      -7.5      2.011      2.660
REMARK  3 active torsions:
REMARK  status: ('A' for Active; 'I' for Inactive)
REMARK    1  A    between atoms: O1_2  and  C2_3 
REMARK    2  A    between atoms: N1_6  and  C5_7 
REMARK    3  A    between atoms: C13_19  and  O2_20 
ROOT
HETATM    1  C2  UNL     1      26.212  -0.051  53.907  1.00  0.00     0.047 C 
HETATM    2  C3  UNL     1      25.093  -0.751  53.797  1.00  0.00     0.026 C 
HETATM    3  C4  UNL     1      23.686  -0.348  53.812  1.00  0.00     0.171 C 
HETATM    4  N1  UNL     1      23.309   0.546  52.733  1.00  0.00    -0.206 N 
HETATM    5  C12 UNL     1      24.109   1.552  52.034  1.00  0.00     0.205 C 
HETATM    6  C13 UNL     1      24.692   2.547  52.993  1.00  0.00     0.060 C 
HETATM    7  C15 UNL     1      25.734   2.376  53.769  1.00  0.00     0.013 C 
HETATM    8  C16 UNL     1      26.729   1.329  54.083  1.00  0.00     0.093 C 
ENDROOT
BRANCH   4   9
HETATM    9  C5  UNL     1      21.964   0.424  52.291  1.00  0.00     0.709 A 
HETATM   10  N2  UNL     1      21.026  -0.162  52.898  1.00  0.00    -0.063 NA
HETATM   11  C6  UNL     1      19.702  -0.284  52.468  1.00  0.00     0.094 A 
HETATM   12  C7  UNL     1      18.920  -0.987  53.360  1.00  0.00     0.035 A 
HETATM   13  C11 UNL     1      19.176   0.215  51.298  1.00  0.00     0.053 A 
HETATM   14  C8  UNL     1      17.562  -1.216  53.110  1.00  0.00     0.026 A 
HETATM   15  C9  UNL     1      17.030  -0.717  51.940  1.00  0.00     0.035 A 
HETATM   16 CL1  UNL     1      15.333  -0.938  51.505  1.00  0.00    -0.084 Cl
HETATM   17  C10 UNL     1      17.870  -0.025  51.093  1.00  0.00     0.046 A 
HETATM   18  S1  UNL     1      20.274   1.112  50.210  1.00  0.00     0.004 SA
HETATM   19  N3  UNL     1      21.847   1.069  51.061  1.00  0.00    -0.158 N 
HETATM   20  H10 UNL     1      22.381   1.598  50.362  1.00  0.00     0.193 HD
ENDBRANCH   4   9
BRANCH   6  21
HETATM   21  O2  UNL     1      24.119   3.814  53.131  1.00  0.00    -0.359 OA
HETATM   22  C14 UNL     1      23.406   4.321  52.029  1.00  0.00     0.209 C 
ENDBRANCH   6  21
BRANCH   1  23
HETATM   23  O1  UNL     1      27.330  -0.902  53.832  1.00  0.00    -0.360 OA
HETATM   24  C1  UNL     1      28.552  -0.306  54.280  1.00  0.00     0.209 C 
ENDBRANCH   1  23
TORSDOF 3
ENDMDL
MODEL 4
REMARK VINA RESULT:      -7.5      4.099      7.253
REMARK  3 active torsions:
REMARK  status: ('A' for Active; 'I' for Inactive)
REMARK    1  A    between atoms: O1_2  and  C2_3 
REMARK    2  A    between atoms: N1_6  and  C5_7 
REMARK    3  A    between atoms: C13_19  and  O2_20 
ROOT
HETATM    1  C2  UNL     1      20.324  -0.121  53.458  1.00  0.00     0.047 C 
HETATM    2  C3  UNL     1      20.333   1.070  52.880  1.00  0.00     0.026 C 
HETATM    3  C4  UNL     1      21.349   2.122  52.832  1.00  0.00     0.171 C 
HETATM    4  N1  UNL     1      22.588   1.729  52.188  1.00  0.00    -0.206 N 
HETATM    5  C12 UNL     1      23.228   0.415  52.123  1.00  0.00     0.205 C 
HETATM    6  C13 UNL     1      23.470  -0.141  53.495  1.00  0.00     0.060 C 
HETATM    7  C15 UNL     1      22.587  -0.701  54.285  1.00  0.00     0.013 C 
HETATM    8  C16 UNL     1      21.148  -1.039  54.285  1.00  0.00     0.093 C 
ENDROOT
BRANCH   4   9
HETATM    9  C5  UNL     1      23.280   2.776  51.522  1.00  0.00     0.709 A 
HETATM   10  N2  UNL     1      24.399   2.687  50.947  1.00  0.00    -0.063 NA
HETATM   11  C6  UNL     1      25.084   3.715  50.291  1.00  0.00     0.094 A 
HETATM   12  C7  UNL     1      26.288   3.296  49.766  1.00  0.00     0.035 A 
HETATM   13  C11 UNL     1      24.660   5.017  50.150  1.00  0.00     0.053 A 
HETATM   14  C8  UNL     1      27.122   4.177  49.070  1.00  0.00     0.026 A 
HETATM   15  C9  UNL     1      26.701   5.482  48.926  1.00  0.00     0.035 A 
HETATM   16 CL1  UNL     1      27.660   6.694  48.072  1.00  0.00    -0.084 Cl
HETATM   17  C10 UNL     1      25.487   5.833  49.477  1.00  0.00     0.046 A 
HETATM   18  S1  UNL     1      23.084   5.458  50.868  1.00  0.00     0.004 SA
HETATM   19  N3  UNL     1      22.508   3.934  51.606  1.00  0.00    -0.158 N 
HETATM   20  H10 UNL     1      21.624   4.300  51.976  1.00  0.00     0.193 HD
ENDBRANCH   4   9
BRANCH   6  21
HETATM   21  O2  UNL     1      24.746  -0.095  54.061  1.00  0.00    -0.359 OA
HETATM   22  C14 UNL     1      25.839  -0.317  53.201  1.00  0.00     0.209 C 
ENDBRANCH   6  21
BRANCH   1  23
HETATM   23  O1  UNL     1      19.101  -0.774  53.215  1.00  0.00    -0.360 OA
HETATM   24  C1  UNL     1      18.396  -0.288  52.067  1.00  0.00     0.209 C 
ENDBRANCH   1  23
TORSDOF 3
ENDMDL
MODEL 5
REMARK VINA RESULT:      -7.5      4.188      6.625
REMARK  3 active torsions:
REMARK  status: ('A' for Active; 'I' for Inactive)
REMARK    1  A    between atoms: O1_2  and  C2_3 
REMARK    2  A    between atoms: N1_6  and  C5_7 
REMARK    3  A    between atoms: C13_19  and  O2_20 
ROOT
HETATM    1  C2  UNL     1      26.513  -0.135  53.696  1.00  0.00     0.047 C 
HETATM    2  C3  UNL     1      27.077   0.698  52.834  1.00  0.00     0.026 C 
HETATM    3  C4  UNL     1      26.549   1.381  51.653  1.00  0.00     0.171 C 
HETATM    4  N1  UNL     1      25.462   2.301  51.929  1.00  0.00    -0.206 N 
HETATM    5  C12 UNL     1      24.437   2.245  52.971  1.00  0.00     0.205 C 
HETATM    6  C13 UNL     1      23.669   0.958  52.912  1.00  0.00     0.060 C 
HETATM    7  C15 UNL     1      24.061  -0.214  53.349  1.00  0.00     0.013 C 
HETATM    8  C16 UNL     1      25.234  -0.819  54.013  1.00  0.00     0.093 C 
ENDROOT
BRANCH   4   9
HETATM    9  C5  UNL     1      25.383   3.421  51.057  1.00  0.00     0.709 A 
HETATM   10  N2  UNL     1      26.322   3.897  50.363  1.00  0.00    -0.063 NA
HETATM   11  C6  UNL     1      26.248   4.999  49.505  1.00  0.00     0.094 A 
HETATM   12  C7  UNL     1      27.452   5.269  48.890  1.00  0.00     0.035 A 
HETATM   13  C11 UNL     1      25.133   5.767  49.258  1.00  0.00     0.053 A 
HETATM   14  C8  UNL     1      27.584   6.334  47.992  1.00  0.00     0.026 A 
HETATM   15  C9  UNL     1      26.469   7.106  47.741  1.00  0.00     0.035 A 
HETATM   16 CL1  UNL     1      26.503   8.478  46.630  1.00  0.00    -0.084 Cl
HETATM   17  C10 UNL     1      25.299   6.779  48.391  1.00  0.00     0.046 A 
HETATM   18  S1  UNL     1      23.621   5.332  50.106  1.00  0.00     0.004 SA
HETATM   19  N3  UNL     1      24.079   3.912  51.094  1.00  0.00    -0.158 N 
HETATM   20  H10 UNL     1      23.159   3.756  51.523  1.00  0.00     0.193 HD
ENDBRANCH   4   9
BRANCH   6  21
HETATM   21  O2  UNL     1      22.393   0.922  52.345  1.00  0.00    -0.359 OA
HETATM   22  C14 UNL     1      21.332   0.513  53.175  1.00  0.00     0.209 C 
ENDBRANCH   6  21
BRANCH   1  23
HETATM   23  O1  UNL     1      27.443  -0.528  54.676  1.00  0.00    -0.360 OA
HETATM   24  C1  UNL     1      28.672   0.207  54.647  1.00  0.00     0.209 C 
ENDBRANCH   1  23
TORSDOF 3
ENDMDL
MODEL 6
REMARK VINA RESULT:      -7.4      4.031      5.316
REMARK  3 active torsions:
REMARK  status: ('A' for Active; 'I' for Inactive)
REMARK    1  A    between atoms: O1_2  and  C2_3 
REMARK    2  A    between atoms: N1_6  and  C5_7 
REMARK    3  A    between atoms: C13_19  and  O2_20 
ROOT
HETATM    1  C2  UNL     1      26.361   0.408  54.128  1.00  0.00     0.047 C 
HETATM    2  C3  UNL     1      26.667   1.257  53.158  1.00  0.00     0.026 C 
HETATM    3  C4  UNL     1      26.030   1.536  51.870  1.00  0.00     0.171 C 
HETATM    4  N1  UNL     1      24.674   2.041  51.970  1.00  0.00    -0.206 N 
HETATM    5  C12 UNL     1      23.653   1.773  52.984  1.00  0.00     0.205 C 
HETATM    6  C13 UNL     1      23.385   0.303  53.112  1.00  0.00     0.060 C 
HETATM    7  C15 UNL     1      24.122  -0.581  53.740  1.00  0.00     0.013 C 
HETATM    8  C16 UNL     1      25.376  -0.632  54.519  1.00  0.00     0.093 C 
ENDROOT
BRANCH   4   9
HETATM    9  C5  UNL     1      24.281   2.925  50.930  1.00  0.00     0.709 A 
HETATM   10  N2  UNL     1      23.563   2.638  49.934  1.00  0.00    -0.063 NA
HETATM   11  C6  UNL     1      23.175   3.505  48.908  1.00  0.00     0.094 A 
HETATM   12  C7  UNL     1      22.389   2.883  47.961  1.00  0.00     0.035 A 
HETATM   13  C11 UNL     1      23.505   4.837  48.798  1.00  0.00     0.053 A 
HETATM   14  C8  UNL     1      21.898   3.583  46.853  1.00  0.00     0.026 A 
HETATM   15  C9  UNL     1      22.225   4.918  46.739  1.00  0.00     0.035 A 
HETATM   16 CL1  UNL     1      21.671   5.913  45.390  1.00  0.00    -0.084 Cl
HETATM   17  C10 UNL     1      23.015   5.474  47.721  1.00  0.00     0.046 A 
HETATM   18  S1  UNL     1      24.528   5.547  50.079  1.00  0.00     0.004 SA
HETATM   19  N3  UNL     1      24.825   4.181  51.195  1.00  0.00    -0.158 N 
HETATM   20  H10 UNL     1      25.405   4.694  51.869  1.00  0.00     0.193 HD
ENDBRANCH   4   9
BRANCH   6  21
HETATM   21  O2  UNL     1      22.248  -0.261  52.528  1.00  0.00    -0.359 OA
HETATM   22  C14 UNL     1      21.143   0.587  52.320  1.00  0.00     0.209 C 
ENDBRANCH   6  21
BRANCH   1  23
HETATM   23  O1  UNL     1      27.289   0.512  55.180  1.00  0.00    -0.360 OA
HETATM   24  C1  UNL     1      28.645   0.265  54.791  1.00  0.00     0.209 C 
ENDBRANCH   1  23
TORSDOF 3
ENDMDL
MODEL 7
REMARK VINA RESULT:      -7.3      4.677      7.095
REMARK  3 active torsions:
REMARK  status: ('A' for Active; 'I' for Inactive)
REMARK    1  A    between atoms: O1_2  and  C2_3 
REMARK    2  A    between atoms: N1_6  and  C5_7 
REMARK    3  A    between atoms: C13_19  and  O2_20 
ROOT
HETATM    1  C2  UNL     1      21.898  -0.720  54.062  1.00  0.00     0.047 C 
HETATM    2  C3  UNL     1      23.041  -0.166  53.687  1.00  0.00     0.026 C 
HETATM    3  C4  UNL     1      23.413   0.586  52.488  1.00  0.00     0.171 C 
HETATM    4  N1  UNL     1      22.680   1.825  52.309  1.00  0.00    -0.206 N 
HETATM    5  C12 UNL     1      21.314   2.166  52.708  1.00  0.00     0.205 C 
HETATM    6  C13 UNL     1      20.321   1.201  52.132  1.00  0.00     0.060 C 
HETATM    7  C15 UNL     1      20.058  -0.009  52.563  1.00  0.00     0.013 C 
HETATM    8  C16 UNL     1      20.491  -0.928  53.635  1.00  0.00     0.093 C 
ENDROOT
BRANCH   4   9
HETATM    9  C5  UNL     1      23.396   2.859  51.648  1.00  0.00     0.709 A 
HETATM   10  N2  UNL     1      24.467   2.729  50.994  1.00  0.00    -0.063 NA
HETATM   11  C6  UNL     1      25.175   3.743  50.342  1.00  0.00     0.094 A 
HETATM   12  C7  UNL     1      26.311   3.275  49.716  1.00  0.00     0.035 A 
HETATM   13  C11 UNL     1      24.832   5.075  50.294  1.00  0.00     0.053 A 
HETATM   14  C8  UNL     1      27.156   4.137  49.008  1.00  0.00     0.026 A 
HETATM   15  C9  UNL     1      26.815   5.472  48.956  1.00  0.00     0.035 A 
HETATM   16 CL1  UNL     1      27.796   6.663  48.096  1.00  0.00    -0.084 Cl
HETATM   17  C10 UNL     1      25.667   5.870  49.605  1.00  0.00     0.046 A 
HETATM   18  S1  UNL     1      23.339   5.579  51.138  1.00  0.00     0.004 SA
HETATM   19  N3  UNL     1      22.712   4.058  51.841  1.00  0.00    -0.158 N 
HETATM   20  H10 UNL     1      21.880   4.461  52.288  1.00  0.00     0.193 HD
ENDBRANCH   4   9
BRANCH   6  21
HETATM   21  O2  UNL     1      19.557   1.555  51.018  1.00  0.00    -0.359 OA
HETATM   22  C14 UNL     1      18.283   0.967  50.898  1.00  0.00     0.209 C 
ENDBRANCH   6  21
BRANCH   1  23
HETATM   23  O1  UNL     1      22.043  -1.341  55.316  1.00  0.00    -0.360 OA
HETATM   24  C1  UNL     1      23.403  -1.561  55.707  1.00  0.00     0.209 C 
ENDBRANCH   1  23
TORSDOF 3
ENDMDL
MODEL 8
REMARK VINA RESULT:      -7.2      1.773      3.740
REMARK  3 active torsions:
REMARK  status: ('A' for Active; 'I' for Inactive)
REMARK    1  A    between atoms: O1_2  and  C2_3 
REMARK    2  A    between atoms: N1_6  and  C5_7 
REMARK    3  A    between atoms: C13_19  and  O2_20 
ROOT
HETATM    1  C2  UNL     1      25.503   3.501  50.328  1.00  0.00     0.047 C 
HETATM    2  C3  UNL     1      24.208   3.277  50.161  1.00  0.00     0.026 C 
HETATM    3  C4  UNL     1      23.393   2.079  50.358  1.00  0.00     0.171 C 
HETATM    4  N1  UNL     1      23.365   1.592  51.724  1.00  0.00    -0.206 N 
HETATM    5  C12 UNL     1      24.393   1.672  52.762  1.00  0.00     0.205 C 
HETATM    6  C13 UNL     1      25.681   1.057  52.302  1.00  0.00     0.060 C 
HETATM    7  C15 UNL     1      26.567   1.594  51.499  1.00  0.00     0.013 C 
HETATM    8  C16 UNL     1      26.770   2.846  50.742  1.00  0.00     0.093 C 
ENDROOT
BRANCH   4   9
HETATM    9  C5  UNL     1      22.161   0.942  52.109  1.00  0.00     0.709 A 
HETATM   10  N2  UNL     1      21.085   0.908  51.451  1.00  0.00    -0.063 NA
HETATM   11  C6  UNL     1      19.899   0.270  51.826  1.00  0.00     0.094 A 
HETATM   12  C7  UNL     1      18.901   0.419  50.887  1.00  0.00     0.035 A 
HETATM   13  C11 UNL     1      19.687  -0.441  52.985  1.00  0.00     0.053 A 
HETATM   14  C8  UNL     1      17.635  -0.148  51.077  1.00  0.00     0.026 A 
HETATM   15  C9  UNL     1      17.418  -0.862  52.236  1.00  0.00     0.035 A 
HETATM   16 CL1  UNL     1      15.868  -1.625  52.598  1.00  0.00    -0.084 Cl
HETATM   17  C10 UNL     1      18.460  -0.970  53.132  1.00  0.00     0.046 A 
HETATM   18  S1  UNL     1      21.046  -0.576  54.137  1.00  0.00     0.004 SA
HETATM   19  N3  UNL     1      22.366   0.338  53.348  1.00  0.00    -0.158 N 
HETATM   20  H10 UNL     1      23.072   0.195  54.080  1.00  0.00     0.193 HD
ENDBRANCH   4   9
BRANCH   6  21
HETATM   21  O2  UNL     1      26.047  -0.221  52.732  1.00  0.00    -0.359 OA
HETATM   22  C14 UNL     1      27.397  -0.421  53.078  1.00  0.00     0.209 C 
ENDBRANCH   6  21
BRANCH   1  23
HETATM   23  O1  UNL     1      25.815   4.834  50.003  1.00  0.00    -0.360 OA
HETATM   24  C1  UNL     1      26.805   4.971  48.978  1.00  0.00     0.209 C 
ENDBRANCH   1  23
TORSDOF 3
ENDMDL
MODEL 9
REMARK VINA RESULT:      -7.1      5.252      7.890
REMARK  3 active torsions:
REMARK  status: ('A' for Active; 'I' for Inactive)
REMARK    1  A    between atoms: O1_2  and  C2_3 
REMARK    2  A    between atoms: N1_6  and  C5_7 
REMARK    3  A    between atoms: C13_19  and  O2_20 
ROOT
HETATM    1  C2  UNL     1      22.231   0.836  53.124  1.00  0.00     0.047 C 
HETATM    2  C3  UNL     1      23.344   1.125  52.465  1.00  0.00     0.026 C 
HETATM    3  C4  UNL     1      23.605   2.022  51.339  1.00  0.00     0.171 C 
HETATM    4  N1  UNL     1      23.328   3.420  51.612  1.00  0.00    -0.206 N 
HETATM    5  C12 UNL     1      22.333   4.015  52.504  1.00  0.00     0.205 C 
HETATM    6  C13 UNL     1      20.949   3.546  52.168  1.00  0.00     0.060 C 
HETATM    7  C15 UNL     1      20.413   2.390  52.475  1.00  0.00     0.013 C 
HETATM    8  C16 UNL     1      20.780   1.145  53.181  1.00  0.00     0.093 C 
ENDROOT
BRANCH   4   9
HETATM    9  C5  UNL     1      24.145   4.345  50.908  1.00  0.00     0.709 A 
HETATM   10  N2  UNL     1      25.233   4.090  50.323  1.00  0.00    -0.063 NA
HETATM   11  C6  UNL     1      26.040   4.997  49.630  1.00  0.00     0.094 A 
HETATM   12  C7  UNL     1      27.168   4.405  49.103  1.00  0.00     0.035 A 
HETATM   13  C11 UNL     1      25.793   6.340  49.456  1.00  0.00     0.053 A 
HETATM   14  C8  UNL     1      28.103   5.146  48.373  1.00  0.00     0.026 A 
HETATM   15  C9  UNL     1      27.860   6.492  48.195  1.00  0.00     0.035 A 
HETATM   16 CL1  UNL     1      28.960   7.539  47.295  1.00  0.00    -0.084 Cl
HETATM   17  C10 UNL     1      26.713   7.018  48.750  1.00  0.00     0.046 A 
HETATM   18  S1  UNL     1      24.302   7.010  50.178  1.00  0.00     0.004 SA
HETATM   19  N3  UNL     1      23.538   5.599  50.967  1.00  0.00    -0.158 N 
HETATM   20  H10 UNL     1      22.716   6.091  51.336  1.00  0.00     0.193 HD
ENDBRANCH   4   9
BRANCH   6  21
HETATM   21  O2  UNL     1      20.078   4.370  51.452  1.00  0.00    -0.359 OA
HETATM   22  C14 UNL     1      19.310   3.768  50.437  1.00  0.00     0.209 C 
ENDBRANCH   6  21
BRANCH   1  23
HETATM   23  O1  UNL     1      22.494  -0.098  54.142  1.00  0.00    -0.360 OA
HETATM   24  C1  UNL     1      21.327  -0.749  54.657  1.00  0.00     0.209 C 
ENDBRANCH   1  23
TORSDOF 3
ENDMDL
