MODEL 1
REMARK VINA RESULT:      -8.0      0.000      0.000
REMARK  5 active torsions:
REMARK  status: ('A' for Active; 'I' for Inactive)
REMARK    1  A    between atoms: N1_6  and  C6_7 
REMARK    2  A    between atoms: C10_13  and  O1_14 
REMARK    3  A    between atoms: O1_14  and  O2_15 
REMARK    4  A    between atoms: C11_16  and  C12_17 
REMARK    5  A    between atoms: C12_17  and  N4_18 
ROOT
HETATM    1  C6  UNL     1      21.898   0.513  52.071  1.00  0.00     0.144 A 
HETATM    2  N2  UNL     1      20.546   0.336  52.144  1.00  0.00    -0.223 NA
HETATM    3  C7  UNL     1      20.013  -0.350  53.195  1.00  0.00     0.236 A 
HETATM    4  N3  UNL     1      20.753  -0.881  54.195  1.00  0.00    -0.241 NA
HETATM    5  C8  UNL     1      22.076  -0.702  54.114  1.00  0.00     0.075 A 
HETATM    6  C9  UNL     1      22.987  -1.189  55.053  1.00  0.00     0.073 A 
HETATM    7  C10 UNL     1      24.353  -0.996  54.942  1.00  0.00     0.116 A 
HETATM    8  C11 UNL     1      24.873  -0.292  53.859  1.00  0.00     0.007 A 
HETATM    9  C13 UNL     1      24.006   0.204  52.909  1.00  0.00     0.029 A 
HETATM   10  C14 UNL     1      22.671  -0.019  53.077  1.00  0.00     0.040 A 
ENDROOT
BRANCH   1  11
HETATM   11  N1  UNL     1      22.239   1.282  50.920  1.00  0.00    -0.333 N 
HETATM   12  C5  UNL     1      21.479   0.786  49.800  1.00  0.00     0.093 A 
HETATM   13  C4  UNL     1      21.615   1.313  48.592  1.00  0.00     0.018 A 
HETATM   14  C3  UNL     1      22.531   2.414  48.325  1.00  0.00     0.006 A 
HETATM   15  C2  UNL     1      23.196   2.822  49.394  1.00  0.00    -0.061 A 
HETATM   16  C1  UNL     1      24.166   3.935  49.280  1.00  0.00     0.045 C 
HETATM   17  C15 UNL     1      23.176   2.378  50.799  1.00  0.00     0.115 A 
HETATM   18  C16 UNL     1      22.782   3.516  51.734  1.00  0.00     0.037 C 
ENDBRANCH   1  11
BRANCH   8  19
HETATM   19  C12 UNL     1      26.345  -0.112  53.782  1.00  0.00     0.308 C 
BRANCH  19  20
HETATM   20  N4  UNL     1      26.913   0.530  54.927  1.00  0.00     0.082 N 
HETATM   21  H12 UNL     1      27.715   1.121  54.658  1.00  0.00     0.313 HD
HETATM   22  H13 UNL     1      26.175   1.162  55.335  1.00  0.00     0.313 HD
ENDBRANCH  19  20
ENDBRANCH   8  19
BRANCH   7  23
HETATM   23  O1  UNL     1      25.217  -1.490  55.886  1.00  0.00    -0.199 OA
BRANCH  23  24
HETATM   24  O2  UNL     1      25.213  -1.226  57.184  1.00  0.00    -0.245 OA
HETATM   25  H9  UNL     1      25.869  -0.573  57.479  1.00  0.00     0.254 HD
ENDBRANCH  23  24
ENDBRANCH   7  23
TORSDOF 5
ENDMDL
MODEL 2
REMARK VINA RESULT:      -7.6      2.196      4.174
REMARK  5 active torsions:
REMARK  status: ('A' for Active; 'I' for Inactive)
REMARK    1  A    between atoms: N1_6  and  C6_7 
REMARK    2  A    between atoms: C10_13  and  O1_14 
REMARK    3  A    between atoms: O1_14  and  O2_15 
REMARK    4  A    between atoms: C11_16  and  C12_17 
REMARK    5  A    between atoms: C12_17  and  N4_18 
ROOT
HETATM    1  C6  UNL     1      24.002   2.307  51.293  1.00  0.00     0.144 A 
HETATM    2  N2  UNL     1      24.410   3.202  50.346  1.00  0.00    -0.223 NA
HETATM    3  C7  UNL     1      25.740   3.335  50.074  1.00  0.00     0.236 A 
HETATM    4  N3  UNL     1      26.706   2.621  50.695  1.00  0.00    -0.241 NA
HETATM    5  C8  UNL     1      26.296   1.747  51.621  1.00  0.00     0.075 A 
HETATM    6  C9  UNL     1      27.158   0.936  52.363  1.00  0.00     0.073 A 
HETATM    7  C10 UNL     1      26.708   0.045  53.320  1.00  0.00     0.116 A 
HETATM    8  C11 UNL     1      25.345  -0.072  53.581  1.00  0.00     0.007 A 
HETATM    9  C13 UNL     1      24.462   0.711  52.870  1.00  0.00     0.029 A 
HETATM   10  C14 UNL     1      24.968   1.569  51.939  1.00  0.00     0.040 A 
ENDROOT
BRANCH   1  11
HETATM   11  N1  UNL     1      22.581   2.302  51.396  1.00  0.00    -0.333 N 
HETATM   12  C5  UNL     1      22.167   3.519  52.046  1.00  0.00     0.093 A 
HETATM   13  C4  UNL     1      20.888   3.768  52.287  1.00  0.00     0.018 A 
HETATM   14  C3  UNL     1      19.833   2.835  51.913  1.00  0.00     0.006 A 
HETATM   15  C2  UNL     1      20.280   1.740  51.319  1.00  0.00    -0.061 A 
HETATM   16  C1  UNL     1      19.325   0.696  50.881  1.00  0.00     0.045 C 
HETATM   17  C15 UNL     1      21.637   1.293  50.961  1.00  0.00     0.115 A 
HETATM   18  C16 UNL     1      21.766   1.062  49.459  1.00  0.00     0.037 C 
ENDBRANCH   1  11
BRANCH   8  19
HETATM   19  C12 UNL     1      24.911  -1.042  54.618  1.00  0.00     0.308 C 
BRANCH  19  20
HETATM   20  N4  UNL     1      25.507  -0.826  55.902  1.00  0.00     0.082 N 
HETATM   21  H12 UNL     1      26.349  -0.237  55.823  1.00  0.00     0.313 HD
HETATM   22  H13 UNL     1      24.807  -0.304  56.492  1.00  0.00     0.313 HD
ENDBRANCH  19  20
ENDBRANCH   8  19
BRANCH   7  23
HETATM   23  O1  UNL     1      27.587  -0.736  54.029  1.00  0.00    -0.199 OA
BRANCH  23  24
HETATM   24  O2  UNL     1      28.386  -0.345  55.010  1.00  0.00    -0.245 OA
HETATM   25  H9  UNL     1      28.832   0.506  54.872  1.00  0.00     0.254 HD
ENDBRANCH  23  24
ENDBRANCH   7  23
TORSDOF 5
ENDMDL
MODEL 3
REMARK VINA RESULT:      -7.5      2.758      6.031
REMARK  5 active torsions:
REMARK  status: ('A' for Active; 'I' for Inactive)
REMARK    1  A    between atoms: N1_6  and  C6_7 
REMARK    2  A    between atoms: C10_13  and  O1_14 
REMARK    3  A    between atoms: O1_14  and  O2_15 
REMARK    4  A    between atoms: C11_16  and  C12_17 
REMARK    5  A    between atoms: C12_17  and  N4_18 
ROOT
HETATM    1  C6  UNL     1      25.843   1.215  52.179  1.00  0.00     0.144 A 
HETATM    2  N2  UNL     1      26.298   2.071  51.217  1.00  0.00    -0.223 NA
HETATM    3  C7  UNL     1      25.406   2.821  50.509  1.00  0.00     0.236 A 
HETATM    4  N3  UNL     1      24.069   2.773  50.700  1.00  0.00    -0.241 NA
HETATM    5  C8  UNL     1      23.634   1.931  51.644  1.00  0.00     0.075 A 
HETATM    6  C9  UNL     1      22.287   1.749  51.966  1.00  0.00     0.073 A 
HETATM    7  C10 UNL     1      21.863   0.866  52.943  1.00  0.00     0.116 A 
HETATM    8  C11 UNL     1      22.793   0.110  53.652  1.00  0.00     0.007 A 
HETATM    9  C13 UNL     1      24.132   0.260  53.364  1.00  0.00     0.029 A 
HETATM   10  C14 UNL     1      24.486   1.148  52.391  1.00  0.00     0.040 A 
ENDROOT
BRANCH   1  11
HETATM   11  N1  UNL     1      26.935   0.558  52.818  1.00  0.00    -0.333 N 
HETATM   12  C5  UNL     1      27.403   1.393  53.894  1.00  0.00     0.093 A 
HETATM   13  C4  UNL     1      28.429   1.029  54.649  1.00  0.00     0.018 A 
HETATM   14  C3  UNL     1      29.140  -0.225  54.438  1.00  0.00     0.006 A 
HETATM   15  C2  UNL     1      28.660  -0.945  53.437  1.00  0.00    -0.061 A 
HETATM   16  C1  UNL     1      29.280  -2.247  53.100  1.00  0.00     0.045 C 
HETATM   17  C15 UNL     1      27.542  -0.719  52.505  1.00  0.00     0.115 A 
HETATM   18  C16 UNL     1      26.506  -1.834  52.602  1.00  0.00     0.037 C 
ENDBRANCH   1  11
BRANCH   8  19
HETATM   19  C12 UNL     1      22.290  -0.826  54.690  1.00  0.00     0.308 C 
BRANCH  19  20
HETATM   20  N4  UNL     1      21.398  -1.826  54.188  1.00  0.00     0.082 N 
HETATM   21  H12 UNL     1      20.946  -2.338  54.960  1.00  0.00     0.313 HD
HETATM   22  H13 UNL     1      20.641  -1.332  53.646  1.00  0.00     0.313 HD
ENDBRANCH  19  20
ENDBRANCH   8  19
BRANCH   7  23
HETATM   23  O1  UNL     1      20.530   0.716  53.231  1.00  0.00    -0.199 OA
BRANCH  23  24
HETATM   24  O2  UNL     1      19.632   0.053  52.518  1.00  0.00    -0.245 OA
HETATM   25  H9  UNL     1      18.726   0.402  52.559  1.00  0.00     0.254 HD
ENDBRANCH  23  24
ENDBRANCH   7  23
TORSDOF 5
ENDMDL
MODEL 4
REMARK VINA RESULT:      -7.5      2.926      5.442
REMARK  5 active torsions:
REMARK  status: ('A' for Active; 'I' for Inactive)
REMARK    1  A    between atoms: N1_6  and  C6_7 
REMARK    2  A    between atoms: C10_13  and  O1_14 
REMARK    3  A    between atoms: O1_14  and  O2_15 
REMARK    4  A    between atoms: C11_16  and  C12_17 
REMARK    5  A    between atoms: C12_17  and  N4_18 
ROOT
HETATM    1  C6  UNL     1      24.311  -0.500  54.183  1.00  0.00     0.144 A 
HETATM    2  N2  UNL     1      24.025  -1.424  55.148  1.00  0.00    -0.223 NA
HETATM    3  C7  UNL     1      22.728  -1.643  55.506  1.00  0.00     0.236 A 
HETATM    4  N3  UNL     1      21.679  -0.990  54.958  1.00  0.00    -0.241 NA
HETATM    5  C8  UNL     1      21.970  -0.087  54.014  1.00  0.00     0.075 A 
HETATM    6  C9  UNL     1      21.012   0.682  53.350  1.00  0.00     0.073 A 
HETATM    7  C10 UNL     1      21.340   1.615  52.382  1.00  0.00     0.116 A 
HETATM    8  C11 UNL     1      22.672   1.820  52.033  1.00  0.00     0.007 A 
HETATM    9  C13 UNL     1      23.648   1.081  52.666  1.00  0.00     0.029 A 
HETATM   10  C14 UNL     1      23.259   0.177  53.610  1.00  0.00     0.040 A 
ENDROOT
BRANCH   1  11
HETATM   11  N1  UNL     1      25.714  -0.454  53.937  1.00  0.00    -0.333 N 
HETATM   12  C5  UNL     1      26.043  -1.478  52.978  1.00  0.00     0.093 A 
HETATM   13  C4  UNL     1      27.291  -1.669  52.579  1.00  0.00     0.018 A 
HETATM   14  C3  UNL     1      28.397  -0.865  53.083  1.00  0.00     0.006 A 
HETATM   15  C2  UNL     1      28.028   0.056  53.957  1.00  0.00    -0.061 A 
HETATM   16  C1  UNL     1      29.042   0.952  54.558  1.00  0.00     0.045 C 
HETATM   17  C15 UNL     1      26.713   0.424  54.510  1.00  0.00     0.115 A 
HETATM   18  C16 UNL     1      26.372   1.879  54.207  1.00  0.00     0.037 C 
ENDBRANCH   1  11
BRANCH   8  19
HETATM   19  C12 UNL     1      22.975   2.833  50.990  1.00  0.00     0.308 C 
BRANCH  19  20
HETATM   20  N4  UNL     1      22.612   4.169  51.353  1.00  0.00     0.082 N 
HETATM   21  H12 UNL     1      21.609   4.229  51.581  1.00  0.00     0.313 HD
HETATM   22  H13 UNL     1      23.153   4.419  52.223  1.00  0.00     0.313 HD
ENDBRANCH  19  20
ENDBRANCH   8  19
BRANCH   7  23
HETATM   23  O1  UNL     1      20.369   2.352  51.751  1.00  0.00    -0.199 OA
BRANCH  23  24
HETATM   24  O2  UNL     1      19.669   3.351  52.265  1.00  0.00    -0.245 OA
HETATM   25  H9  UNL     1      18.729   3.166  52.421  1.00  0.00     0.254 HD
ENDBRANCH  23  24
ENDBRANCH   7  23
TORSDOF 5
ENDMDL
MODEL 5
REMARK VINA RESULT:      -7.5      1.980      2.734
REMARK  5 active torsions:
REMARK  status: ('A' for Active; 'I' for Inactive)
REMARK    1  A    between atoms: N1_6  and  C6_7 
REMARK    2  A    between atoms: C10_13  and  O1_14 
REMARK    3  A    between atoms: O1_14  and  O2_15 
REMARK    4  A    between atoms: C11_16  and  C12_17 
REMARK    5  A    between atoms: C12_17  and  N4_18 
ROOT
HETATM    1  C6  UNL     1      23.726   1.739  51.878  1.00  0.00     0.144 A 
HETATM    2  N2  UNL     1      22.486   1.168  51.881  1.00  0.00    -0.223 NA
HETATM    3  C7  UNL     1      22.278   0.014  52.577  1.00  0.00     0.236 A 
HETATM    4  N3  UNL     1      23.242  -0.619  53.283  1.00  0.00    -0.241 NA
HETATM    5  C8  UNL     1      24.453  -0.051  53.275  1.00  0.00     0.075 A 
HETATM    6  C9  UNL     1      25.563  -0.573  53.942  1.00  0.00     0.073 A 
HETATM    7  C10 UNL     1      26.808   0.030  53.911  1.00  0.00     0.116 A 
HETATM    8  C11 UNL     1      26.996   1.207  53.192  1.00  0.00     0.007 A 
HETATM    9  C13 UNL     1      25.925   1.755  52.519  1.00  0.00     0.029 A 
HETATM   10  C14 UNL     1      24.724   1.113  52.590  1.00  0.00     0.040 A 
ENDROOT
BRANCH   1  11
HETATM   11  N1  UNL     1      23.717   2.948  51.123  1.00  0.00    -0.333 N 
HETATM   12  C5  UNL     1      23.410   2.627  49.753  1.00  0.00     0.093 A 
HETATM   13  C4  UNL     1      23.354   3.569  48.824  1.00  0.00     0.018 A 
HETATM   14  C3  UNL     1      23.597   4.973  49.128  1.00  0.00     0.006 A 
HETATM   15  C2  UNL     1      23.872   5.200  50.402  1.00  0.00    -0.061 A 
HETATM   16  C1  UNL     1      24.143   6.580  50.865  1.00  0.00     0.045 C 
HETATM   17  C15 UNL     1      23.970   4.303  51.567  1.00  0.00     0.115 A 
HETATM   18  C16 UNL     1      22.976   4.697  52.654  1.00  0.00     0.037 C 
ENDBRANCH   1  11
BRANCH   8  19
HETATM   19  C12 UNL     1      28.350   1.817  53.187  1.00  0.00     0.308 C 
BRANCH  19  20
HETATM   20  N4  UNL     1      28.865   2.101  54.492  1.00  0.00     0.082 N 
HETATM   21  H12 UNL     1      28.492   1.439  55.188  1.00  0.00     0.313 HD
HETATM   22  H13 UNL     1      29.910   1.971  54.455  1.00  0.00     0.313 HD
ENDBRANCH  19  20
ENDBRANCH   8  19
BRANCH   7  23
HETATM   23  O1  UNL     1      27.875  -0.514  54.580  1.00  0.00    -0.199 OA
BRANCH  23  24
HETATM   24  O2  UNL     1      28.878  -1.201  54.054  1.00  0.00    -0.245 OA
HETATM   25  H9  UNL     1      29.515  -1.563  54.691  1.00  0.00     0.254 HD
ENDBRANCH  23  24
ENDBRANCH   7  23
TORSDOF 5
ENDMDL
MODEL 6
REMARK VINA RESULT:      -7.4      2.035      3.860
REMARK  5 active torsions:
REMARK  status: ('A' for Active; 'I' for Inactive)
REMARK    1  A    between atoms: N1_6  and  C6_7 
REMARK    2  A    between atoms: C10_13  and  O1_14 
REMARK    3  A    between atoms: O1_14  and  O2_15 
REMARK    4  A    between atoms: C11_16  and  C12_17 
REMARK    5  A    between atoms: C12_17  and  N4_18 
ROOT
HETATM    1  C6  UNL     1      24.904   2.464  51.650  1.00  0.00     0.144 A 
HETATM    2  N2  UNL     1      26.253   2.585  51.479  1.00  0.00    -0.223 NA
HETATM    3  C7  UNL     1      27.089   1.679  52.060  1.00  0.00     0.236 A 
HETATM    4  N3  UNL     1      26.661   0.641  52.814  1.00  0.00    -0.241 NA
HETATM    5  C8  UNL     1      25.338   0.531  52.976  1.00  0.00     0.075 A 
HETATM    6  C9  UNL     1      24.726  -0.474  53.728  1.00  0.00     0.073 A 
HETATM    7  C10 UNL     1      23.354  -0.560  53.886  1.00  0.00     0.116 A 
HETATM    8  C11 UNL     1      22.521   0.378  53.283  1.00  0.00     0.007 A 
HETATM    9  C13 UNL     1      23.086   1.386  52.532  1.00  0.00     0.029 A 
HETATM   10  C14 UNL     1      24.444   1.416  52.414  1.00  0.00     0.040 A 
ENDROOT
BRANCH   1  11
HETATM   11  N1  UNL     1      24.216   3.488  50.935  1.00  0.00    -0.333 N 
HETATM   12  C5  UNL     1      23.806   2.956  49.661  1.00  0.00     0.093 A 
HETATM   13  C4  UNL     1      23.158   3.706  48.782  1.00  0.00     0.018 A 
HETATM   14  C3  UNL     1      22.823   5.099  49.048  1.00  0.00     0.006 A 
HETATM   15  C2  UNL     1      23.226   5.523  50.235  1.00  0.00    -0.061 A 
HETATM   16  C1  UNL     1      22.958   6.920  50.649  1.00  0.00     0.045 C 
HETATM   17  C15 UNL     1      23.939   4.852  51.335  1.00  0.00     0.115 A 
HETATM   18  C16 UNL     1      23.119   4.870  52.620  1.00  0.00     0.037 C 
ENDBRANCH   1  11
BRANCH   8  19
HETATM   19  C12 UNL     1      21.055   0.244  53.482  1.00  0.00     0.308 C 
BRANCH  19  20
HETATM   20  N4  UNL     1      20.653   0.231  54.855  1.00  0.00     0.082 N 
HETATM   21  H12 UNL     1      20.556   1.191  55.220  1.00  0.00     0.313 HD
HETATM   22  H13 UNL     1      19.705  -0.226  54.904  1.00  0.00     0.313 HD
ENDBRANCH  19  20
ENDBRANCH   8  19
BRANCH   7  23
HETATM   23  O1  UNL     1      22.789  -1.563  54.633  1.00  0.00    -0.199 OA
BRANCH  23  24
HETATM   24  O2  UNL     1      22.985  -1.803  55.921  1.00  0.00    -0.245 OA
HETATM   25  H9  UNL     1      22.183  -1.833  56.467  1.00  0.00     0.254 HD
ENDBRANCH  23  24
ENDBRANCH   7  23
TORSDOF 5
ENDMDL
MODEL 7
REMARK VINA RESULT:      -7.4      3.628      6.393
REMARK  5 active torsions:
REMARK  status: ('A' for Active; 'I' for Inactive)
REMARK    1  A    between atoms: N1_6  and  C6_7 
REMARK    2  A    between atoms: C10_13  and  O1_14 
REMARK    3  A    between atoms: O1_14  and  O2_15 
REMARK    4  A    between atoms: C11_16  and  C12_17 
REMARK    5  A    between atoms: C12_17  and  N4_18 
ROOT
HETATM    1  C6  UNL     1      25.043   0.467  52.703  1.00  0.00     0.144 A 
HETATM    2  N2  UNL     1      24.080  -0.329  53.255  1.00  0.00    -0.223 NA
HETATM    3  C7  UNL     1      22.785  -0.198  52.850  1.00  0.00     0.236 A 
HETATM    4  N3  UNL     1      22.379   0.690  51.915  1.00  0.00    -0.241 NA
HETATM    5  C8  UNL     1      23.329   1.465  51.381  1.00  0.00     0.075 A 
HETATM    6  C9  UNL     1      23.086   2.440  50.411  1.00  0.00     0.073 A 
HETATM    7  C10 UNL     1      24.086   3.234  49.880  1.00  0.00     0.116 A 
HETATM    8  C11 UNL     1      25.402   3.082  50.309  1.00  0.00     0.007 A 
HETATM    9  C13 UNL     1      25.683   2.131  51.267  1.00  0.00     0.029 A 
HETATM   10  C14 UNL     1      24.653   1.379  51.750  1.00  0.00     0.040 A 
ENDROOT
BRANCH   1  11
HETATM   11  N1  UNL     1      26.324   0.145  53.239  1.00  0.00    -0.333 N 
HETATM   12  C5  UNL     1      26.486   0.847  54.486  1.00  0.00     0.093 A 
HETATM   13  C4  UNL     1      27.602   0.741  55.193  1.00  0.00     0.018 A 
HETATM   14  C3  UNL     1      28.721  -0.083  54.756  1.00  0.00     0.006 A 
HETATM   15  C2  UNL     1      28.507  -0.701  53.606  1.00  0.00    -0.061 A 
HETATM   16  C1  UNL     1      29.555  -1.577  53.032  1.00  0.00     0.045 C 
HETATM   17  C15 UNL     1      27.351  -0.717  52.693  1.00  0.00     0.115 A 
HETATM   18  C16 UNL     1      26.811  -2.131  52.507  1.00  0.00     0.037 C 
ENDBRANCH   1  11
BRANCH   8  19
HETATM   19  C12 UNL     1      26.441   3.958  49.711  1.00  0.00     0.308 C 
BRANCH  19  20
HETATM   20  N4  UNL     1      26.248   5.352  49.973  1.00  0.00     0.082 N 
HETATM   21  H12 UNL     1      25.296   5.532  50.326  1.00  0.00     0.313 HD
HETATM   22  H13 UNL     1      26.927   5.629  50.730  1.00  0.00     0.313 HD
ENDBRANCH  19  20
ENDBRANCH   8  19
BRANCH   7  23
HETATM   23  O1  UNL     1      23.807   4.181  48.927  1.00  0.00    -0.199 OA
BRANCH  23  24
HETATM   24  O2  UNL     1      23.195   5.341  49.113  1.00  0.00    -0.245 OA
HETATM   25  H9  UNL     1      22.617   5.388  49.891  1.00  0.00     0.254 HD
ENDBRANCH  23  24
ENDBRANCH   7  23
TORSDOF 5
ENDMDL
MODEL 8
REMARK VINA RESULT:      -6.8      2.205      3.911
REMARK  5 active torsions:
REMARK  status: ('A' for Active; 'I' for Inactive)
REMARK    1  A    between atoms: N1_6  and  C6_7 
REMARK    2  A    between atoms: C10_13  and  O1_14 
REMARK    3  A    between atoms: O1_14  and  O2_15 
REMARK    4  A    between atoms: C11_16  and  C12_17 
REMARK    5  A    between atoms: C12_17  and  N4_18 
ROOT
HETATM    1  C6  UNL     1      24.010   2.623  50.625  1.00  0.00     0.144 A 
HETATM    2  N2  UNL     1      24.756   3.460  49.844  1.00  0.00    -0.223 NA
HETATM    3  C7  UNL     1      26.111   3.482  49.986  1.00  0.00     0.236 A 
HETATM    4  N3  UNL     1      26.785   2.713  50.871  1.00  0.00    -0.241 NA
HETATM    5  C8  UNL     1      26.046   1.897  51.631  1.00  0.00     0.075 A 
HETATM    6  C9  UNL     1      26.575   1.042  52.600  1.00  0.00     0.073 A 
HETATM    7  C10 UNL     1      25.788   0.213  53.378  1.00  0.00     0.116 A 
HETATM    8  C11 UNL     1      24.405   0.207  53.215  1.00  0.00     0.007 A 
HETATM    9  C13 UNL     1      23.843   1.038  52.269  1.00  0.00     0.029 A 
HETATM   10  C14 UNL     1      24.674   1.830  51.533  1.00  0.00     0.040 A 
ENDROOT
BRANCH   1  11
HETATM   11  N1  UNL     1      22.628   2.730  50.293  1.00  0.00    -0.333 N 
HETATM   12  C5  UNL     1      22.265   1.597  49.481  1.00  0.00     0.093 A 
HETATM   13  C4  UNL     1      21.034   1.454  49.014  1.00  0.00     0.018 A 
HETATM   14  C3  UNL     1      19.982   2.423  49.292  1.00  0.00     0.006 A 
HETATM   15  C2  UNL     1      20.380   3.437  50.043  1.00  0.00    -0.061 A 
HETATM   16  C1  UNL     1      19.422   4.505  50.410  1.00  0.00     0.045 C 
HETATM   17  C15 UNL     1      21.680   3.763  50.656  1.00  0.00     0.115 A 
HETATM   18  C16 UNL     1      21.567   3.868  52.173  1.00  0.00     0.037 C 
ENDBRANCH   1  11
BRANCH   8  19
HETATM   19  C12 UNL     1      23.601  -0.699  54.074  1.00  0.00     0.308 C 
BRANCH  19  20
HETATM   20  N4  UNL     1      22.390  -1.156  53.465  1.00  0.00     0.082 N 
HETATM   21  H12 UNL     1      22.332  -2.185  53.488  1.00  0.00     0.313 HD
HETATM   22  H13 UNL     1      21.586  -0.779  54.033  1.00  0.00     0.313 HD
ENDBRANCH  19  20
ENDBRANCH   8  19
BRANCH   7  23
HETATM   23  O1  UNL     1      26.346  -0.614  54.320  1.00  0.00    -0.199 OA
BRANCH  23  24
HETATM   24  O2  UNL     1      27.528  -0.477  54.899  1.00  0.00    -0.245 OA
HETATM   25  H9  UNL     1      27.524  -0.017  55.754  1.00  0.00     0.254 HD
ENDBRANCH  23  24
ENDBRANCH   7  23
TORSDOF 5
ENDMDL
MODEL 9
REMARK VINA RESULT:      -6.6      1.875      2.625
REMARK  5 active torsions:
REMARK  status: ('A' for Active; 'I' for Inactive)
REMARK    1  A    between atoms: N1_6  and  C6_7 
REMARK    2  A    between atoms: C10_13  and  O1_14 
REMARK    3  A    between atoms: O1_14  and  O2_15 
REMARK    4  A    between atoms: C11_16  and  C12_17 
REMARK    5  A    between atoms: C12_17  and  N4_18 
ROOT
HETATM    1  C6  UNL     1      20.851   0.860  52.198  1.00  0.00     0.144 A 
HETATM    2  N2  UNL     1      19.740   0.201  52.641  1.00  0.00    -0.223 NA
HETATM    3  C7  UNL     1      19.869  -0.778  53.581  1.00  0.00     0.236 A 
HETATM    4  N3  UNL     1      21.052  -1.151  54.117  1.00  0.00    -0.241 NA
HETATM    5  C8  UNL     1      22.135  -0.500  53.676  1.00  0.00     0.075 A 
HETATM    6  C9  UNL     1      23.434  -0.762  54.115  1.00  0.00     0.073 A 
HETATM    7  C10 UNL     1      24.538  -0.079  53.637  1.00  0.00     0.116 A 
HETATM    8  C11 UNL     1      24.381   0.918  52.677  1.00  0.00     0.007 A 
HETATM    9  C13 UNL     1      23.115   1.206  52.217  1.00  0.00     0.029 A 
HETATM   10  C14 UNL     1      22.068   0.497  52.729  1.00  0.00     0.040 A 
ENDROOT
BRANCH   1  11
HETATM   11  N1  UNL     1      20.492   1.861  51.249  1.00  0.00    -0.333 N 
HETATM   12  C5  UNL     1      20.471   3.137  51.919  1.00  0.00     0.093 A 
HETATM   13  C4  UNL     1      20.149   4.246  51.271  1.00  0.00     0.018 A 
HETATM   14  C3  UNL     1      19.800   4.245  49.857  1.00  0.00     0.006 A 
HETATM   15  C2  UNL     1      19.840   3.044  49.302  1.00  0.00    -0.061 A 
HETATM   16  C1  UNL     1      19.509   2.882  47.868  1.00  0.00     0.045 C 
HETATM   17  C15 UNL     1      20.178   1.716  49.843  1.00  0.00     0.115 A 
HETATM   18  C16 UNL     1      21.357   1.098  49.099  1.00  0.00     0.037 C 
ENDBRANCH   1  11
BRANCH   8  19
HETATM   19  C12 UNL     1      25.596   1.622  52.194  1.00  0.00     0.308 C 
BRANCH  19  20
HETATM   20  N4  UNL     1      26.208   2.467  53.174  1.00  0.00     0.082 N 
HETATM   21  H12 UNL     1      26.114   3.460  52.914  1.00  0.00     0.313 HD
HETATM   22  H13 UNL     1      25.692   2.324  54.082  1.00  0.00     0.313 HD
ENDBRANCH  19  20
ENDBRANCH   8  19
BRANCH   7  23
HETATM   23  O1  UNL     1      25.800  -0.365  54.094  1.00  0.00    -0.199 OA
BRANCH  23  24
HETATM   24  O2  UNL     1      26.552  -1.402  53.758  1.00  0.00    -0.245 OA
HETATM   25  H9  UNL     1      26.188  -1.975  53.064  1.00  0.00     0.254 HD
ENDBRANCH  23  24
ENDBRANCH   7  23
TORSDOF 5
ENDMDL
