MODEL 1
REMARK VINA RESULT:      -7.2      0.000      0.000
REMARK  6 active torsions:
REMARK  status: ('A' for Active; 'I' for Inactive)
REMARK    1  A    between atoms: C2_2  and  C3_3 
REMARK    2  A    between atoms: C4_5  and  C5_6 
REMARK    3  A    between atoms: C6_7  and  C7_8 
REMARK    4  A    between atoms: N1_12  and  N2_13 
REMARK    5  A    between atoms: C10_14  and  C11_15 
REMARK    6  A    between atoms: C14_18  and  O1_19 
ROOT
HETATM    1  C7  UNL     1      21.690   1.303  49.921  1.00  0.00     0.060 C 
HETATM    2  C8  UNL     1      21.526   1.199  48.611  1.00  0.00     0.077 C 
HETATM    3  S1  UNL     1      22.511   2.528  47.871  1.00  0.00    -0.117 SA
HETATM    4  C9  UNL     1      23.539   2.794  49.373  1.00  0.00     0.229 C 
HETATM    5  N1  UNL     1      22.525   2.345  50.345  1.00  0.00    -0.260 N 
ENDROOT
BRANCH   5   6
HETATM    6  N2  UNL     1      22.459   2.968  51.599  1.00  0.00    -0.183 NA
HETATM    7  C10 UNL     1      23.167   2.701  52.611  1.00  0.00     0.150 C 
BRANCH   7   8
HETATM    8  C11 UNL     1      24.235   1.819  53.063  1.00  0.00    -0.017 A 
HETATM    9  C12 UNL     1      23.985   0.465  53.078  1.00  0.00     0.015 A 
HETATM   10  C13 UNL     1      25.059  -0.302  53.521  1.00  0.00     0.037 A 
HETATM   11  C14 UNL     1      26.272   0.230  53.914  1.00  0.00     0.068 A 
HETATM   12  C16 UNL     1      26.416   1.610  53.859  1.00  0.00     0.037 A 
HETATM   13  C17 UNL     1      25.394   2.463  53.428  1.00  0.00     0.015 A 
BRANCH  11  14
HETATM   14  O1  UNL     1      27.322  -0.563  54.352  1.00  0.00    -0.356 OA
HETATM   15  C15 UNL     1      28.583  -0.014  54.681  1.00  0.00     0.210 C 
ENDBRANCH  11  14
ENDBRANCH   7   8
ENDBRANCH   5   6
BRANCH   1  16
HETATM   16  C6  UNL     1      21.041   0.390  50.857  1.00  0.00     0.032 C 
HETATM   17  C5  UNL     1      19.830   0.698  51.292  1.00  0.00     0.004 C 
BRANCH  17  18
HETATM   18  C4  UNL     1      19.110  -0.152  52.224  1.00  0.00     0.024 C 
HETATM   19  C3  UNL     1      17.922  -0.676  52.025  1.00  0.00     0.033 C 
HETATM   20 CL1  UNL     1      17.112  -0.333  50.497  1.00  0.00    -0.084 Cl
BRANCH  19  21
HETATM   21  C2  UNL     1      17.257  -1.522  53.008  1.00  0.00     0.013 C 
HETATM   22  C1  UNL     1      17.925  -2.494  53.645  1.00  0.00     0.013 C 
ENDBRANCH  19  21
ENDBRANCH  17  18
ENDBRANCH   1  16
TORSDOF 6
ENDMDL
MODEL 2
REMARK VINA RESULT:      -6.9      1.476      1.773
REMARK  6 active torsions:
REMARK  status: ('A' for Active; 'I' for Inactive)
REMARK    1  A    between atoms: C2_2  and  C3_3 
REMARK    2  A    between atoms: C4_5  and  C5_6 
REMARK    3  A    between atoms: C6_7  and  C7_8 
REMARK    4  A    between atoms: N1_12  and  N2_13 
REMARK    5  A    between atoms: C10_14  and  C11_15 
REMARK    6  A    between atoms: C14_18  and  O1_19 
ROOT
HETATM    1  C7  UNL     1      21.853   1.680  49.835  1.00  0.00     0.060 C 
HETATM    2  C8  UNL     1      21.602   1.968  48.568  1.00  0.00     0.077 C 
HETATM    3  S1  UNL     1      22.656   3.382  48.152  1.00  0.00    -0.117 SA
HETATM    4  C9  UNL     1      23.792   3.134  49.578  1.00  0.00     0.229 C 
HETATM    5  N1  UNL     1      22.802   2.496  50.465  1.00  0.00    -0.260 N 
ENDROOT
BRANCH   5   6
HETATM    6  N2  UNL     1      22.867   2.737  51.845  1.00  0.00    -0.183 NA
HETATM    7  C10 UNL     1      23.639   2.174  52.671  1.00  0.00     0.150 C 
BRANCH   7   8
HETATM    8  C11 UNL     1      24.694   1.172  52.757  1.00  0.00    -0.017 A 
HETATM    9  C12 UNL     1      25.869   1.420  52.084  1.00  0.00     0.015 A 
HETATM   10  C13 UNL     1      26.821   0.414  52.221  1.00  0.00     0.037 A 
HETATM   11  C14 UNL     1      26.620  -0.736  52.961  1.00  0.00     0.068 A 
HETATM   12  C16 UNL     1      25.397  -0.884  53.599  1.00  0.00     0.037 A 
HETATM   13  C17 UNL     1      24.378   0.072  53.521  1.00  0.00     0.015 A 
BRANCH  11  14
HETATM   14  O1  UNL     1      27.590  -1.722  53.077  1.00  0.00    -0.356 OA
HETATM   15  C15 UNL     1      28.944  -1.409  53.335  1.00  0.00     0.210 C 
ENDBRANCH  11  14
ENDBRANCH   7   8
ENDBRANCH   5   6
BRANCH   1  16
HETATM   16  C6  UNL     1      21.181   0.584  50.528  1.00  0.00     0.032 C 
HETATM   17  C5  UNL     1      20.017   0.831  51.107  1.00  0.00     0.004 C 
BRANCH  17  18
HETATM   18  C4  UNL     1      19.279  -0.199  51.817  1.00  0.00     0.024 C 
HETATM   19  C3  UNL     1      19.402  -0.493  53.091  1.00  0.00     0.033 C 
HETATM   20 CL1  UNL     1      20.560   0.433  54.045  1.00  0.00    -0.084 Cl
BRANCH  19  21
HETATM   21  C2  UNL     1      18.626  -1.543  53.738  1.00  0.00     0.013 C 
HETATM   22  C1  UNL     1      17.462  -1.958  53.220  1.00  0.00     0.013 C 
ENDBRANCH  19  21
ENDBRANCH  17  18
ENDBRANCH   1  16
TORSDOF 6
ENDMDL
MODEL 3
REMARK VINA RESULT:      -6.7      3.902      6.436
REMARK  6 active torsions:
REMARK  status: ('A' for Active; 'I' for Inactive)
REMARK    1  A    between atoms: C2_2  and  C3_3 
REMARK    2  A    between atoms: C4_5  and  C5_6 
REMARK    3  A    between atoms: C6_7  and  C7_8 
REMARK    4  A    between atoms: N1_12  and  N2_13 
REMARK    5  A    between atoms: C10_14  and  C11_15 
REMARK    6  A    between atoms: C14_18  and  O1_19 
ROOT
HETATM    1  C7  UNL     1      23.385   3.090  50.051  1.00  0.00     0.060 C 
HETATM    2  C8  UNL     1      22.655   2.272  49.310  1.00  0.00     0.077 C 
HETATM    3  S1  UNL     1      21.013   2.226  50.076  1.00  0.00    -0.117 SA
HETATM    4  C9  UNL     1      21.264   3.773  51.039  1.00  0.00     0.229 C 
HETATM    5  N1  UNL     1      22.729   3.658  51.152  1.00  0.00    -0.260 N 
ENDROOT
BRANCH   5   6
HETATM    6  N2  UNL     1      23.362   4.109  52.319  1.00  0.00    -0.183 NA
HETATM    7  C10 UNL     1      24.133   3.441  53.064  1.00  0.00     0.150 C 
BRANCH   7   8
HETATM    8  C11 UNL     1      24.735   2.121  53.202  1.00  0.00    -0.017 A 
HETATM    9  C12 UNL     1      23.906   1.026  53.102  1.00  0.00     0.015 A 
HETATM   10  C13 UNL     1      24.563  -0.193  53.245  1.00  0.00     0.037 A 
HETATM   11  C14 UNL     1      25.922  -0.312  53.468  1.00  0.00     0.068 A 
HETATM   12  C16 UNL     1      26.663   0.859  53.552  1.00  0.00     0.037 A 
HETATM   13  C17 UNL     1      26.093   2.130  53.421  1.00  0.00     0.015 A 
BRANCH  11  14
HETATM   14  O1  UNL     1      26.546  -1.542  53.607  1.00  0.00    -0.356 OA
HETATM   15  C15 UNL     1      27.084  -2.235  52.498  1.00  0.00     0.210 C 
ENDBRANCH  11  14
ENDBRANCH   7   8
ENDBRANCH   5   6
BRANCH   1  16
HETATM   16  C6  UNL     1      24.781   3.379  49.738  1.00  0.00     0.032 C 
HETATM   17  C5  UNL     1      25.085   4.590  49.298  1.00  0.00     0.004 C 
BRANCH  17  18
HETATM   18  C4  UNL     1      26.447   4.965  48.963  1.00  0.00     0.024 C 
HETATM   19  C3  UNL     1      26.834   6.142  48.523  1.00  0.00     0.033 C 
HETATM   20 CL1  UNL     1      25.608   7.391  48.316  1.00  0.00    -0.084 Cl
BRANCH  19  21
HETATM   21  C2  UNL     1      28.224   6.448  48.206  1.00  0.00     0.013 C 
HETATM   22  C1  UNL     1      29.172   5.505  48.281  1.00  0.00     0.013 C 
ENDBRANCH  19  21
ENDBRANCH  17  18
ENDBRANCH   1  16
TORSDOF 6
ENDMDL
MODEL 4
REMARK VINA RESULT:      -6.7      3.693      6.186
REMARK  6 active torsions:
REMARK  status: ('A' for Active; 'I' for Inactive)
REMARK    1  A    between atoms: C2_2  and  C3_3 
REMARK    2  A    between atoms: C4_5  and  C5_6 
REMARK    3  A    between atoms: C6_7  and  C7_8 
REMARK    4  A    between atoms: N1_12  and  N2_13 
REMARK    5  A    between atoms: C10_14  and  C11_15 
REMARK    6  A    between atoms: C14_18  and  O1_19 
ROOT
HETATM    1  C7  UNL     1      22.074   3.361  50.167  1.00  0.00     0.060 C 
HETATM    2  C8  UNL     1      21.247   4.345  49.847  1.00  0.00     0.077 C 
HETATM    3  S1  UNL     1      19.767   4.114  50.867  1.00  0.00    -0.117 SA
HETATM    4  C9  UNL     1      20.603   3.011  52.079  1.00  0.00     0.229 C 
HETATM    5  N1  UNL     1      21.605   2.471  51.143  1.00  0.00    -0.260 N 
ENDROOT
BRANCH   5   6
HETATM    6  N2  UNL     1      22.019   1.138  51.280  1.00  0.00    -0.183 NA
HETATM    7  C10 UNL     1      23.103   0.735  51.788  1.00  0.00     0.150 C 
BRANCH   7   8
HETATM    8  C11 UNL     1      24.330   1.220  52.406  1.00  0.00    -0.017 A 
HETATM    9  C12 UNL     1      24.248   2.344  53.197  1.00  0.00     0.015 A 
HETATM   10  C13 UNL     1      25.465   2.735  53.748  1.00  0.00     0.037 A 
HETATM   11  C14 UNL     1      26.656   2.069  53.531  1.00  0.00     0.068 A 
HETATM   12  C16 UNL     1      26.624   0.946  52.716  1.00  0.00     0.037 A 
HETATM   13  C17 UNL     1      25.450   0.475  52.118  1.00  0.00     0.015 A 
BRANCH  11  14
HETATM   14  O1  UNL     1      27.853   2.486  54.095  1.00  0.00    -0.356 OA
HETATM   15  C15 UNL     1      29.049   1.750  53.935  1.00  0.00     0.210 C 
ENDBRANCH  11  14
ENDBRANCH   7   8
ENDBRANCH   5   6
BRANCH   1  16
HETATM   16  C6  UNL     1      23.385   3.218  49.542  1.00  0.00     0.032 C 
HETATM   17  C5  UNL     1      24.346   4.051  49.907  1.00  0.00     0.004 C 
BRANCH  17  18
HETATM   18  C4  UNL     1      25.680   3.981  49.339  1.00  0.00     0.024 C 
HETATM   19  C3  UNL     1      26.504   4.993  49.183  1.00  0.00     0.033 C 
HETATM   20 CL1  UNL     1      25.962   6.587  49.705  1.00  0.00    -0.084 Cl
BRANCH  19  21
HETATM   21  C2  UNL     1      27.833   4.847  48.603  1.00  0.00     0.013 C 
HETATM   22  C1  UNL     1      28.514   5.915  48.167  1.00  0.00     0.013 C 
ENDBRANCH  19  21
ENDBRANCH  17  18
ENDBRANCH   1  16
TORSDOF 6
ENDMDL
MODEL 5
REMARK VINA RESULT:      -6.7      3.551      6.031
REMARK  6 active torsions:
REMARK  status: ('A' for Active; 'I' for Inactive)
REMARK    1  A    between atoms: C2_2  and  C3_3 
REMARK    2  A    between atoms: C4_5  and  C5_6 
REMARK    3  A    between atoms: C6_7  and  C7_8 
REMARK    4  A    between atoms: N1_12  and  N2_13 
REMARK    5  A    between atoms: C10_14  and  C11_15 
REMARK    6  A    between atoms: C14_18  and  O1_19 
ROOT
HETATM    1  C7  UNL     1      21.977   1.444  51.844  1.00  0.00     0.060 C 
HETATM    2  C8  UNL     1      21.178   0.481  51.412  1.00  0.00     0.077 C 
HETATM    3  S1  UNL     1      20.212   1.196  50.055  1.00  0.00    -0.117 SA
HETATM    4  C9  UNL     1      21.365   2.605  49.790  1.00  0.00     0.229 C 
HETATM    5  N1  UNL     1      21.862   2.670  51.176  1.00  0.00    -0.260 N 
ENDROOT
BRANCH   5   6
HETATM    6  N2  UNL     1      22.182   3.919  51.728  1.00  0.00    -0.183 NA
HETATM    7  C10 UNL     1      23.220   4.601  51.496  1.00  0.00     0.150 C 
BRANCH   7   8
HETATM    8  C11 UNL     1      24.455   4.583  50.724  1.00  0.00    -0.017 A 
HETATM    9  C12 UNL     1      24.769   5.705  49.990  1.00  0.00     0.015 A 
HETATM   10  C13 UNL     1      25.965   5.602  49.285  1.00  0.00     0.037 A 
HETATM   11  C14 UNL     1      26.775   4.482  49.307  1.00  0.00     0.068 A 
HETATM   12  C16 UNL     1      26.362   3.406  50.081  1.00  0.00     0.037 A 
HETATM   13  C17 UNL     1      25.177   3.416  50.825  1.00  0.00     0.015 A 
BRANCH  11  14
HETATM   14  O1  UNL     1      27.961   4.411  48.592  1.00  0.00    -0.356 OA
HETATM   15  C15 UNL     1      28.710   5.566  48.273  1.00  0.00     0.210 C 
ENDBRANCH  11  14
ENDBRANCH   7   8
ENDBRANCH   5   6
BRANCH   1  16
HETATM   16  C6  UNL     1      22.914   1.237  52.944  1.00  0.00     0.032 C 
HETATM   17  C5  UNL     1      24.064   0.638  52.680  1.00  0.00     0.004 C 
BRANCH  17  18
HETATM   18  C4  UNL     1      25.056   0.392  53.712  1.00  0.00     0.024 C 
HETATM   19  C3  UNL     1      26.333   0.155  53.510  1.00  0.00     0.033 C 
HETATM   20 CL1  UNL     1      26.917   0.131  51.847  1.00  0.00    -0.084 Cl
BRANCH  19  21
HETATM   21  C2  UNL     1      27.273  -0.085  54.598  1.00  0.00     0.013 C 
HETATM   22  C1  UNL     1      28.493   0.468  54.588  1.00  0.00     0.013 C 
ENDBRANCH  19  21
ENDBRANCH  17  18
ENDBRANCH   1  16
TORSDOF 6
ENDMDL
MODEL 6
REMARK VINA RESULT:      -6.6      4.805      7.499
REMARK  6 active torsions:
REMARK  status: ('A' for Active; 'I' for Inactive)
REMARK    1  A    between atoms: C2_2  and  C3_3 
REMARK    2  A    between atoms: C4_5  and  C5_6 
REMARK    3  A    between atoms: C6_7  and  C7_8 
REMARK    4  A    between atoms: N1_12  and  N2_13 
REMARK    5  A    between atoms: C10_14  and  C11_15 
REMARK    6  A    between atoms: C14_18  and  O1_19 
ROOT
HETATM    1  C7  UNL     1      23.943   5.562  49.608  1.00  0.00     0.060 C 
HETATM    2  C8  UNL     1      23.547   6.820  49.494  1.00  0.00     0.077 C 
HETATM    3  S1  UNL     1      22.035   6.967  50.483  1.00  0.00    -0.117 SA
HETATM    4  C9  UNL     1      22.352   5.435  51.452  1.00  0.00     0.229 C 
HETATM    5  N1  UNL     1      23.135   4.745  50.410  1.00  0.00    -0.260 N 
ENDROOT
BRANCH   5   6
HETATM    6  N2  UNL     1      23.029   3.352  50.288  1.00  0.00    -0.183 NA
HETATM    7  C10 UNL     1      23.761   2.489  50.851  1.00  0.00     0.150 C 
BRANCH   7   8
HETATM    8  C11 UNL     1      24.897   2.362  51.754  1.00  0.00    -0.017 A 
HETATM    9  C12 UNL     1      24.642   2.352  53.107  1.00  0.00     0.015 A 
HETATM   10  C13 UNL     1      25.783   2.226  53.895  1.00  0.00     0.037 A 
HETATM   11  C14 UNL     1      27.062   2.120  53.382  1.00  0.00     0.068 A 
HETATM   12  C16 UNL     1      27.204   2.141  52.002  1.00  0.00     0.037 A 
HETATM   13  C17 UNL     1      26.118   2.264  51.128  1.00  0.00     0.015 A 
BRANCH  11  14
HETATM   14  O1  UNL     1      28.179   1.997  54.195  1.00  0.00    -0.356 OA
HETATM   15  C15 UNL     1      28.717   0.735  54.536  1.00  0.00     0.210 C 
ENDBRANCH  11  14
ENDBRANCH   7   8
ENDBRANCH   5   6
BRANCH   1  16
HETATM   16  C6  UNL     1      25.141   5.064  48.941  1.00  0.00     0.032 C 
HETATM   17  C5  UNL     1      26.316   5.518  49.346  1.00  0.00     0.004 C 
BRANCH  17  18
HETATM   18  C4  UNL     1      27.560   5.077  48.741  1.00  0.00     0.024 C 
HETATM   19  C3  UNL     1      28.553   5.854  48.371  1.00  0.00     0.033 C 
HETATM   20 CL1  UNL     1      28.382   7.590  48.624  1.00  0.00    -0.084 Cl
BRANCH  19  21
HETATM   21  C2  UNL     1      29.776   5.340  47.767  1.00  0.00     0.013 C 
HETATM   22  C1  UNL     1      30.940   5.987  47.912  1.00  0.00     0.013 C 
ENDBRANCH  19  21
ENDBRANCH  17  18
ENDBRANCH   1  16
TORSDOF 6
ENDMDL
MODEL 7
REMARK VINA RESULT:      -6.5      3.049      6.472
REMARK  6 active torsions:
REMARK  status: ('A' for Active; 'I' for Inactive)
REMARK    1  A    between atoms: C2_2  and  C3_3 
REMARK    2  A    between atoms: C4_5  and  C5_6 
REMARK    3  A    between atoms: C6_7  and  C7_8 
REMARK    4  A    between atoms: N1_12  and  N2_13 
REMARK    5  A    between atoms: C10_14  and  C11_15 
REMARK    6  A    between atoms: C14_18  and  O1_19 
ROOT
HETATM    1  C7  UNL     1      23.960   3.752  50.650  1.00  0.00     0.060 C 
HETATM    2  C8  UNL     1      24.183   5.007  51.007  1.00  0.00     0.077 C 
HETATM    3  S1  UNL     1      22.650   5.910  50.665  1.00  0.00    -0.117 SA
HETATM    4  C9  UNL     1      21.610   4.394  50.582  1.00  0.00     0.229 C 
HETATM    5  N1  UNL     1      22.683   3.486  50.139  1.00  0.00    -0.260 N 
ENDROOT
BRANCH   5   6
HETATM    6  N2  UNL     1      22.372   2.441  49.258  1.00  0.00    -0.183 NA
HETATM    7  C10 UNL     1      21.643   1.438  49.506  1.00  0.00     0.150 C 
BRANCH   7   8
HETATM    8  C11 UNL     1      20.847   0.834  50.566  1.00  0.00    -0.017 A 
HETATM    9  C12 UNL     1      21.510   0.376  51.683  1.00  0.00     0.015 A 
HETATM   10  C13 UNL     1      20.674  -0.185  52.645  1.00  0.00     0.037 A 
HETATM   11  C14 UNL     1      19.302  -0.281  52.508  1.00  0.00     0.068 A 
HETATM   12  C16 UNL     1      18.738   0.214  51.340  1.00  0.00     0.037 A 
HETATM   13  C17 UNL     1      19.495   0.795  50.316  1.00  0.00     0.015 A 
BRANCH  11  14
HETATM   14  O1  UNL     1      18.497  -0.846  53.485  1.00  0.00    -0.356 OA
HETATM   15  C15 UNL     1      17.440  -1.727  53.163  1.00  0.00     0.210 C 
ENDBRANCH  11  14
ENDBRANCH   7   8
ENDBRANCH   5   6
BRANCH   1  16
HETATM   16  C6  UNL     1      24.981   2.717  50.781  1.00  0.00     0.032 C 
HETATM   17  C5  UNL     1      24.911   1.898  51.818  1.00  0.00     0.004 C 
BRANCH  17  18
HETATM   18  C4  UNL     1      25.882   0.839  52.029  1.00  0.00     0.024 C 
HETATM   19  C3  UNL     1      25.738  -0.188  52.835  1.00  0.00     0.033 C 
HETATM   20 CL1  UNL     1      24.238  -0.313  53.754  1.00  0.00    -0.084 Cl
BRANCH  19  21
HETATM   21  C2  UNL     1      26.759  -1.215  52.997  1.00  0.00     0.013 C 
HETATM   22  C1  UNL     1      28.051  -0.887  53.132  1.00  0.00     0.013 C 
ENDBRANCH  19  21
ENDBRANCH  17  18
ENDBRANCH   1  16
TORSDOF 6
ENDMDL
MODEL 8
REMARK VINA RESULT:      -6.4      1.947      2.353
REMARK  6 active torsions:
REMARK  status: ('A' for Active; 'I' for Inactive)
REMARK    1  A    between atoms: C2_2  and  C3_3 
REMARK    2  A    between atoms: C4_5  and  C5_6 
REMARK    3  A    between atoms: C6_7  and  C7_8 
REMARK    4  A    between atoms: N1_12  and  N2_13 
REMARK    5  A    between atoms: C10_14  and  C11_15 
REMARK    6  A    between atoms: C14_18  and  O1_19 
ROOT
HETATM    1  C7  UNL     1      22.096   2.232  49.364  1.00  0.00     0.060 C 
HETATM    2  C8  UNL     1      21.537   1.821  48.237  1.00  0.00     0.077 C 
HETATM    3  S1  UNL     1      21.413   3.281  47.171  1.00  0.00    -0.117 SA
HETATM    4  C9  UNL     1      22.653   4.254  48.120  1.00  0.00     0.229 C 
HETATM    5  N1  UNL     1      22.416   3.596  49.418  1.00  0.00    -0.260 N 
ENDROOT
BRANCH   5   6
HETATM    6  N2  UNL     1      22.521   4.351  50.595  1.00  0.00    -0.183 NA
HETATM    7  C10 UNL     1      23.387   4.210  51.504  1.00  0.00     0.150 C 
BRANCH   7   8
HETATM    8  C11 UNL     1      24.544   3.406  51.871  1.00  0.00    -0.017 A 
HETATM    9  C12 UNL     1      24.549   2.820  53.117  1.00  0.00     0.015 A 
HETATM   10  C13 UNL     1      25.691   2.069  53.384  1.00  0.00     0.037 A 
HETATM   11  C14 UNL     1      26.734   1.915  52.491  1.00  0.00     0.068 A 
HETATM   12  C16 UNL     1      26.625   2.550  51.261  1.00  0.00     0.037 A 
HETATM   13  C17 UNL     1      25.517   3.326  50.902  1.00  0.00     0.015 A 
BRANCH  11  14
HETATM   14  O1  UNL     1      27.859   1.160  52.787  1.00  0.00    -0.356 OA
HETATM   15  C15 UNL     1      28.230   0.868  54.119  1.00  0.00     0.210 C 
ENDBRANCH  11  14
ENDBRANCH   7   8
ENDBRANCH   5   6
BRANCH   1  16
HETATM   16  C6  UNL     1      22.360   1.323  50.474  1.00  0.00     0.032 C 
HETATM   17  C5  UNL     1      21.393   1.113  51.353  1.00  0.00     0.004 C 
BRANCH  17  18
HETATM   18  C4  UNL     1      21.567   0.224  52.488  1.00  0.00     0.024 C 
HETATM   19  C3  UNL     1      20.614  -0.456  53.085  1.00  0.00     0.033 C 
HETATM   20 CL1  UNL     1      18.970  -0.291  52.468  1.00  0.00    -0.084 Cl
BRANCH  19  21
HETATM   21  C2  UNL     1      20.862  -1.332  54.223  1.00  0.00     0.013 C 
HETATM   22  C1  UNL     1      22.088  -1.444  54.751  1.00  0.00     0.013 C 
ENDBRANCH  19  21
ENDBRANCH  17  18
ENDBRANCH   1  16
TORSDOF 6
ENDMDL
MODEL 9
REMARK VINA RESULT:      -6.2      4.114      6.929
REMARK  6 active torsions:
REMARK  status: ('A' for Active; 'I' for Inactive)
REMARK    1  A    between atoms: C2_2  and  C3_3 
REMARK    2  A    between atoms: C4_5  and  C5_6 
REMARK    3  A    between atoms: C6_7  and  C7_8 
REMARK    4  A    between atoms: N1_12  and  N2_13 
REMARK    5  A    between atoms: C10_14  and  C11_15 
REMARK    6  A    between atoms: C14_18  and  O1_19 
ROOT
HETATM    1  C7  UNL     1      22.708   4.568  49.067  1.00  0.00     0.060 C 
HETATM    2  C8  UNL     1      22.309   3.715  48.136  1.00  0.00     0.077 C 
HETATM    3  S1  UNL     1      21.202   2.543  48.965  1.00  0.00    -0.117 SA
HETATM    4  C9  UNL     1      20.908   3.631  50.419  1.00  0.00     0.229 C 
HETATM    5  N1  UNL     1      22.198   4.342  50.353  1.00  0.00    -0.260 N 
ENDROOT
BRANCH   5   6
HETATM    6  N2  UNL     1      22.820   4.738  51.545  1.00  0.00    -0.183 NA
HETATM    7  C10 UNL     1      23.750   4.130  52.148  1.00  0.00     0.150 C 
BRANCH   7   8
HETATM    8  C11 UNL     1      24.586   2.940  52.061  1.00  0.00    -0.017 A 
HETATM    9  C12 UNL     1      25.708   3.002  51.265  1.00  0.00     0.015 A 
HETATM   10  C13 UNL     1      26.448   1.823  51.242  1.00  0.00     0.037 A 
HETATM   11  C14 UNL     1      26.103   0.686  51.947  1.00  0.00     0.068 A 
HETATM   12  C16 UNL     1      24.951   0.734  52.719  1.00  0.00     0.037 A 
HETATM   13  C17 UNL     1      24.142   1.873  52.806  1.00  0.00     0.015 A 
BRANCH  11  14
HETATM   14  O1  UNL     1      26.863  -0.473  51.902  1.00  0.00    -0.356 OA
HETATM   15  C15 UNL     1      27.348  -1.093  53.076  1.00  0.00     0.210 C 
ENDBRANCH  11  14
ENDBRANCH   7   8
ENDBRANCH   5   6
BRANCH   1  16
HETATM   16  C6  UNL     1      23.619   5.668  48.770  1.00  0.00     0.032 C 
HETATM   17  C5  UNL     1      24.920   5.444  48.859  1.00  0.00     0.004 C 
BRANCH  17  18
HETATM   18  C4  UNL     1      25.899   6.480  48.580  1.00  0.00     0.024 C 
HETATM   19  C3  UNL     1      27.194   6.299  48.451  1.00  0.00     0.033 C 
HETATM   20 CL1  UNL     1      27.821   4.661  48.626  1.00  0.00    -0.084 Cl
BRANCH  19  21
HETATM   21  C2  UNL     1      28.120   7.389  48.171  1.00  0.00     0.013 C 
HETATM   22  C1  UNL     1      29.382   7.142  47.798  1.00  0.00     0.013 C 
ENDBRANCH  19  21
ENDBRANCH  17  18
ENDBRANCH   1  16
TORSDOF 6
ENDMDL
