MODEL 1
REMARK VINA RESULT:      -8.8      0.000      0.000
REMARK  8 active torsions:
REMARK  status: ('A' for Active; 'I' for Inactive)
REMARK    1  A    between atoms: C4_6  and  N3_7 
REMARK    2  A    between atoms: N3_7  and  C5_8 
REMARK    3  A    between atoms: C8_11  and  O1_12 
REMARK    4  A    between atoms: O1_12  and  C9_13 
REMARK    5  A    between atoms: C9_13  and  C10_14 
REMARK    6  A    between atoms: C17_23  and  C18_24 
REMARK    7  A    between atoms: C19_25  and  C20_26 
REMARK    8  A    between atoms: C20_26  and  N4_27 
ROOT
HETATM    1  N3  UNL     1      22.362   0.665  51.040  1.00  0.00    -0.340 N 
HETATM    2  H5  UNL     1      22.397  -0.003  50.211  1.00  0.00     0.167 HD
ENDROOT
BRANCH   1   3
HETATM    3  C4  UNL     1      21.727   0.209  52.201  1.00  0.00     0.150 A 
HETATM    4  N2  UNL     1      20.408   0.258  52.431  1.00  0.00    -0.223 NA
HETATM    5  C3  UNL     1      19.915  -0.208  53.584  1.00  0.00     0.235 A 
HETATM    6  N1  UNL     1      20.670  -0.744  54.568  1.00  0.00    -0.245 NA
HETATM    7  C2  UNL     1      22.016  -0.827  54.407  1.00  0.00     0.054 A 
HETATM    8  C1  UNL     1      22.891  -1.406  55.456  1.00  0.00     0.072 C 
HETATM    9  C17 UNL     1      22.500  -0.343  53.218  1.00  0.00     0.088 A 
BRANCH   9  10
HETATM   10  C18 UNL     1      23.945  -0.441  53.063  1.00  0.00    -0.059 C 
HETATM   11  C19 UNL     1      25.145  -0.534  52.952  1.00  0.00    -0.071 C 
BRANCH  11  12
HETATM   12  C20 UNL     1      26.595  -0.654  52.842  1.00  0.00     0.366 C 
BRANCH  12  13
HETATM   13  N4  UNL     1      27.318   0.259  53.678  1.00  0.00     0.103 N 
HETATM   14  C21 UNL     1      28.743   0.115  53.605  1.00  0.00     0.299 C 
HETATM   15  C22 UNL     1      29.362   1.063  54.624  1.00  0.00     0.198 C 
HETATM   16  O2  UNL     1      29.055   2.377  54.371  1.00  0.00    -0.388 OA
HETATM   17  C23 UNL     1      28.116   2.538  53.358  1.00  0.00     0.198 C 
HETATM   18  C24 UNL     1      26.940   1.625  53.502  1.00  0.00     0.299 C 
ENDBRANCH  12  13
ENDBRANCH  11  12
ENDBRANCH   9  10
ENDBRANCH   1   3
BRANCH   1  19
HETATM   19  C5  UNL     1      22.968   1.899  50.804  1.00  0.00     0.035 A 
HETATM   20  C6  UNL     1      23.537   2.327  49.627  1.00  0.00     0.032 A 
HETATM   21  C7  UNL     1      24.133   3.543  49.385  1.00  0.00     0.041 A 
HETATM   22  C8  UNL     1      24.181   4.454  50.417  1.00  0.00     0.091 A 
HETATM   23  C15 UNL     1      23.632   4.103  51.631  1.00  0.00     0.069 A 
HETATM   24 CL1  UNL     1      23.684   5.248  52.951  1.00  0.00    -0.081 Cl
HETATM   25  C16 UNL     1      23.053   2.869  51.798  1.00  0.00     0.056 A 
BRANCH  22  26
HETATM   26  O1  UNL     1      24.756   5.685  50.257  1.00  0.00    -0.345 OA
BRANCH  26  27
HETATM   27  C9  UNL     1      25.093   6.239  48.991  1.00  0.00     0.215 C 
BRANCH  27  28
HETATM   28  C10 UNL     1      26.536   6.039  48.748  1.00  0.00    -0.020 A 
HETATM   29  C11 UNL     1      27.373   5.027  48.673  1.00  0.00    -0.014 A 
HETATM   30  C12 UNL     1      28.595   5.387  48.321  1.00  0.00     0.055 A 
HETATM   31  C13 UNL     1      28.606   6.863  48.250  1.00  0.00     0.117 A 
HETATM   32  F1  UNL     1      29.696   7.654  47.972  1.00  0.00    -0.206 F 
HETATM   33  C14 UNL     1      27.358   7.234  48.511  1.00  0.00     0.052 A 
ENDBRANCH  27  28
ENDBRANCH  26  27
ENDBRANCH  22  26
ENDBRANCH   1  19
TORSDOF 8
ENDMDL
MODEL 2
REMARK VINA RESULT:      -8.6      5.118      9.253
REMARK  8 active torsions:
REMARK  status: ('A' for Active; 'I' for Inactive)
REMARK    1  A    between atoms: C4_6  and  N3_7 
REMARK    2  A    between atoms: N3_7  and  C5_8 
REMARK    3  A    between atoms: C8_11  and  O1_12 
REMARK    4  A    between atoms: O1_12  and  C9_13 
REMARK    5  A    between atoms: C9_13  and  C10_14 
REMARK    6  A    between atoms: C17_23  and  C18_24 
REMARK    7  A    between atoms: C19_25  and  C20_26 
REMARK    8  A    between atoms: C20_26  and  N4_27 
ROOT
HETATM    1  N3  UNL     1      28.262   6.564  47.922  1.00  0.00    -0.340 N 
HETATM    2  H5  UNL     1      28.143   6.488  46.865  1.00  0.00     0.167 HD
ENDROOT
BRANCH   1   3
HETATM    3  C4  UNL     1      29.303   7.373  48.391  1.00  0.00     0.150 A 
HETATM    4  N2  UNL     1      29.154   8.591  48.927  1.00  0.00    -0.223 NA
HETATM    5  C3  UNL     1      30.228   9.274  49.340  1.00  0.00     0.235 A 
HETATM    6  N1  UNL     1      31.495   8.813  49.256  1.00  0.00    -0.245 NA
HETATM    7  C2  UNL     1      31.725   7.585  48.723  1.00  0.00     0.054 A 
HETATM    8  C1  UNL     1      33.097   7.032  48.607  1.00  0.00     0.072 C 
HETATM    9  C17 UNL     1      30.610   6.903  48.306  1.00  0.00     0.088 A 
BRANCH   9  10
HETATM   10  C18 UNL     1      30.877   5.588  47.738  1.00  0.00    -0.059 C 
HETATM   11  C19 UNL     1      31.118   4.502  47.268  1.00  0.00    -0.071 C 
BRANCH  11  12
HETATM   12  C20 UNL     1      31.433   3.197  46.695  1.00  0.00     0.366 C 
BRANCH  12  13
HETATM   13  N4  UNL     1      32.838   2.949  46.555  1.00  0.00     0.103 N 
HETATM   14  C21 UNL     1      33.541   3.966  45.829  1.00  0.00     0.299 C 
HETATM   15  C22 UNL     1      34.986   3.511  45.664  1.00  0.00     0.198 C 
HETATM   16  O2  UNL     1      35.620   3.336  46.869  1.00  0.00    -0.388 OA
HETATM   17  C23 UNL     1      34.765   3.441  47.962  1.00  0.00     0.198 C 
HETATM   18  C24 UNL     1      33.499   2.664  47.789  1.00  0.00     0.299 C 
ENDBRANCH  12  13
ENDBRANCH  11  12
ENDBRANCH   9  10
ENDBRANCH   1   3
BRANCH   1  19
HETATM   19  C5  UNL     1      27.335   5.822  48.654  1.00  0.00     0.035 A 
HETATM   20  C6  UNL     1      27.341   4.461  48.854  1.00  0.00     0.032 A 
HETATM   21  C7  UNL     1      26.435   3.722  49.577  1.00  0.00     0.041 A 
HETATM   22  C8  UNL     1      25.392   4.392  50.180  1.00  0.00     0.091 A 
HETATM   23  C15 UNL     1      25.313   5.759  50.030  1.00  0.00     0.069 A 
HETATM   24 CL1  UNL     1      23.999   6.624  50.789  1.00  0.00    -0.081 Cl
HETATM   25  C16 UNL     1      26.258   6.429  49.291  1.00  0.00     0.056 A 
BRANCH  22  26
HETATM   26  O1  UNL     1      24.449   3.729  50.918  1.00  0.00    -0.345 OA
BRANCH  26  27
HETATM   27  C9  UNL     1      23.955   2.438  50.588  1.00  0.00     0.215 C 
BRANCH  27  28
HETATM   28  C10 UNL     1      24.166   1.535  51.738  1.00  0.00    -0.020 A 
HETATM   29  C11 UNL     1      23.451   1.045  52.727  1.00  0.00    -0.014 A 
HETATM   30  C12 UNL     1      24.111   0.166  53.462  1.00  0.00     0.055 A 
HETATM   31  C13 UNL     1      25.500   0.139  52.958  1.00  0.00     0.117 A 
HETATM   32  F1  UNL     1      26.537  -0.599  53.475  1.00  0.00    -0.206 F 
HETATM   33  C14 UNL     1      25.511   0.970  51.921  1.00  0.00     0.052 A 
ENDBRANCH  27  28
ENDBRANCH  26  27
ENDBRANCH  22  26
ENDBRANCH   1  19
TORSDOF 8
ENDMDL
MODEL 3
REMARK VINA RESULT:      -8.5      4.834      8.805
REMARK  8 active torsions:
REMARK  status: ('A' for Active; 'I' for Inactive)
REMARK    1  A    between atoms: C4_6  and  N3_7 
REMARK    2  A    between atoms: N3_7  and  C5_8 
REMARK    3  A    between atoms: C8_11  and  O1_12 
REMARK    4  A    between atoms: O1_12  and  C9_13 
REMARK    5  A    between atoms: C9_13  and  C10_14 
REMARK    6  A    between atoms: C17_23  and  C18_24 
REMARK    7  A    between atoms: C19_25  and  C20_26 
REMARK    8  A    between atoms: C20_26  and  N4_27 
ROOT
HETATM    1  N3  UNL     1      26.893   6.369  48.266  1.00  0.00    -0.340 N 
HETATM    2  H5  UNL     1      26.847   6.193  47.216  1.00  0.00     0.167 HD
ENDROOT
BRANCH   1   3
HETATM    3  C4  UNL     1      27.432   7.590  48.686  1.00  0.00     0.150 A 
HETATM    4  N2  UNL     1      26.722   8.645  49.106  1.00  0.00    -0.223 NA
HETATM    5  C3  UNL     1      27.350   9.764  49.482  1.00  0.00     0.235 A 
HETATM    6  N1  UNL     1      28.692   9.919  49.471  1.00  0.00    -0.245 NA
HETATM    7  C2  UNL     1      29.479   8.892  49.058  1.00  0.00     0.054 A 
HETATM    8  C1  UNL     1      30.958   9.009  49.025  1.00  0.00     0.072 C 
HETATM    9  C17 UNL     1      28.814   7.754  48.676  1.00  0.00     0.088 A 
BRANCH   9  10
HETATM   10  C18 UNL     1      29.674   6.664  48.236  1.00  0.00    -0.059 C 
HETATM   11  C19 UNL     1      30.403   5.768  47.881  1.00  0.00    -0.071 C 
BRANCH  11  12
HETATM   12  C20 UNL     1      31.304   4.699  47.460  1.00  0.00     0.366 C 
BRANCH  12  13
HETATM   13  N4  UNL     1      32.690   5.060  47.500  1.00  0.00     0.103 N 
HETATM   14  C21 UNL     1      33.112   5.622  48.751  1.00  0.00     0.299 C 
HETATM   15  C22 UNL     1      34.564   6.058  48.602  1.00  0.00     0.198 C 
HETATM   16  O2  UNL     1      35.398   5.008  48.306  1.00  0.00    -0.388 OA
HETATM   17  C23 UNL     1      34.720   3.824  48.036  1.00  0.00     0.198 C 
HETATM   18  C24 UNL     1      33.572   4.010  47.097  1.00  0.00     0.299 C 
ENDBRANCH  12  13
ENDBRANCH  11  12
ENDBRANCH   9  10
ENDBRANCH   1   3
BRANCH   1  19
HETATM   19  C5  UNL     1      26.396   5.321  49.042  1.00  0.00     0.035 A 
HETATM   20  C6  UNL     1      26.975   4.088  49.231  1.00  0.00     0.032 A 
HETATM   21  C7  UNL     1      26.494   3.051  49.996  1.00  0.00     0.041 A 
HETATM   22  C8  UNL     1      25.301   3.240  50.660  1.00  0.00     0.091 A 
HETATM   23  C15 UNL     1      24.656   4.449  50.524  1.00  0.00     0.069 A 
HETATM   24 CL1  UNL     1      23.143   4.705  51.360  1.00  0.00    -0.081 Cl
HETATM   25  C16 UNL     1      25.199   5.439  49.740  1.00  0.00     0.056 A 
BRANCH  22  26
HETATM   26  O1  UNL     1      24.756   2.258  51.442  1.00  0.00    -0.345 OA
BRANCH  26  27
HETATM   27  C9  UNL     1      25.054   2.094  52.823  1.00  0.00     0.215 C 
BRANCH  27  28
HETATM   28  C10 UNL     1      26.021   0.988  52.977  1.00  0.00    -0.020 A 
HETATM   29  C11 UNL     1      26.330  -0.122  52.342  1.00  0.00    -0.014 A 
HETATM   30  C12 UNL     1      27.383  -0.738  52.852  1.00  0.00     0.055 A 
HETATM   31  C13 UNL     1      27.773   0.010  54.067  1.00  0.00     0.117 A 
HETATM   32  F1  UNL     1      28.787  -0.322  54.933  1.00  0.00    -0.206 F 
HETATM   33  C14 UNL     1      26.941   1.044  54.122  1.00  0.00     0.052 A 
ENDBRANCH  27  28
ENDBRANCH  26  27
ENDBRANCH  22  26
ENDBRANCH   1  19
TORSDOF 8
ENDMDL
MODEL 4
REMARK VINA RESULT:      -8.5      1.895      2.409
REMARK  8 active torsions:
REMARK  status: ('A' for Active; 'I' for Inactive)
REMARK    1  A    between atoms: C4_6  and  N3_7 
REMARK    2  A    between atoms: N3_7  and  C5_8 
REMARK    3  A    between atoms: C8_11  and  O1_12 
REMARK    4  A    between atoms: O1_12  and  C9_13 
REMARK    5  A    between atoms: C9_13  and  C10_14 
REMARK    6  A    between atoms: C17_23  and  C18_24 
REMARK    7  A    between atoms: C19_25  and  C20_26 
REMARK    8  A    between atoms: C20_26  and  N4_27 
ROOT
HETATM    1  N3  UNL     1      22.691   1.403  50.944  1.00  0.00    -0.340 N 
HETATM    2  H5  UNL     1      23.274   0.796  50.290  1.00  0.00     0.167 HD
ENDROOT
BRANCH   1   3
HETATM    3  C4  UNL     1      21.612   0.791  51.592  1.00  0.00     0.150 A 
HETATM    4  N2  UNL     1      20.327   0.911  51.234  1.00  0.00    -0.223 NA
HETATM    5  C3  UNL     1      19.378   0.278  51.933  1.00  0.00     0.235 A 
HETATM    6  N1  UNL     1      19.624  -0.500  53.009  1.00  0.00    -0.245 NA
HETATM    7  C2  UNL     1      20.903  -0.669  53.433  1.00  0.00     0.054 A 
HETATM    8  C1  UNL     1      21.229  -1.511  54.610  1.00  0.00     0.072 C 
HETATM    9  C17 UNL     1      21.860  -0.010  52.702  1.00  0.00     0.088 A 
BRANCH   9  10
HETATM   10  C18 UNL     1      23.226  -0.204  53.170  1.00  0.00    -0.059 C 
HETATM   11  C19 UNL     1      24.364  -0.350  53.547  1.00  0.00    -0.071 C 
BRANCH  11  12
HETATM   12  C20 UNL     1      25.748  -0.512  53.982  1.00  0.00     0.366 C 
BRANCH  12  13
HETATM   13  N4  UNL     1      26.686   0.278  53.239  1.00  0.00     0.103 N 
HETATM   14  C21 UNL     1      26.277   1.639  53.042  1.00  0.00     0.299 C 
HETATM   15  C22 UNL     1      27.309   2.314  52.148  1.00  0.00     0.198 C 
HETATM   16  O2  UNL     1      28.561   2.325  52.710  1.00  0.00    -0.388 OA
HETATM   17  C23 UNL     1      28.648   1.573  53.877  1.00  0.00     0.198 C 
HETATM   18  C24 UNL     1      28.019   0.223  53.750  1.00  0.00     0.299 C 
ENDBRANCH  12  13
ENDBRANCH  11  12
ENDBRANCH   9  10
ENDBRANCH   1   3
BRANCH   1  19
HETATM   19  C5  UNL     1      23.124   2.726  51.031  1.00  0.00     0.035 A 
HETATM   20  C6  UNL     1      22.625   3.706  51.858  1.00  0.00     0.032 A 
HETATM   21  C7  UNL     1      23.049   5.011  51.953  1.00  0.00     0.041 A 
HETATM   22  C8  UNL     1      24.087   5.411  51.140  1.00  0.00     0.091 A 
HETATM   23  C15 UNL     1      24.645   4.490  50.282  1.00  0.00     0.069 A 
HETATM   24 CL1  UNL     1      25.964   4.981  49.246  1.00  0.00    -0.081 Cl
HETATM   25  C16 UNL     1      24.168   3.202  50.243  1.00  0.00     0.056 A 
BRANCH  22  26
HETATM   26  O1  UNL     1      24.567   6.692  51.175  1.00  0.00    -0.345 OA
BRANCH  26  27
HETATM   27  C9  UNL     1      24.004   7.766  50.433  1.00  0.00     0.215 C 
BRANCH  27  28
HETATM   28  C10 UNL     1      25.096   8.564  49.838  1.00  0.00    -0.020 A 
HETATM   29  C11 UNL     1      25.232   9.452  48.877  1.00  0.00    -0.014 A 
HETATM   30  C12 UNL     1      26.450   9.959  48.806  1.00  0.00     0.055 A 
HETATM   31  C13 UNL     1      27.278   9.232  49.792  1.00  0.00     0.117 A 
HETATM   32  F1  UNL     1      28.625   9.406  50.006  1.00  0.00    -0.206 F 
HETATM   33  C14 UNL     1      26.443   8.398  50.401  1.00  0.00     0.052 A 
ENDBRANCH  27  28
ENDBRANCH  26  27
ENDBRANCH  22  26
ENDBRANCH   1  19
TORSDOF 8
ENDMDL
MODEL 5
REMARK VINA RESULT:      -8.4      1.401      1.862
REMARK  8 active torsions:
REMARK  status: ('A' for Active; 'I' for Inactive)
REMARK    1  A    between atoms: C4_6  and  N3_7 
REMARK    2  A    between atoms: N3_7  and  C5_8 
REMARK    3  A    between atoms: C8_11  and  O1_12 
REMARK    4  A    between atoms: O1_12  and  C9_13 
REMARK    5  A    between atoms: C9_13  and  C10_14 
REMARK    6  A    between atoms: C17_23  and  C18_24 
REMARK    7  A    between atoms: C19_25  and  C20_26 
REMARK    8  A    between atoms: C20_26  and  N4_27 
ROOT
HETATM    1  N3  UNL     1      23.659   1.777  50.793  1.00  0.00    -0.340 N 
HETATM    2  H5  UNL     1      24.175   0.884  50.526  1.00  0.00     0.167 HD
ENDROOT
BRANCH   1   3
HETATM    3  C4  UNL     1      22.408   1.634  51.405  1.00  0.00     0.150 A 
HETATM    4  N2  UNL     1      21.250   2.091  50.913  1.00  0.00    -0.223 NA
HETATM    5  C3  UNL     1      20.114   1.895  51.591  1.00  0.00     0.235 A 
HETATM    6  N1  UNL     1      20.042   1.250  52.776  1.00  0.00    -0.245 NA
HETATM    7  C2  UNL     1      21.176   0.758  53.338  1.00  0.00     0.054 A 
HETATM    8  C1  UNL     1      21.154   0.042  54.637  1.00  0.00     0.072 C 
HETATM    9  C17 UNL     1      22.330   0.970  52.625  1.00  0.00     0.088 A 
BRANCH   9  10
HETATM   10  C18 UNL     1      23.535   0.435  53.244  1.00  0.00    -0.059 C 
HETATM   11  C19 UNL     1      24.535   0.007  53.770  1.00  0.00    -0.071 C 
BRANCH  11  12
HETATM   12  C20 UNL     1      25.747  -0.487  54.417  1.00  0.00     0.366 C 
BRANCH  12  13
HETATM   13  N4  UNL     1      26.871   0.394  54.293  1.00  0.00     0.103 N 
HETATM   14  C21 UNL     1      27.974  -0.165  53.567  1.00  0.00     0.299 C 
HETATM   15  C22 UNL     1      29.123   0.834  53.619  1.00  0.00     0.198 C 
HETATM   16  O2  UNL     1      28.799   2.036  53.039  1.00  0.00    -0.388 OA
HETATM   17  C23 UNL     1      27.455   2.137  52.695  1.00  0.00     0.198 C 
HETATM   18  C24 UNL     1      26.537   1.687  53.786  1.00  0.00     0.299 C 
ENDBRANCH  12  13
ENDBRANCH  11  12
ENDBRANCH   9  10
ENDBRANCH   1   3
BRANCH   1  19
HETATM   19  C5  UNL     1      24.343   2.949  50.470  1.00  0.00     0.035 A 
HETATM   20  C6  UNL     1      25.504   3.051  49.739  1.00  0.00     0.032 A 
HETATM   21  C7  UNL     1      26.183   4.202  49.413  1.00  0.00     0.041 A 
HETATM   22  C8  UNL     1      25.668   5.401  49.854  1.00  0.00     0.091 A 
HETATM   23  C15 UNL     1      24.506   5.386  50.594  1.00  0.00     0.069 A 
HETATM   24 CL1  UNL     1      23.838   6.899  51.160  1.00  0.00    -0.081 Cl
HETATM   25  C16 UNL     1      23.883   4.196  50.880  1.00  0.00     0.056 A 
BRANCH  22  26
HETATM   26  O1  UNL     1      26.284   6.590  49.571  1.00  0.00    -0.345 OA
BRANCH  26  27
HETATM   27  C9  UNL     1      26.775   6.937  48.283  1.00  0.00     0.215 C 
BRANCH  27  28
HETATM   28  C10 UNL     1      28.246   6.797  48.276  1.00  0.00    -0.020 A 
HETATM   29  C11 UNL     1      29.125   5.848  48.038  1.00  0.00    -0.014 A 
HETATM   30  C12 UNL     1      30.375   6.277  48.072  1.00  0.00     0.055 A 
HETATM   31  C13 UNL     1      30.334   7.692  48.495  1.00  0.00     0.117 A 
HETATM   32  F1  UNL     1      31.420   8.506  48.712  1.00  0.00    -0.206 F 
HETATM   33  C14 UNL     1      29.044   7.984  48.612  1.00  0.00     0.052 A 
ENDBRANCH  27  28
ENDBRANCH  26  27
ENDBRANCH  22  26
ENDBRANCH   1  19
TORSDOF 8
ENDMDL
MODEL 6
REMARK VINA RESULT:      -8.4      2.485      3.850
REMARK  8 active torsions:
REMARK  status: ('A' for Active; 'I' for Inactive)
REMARK    1  A    between atoms: C4_6  and  N3_7 
REMARK    2  A    between atoms: N3_7  and  C5_8 
REMARK    3  A    between atoms: C8_11  and  O1_12 
REMARK    4  A    between atoms: O1_12  and  C9_13 
REMARK    5  A    between atoms: C9_13  and  C10_14 
REMARK    6  A    between atoms: C17_23  and  C18_24 
REMARK    7  A    between atoms: C19_25  and  C20_26 
REMARK    8  A    between atoms: C20_26  and  N4_27 
ROOT
HETATM    1  N3  UNL     1      23.946   5.262  51.781  1.00  0.00    -0.340 N 
HETATM    2  H5  UNL     1      24.090   5.691  52.746  1.00  0.00     0.167 HD
ENDROOT
BRANCH   1   3
HETATM    3  C4  UNL     1      22.901   4.341  51.640  1.00  0.00     0.150 A 
HETATM    4  N2  UNL     1      21.700   4.610  51.113  1.00  0.00    -0.223 NA
HETATM    5  C3  UNL     1      20.776   3.646  51.033  1.00  0.00     0.235 A 
HETATM    6  N1  UNL     1      20.968   2.378  51.456  1.00  0.00    -0.245 NA
HETATM    7  C2  UNL     1      22.162   2.029  52.002  1.00  0.00     0.054 A 
HETATM    8  C1  UNL     1      22.425   0.651  52.484  1.00  0.00     0.072 C 
HETATM    9  C17 UNL     1      23.094   3.034  52.076  1.00  0.00     0.088 A 
BRANCH   9  10
HETATM   10  C18 UNL     1      24.368   2.642  52.664  1.00  0.00    -0.059 C 
HETATM   11  C19 UNL     1      25.417   2.322  53.170  1.00  0.00    -0.071 C 
BRANCH  11  12
HETATM   12  C20 UNL     1      26.678   1.948  53.803  1.00  0.00     0.366 C 
BRANCH  12  13
HETATM   13  N4  UNL     1      26.918   0.534  53.826  1.00  0.00     0.103 N 
HETATM   14  C21 UNL     1      26.891  -0.085  52.533  1.00  0.00     0.299 C 
HETATM   15  C22 UNL     1      27.045  -1.587  52.730  1.00  0.00     0.198 C 
HETATM   16  O2  UNL     1      28.234  -1.917  53.332  1.00  0.00    -0.388 OA
HETATM   17  C23 UNL     1      28.948  -0.812  53.784  1.00  0.00     0.198 C 
HETATM   18  C24 UNL     1      28.100   0.162  54.537  1.00  0.00     0.299 C 
ENDBRANCH  12  13
ENDBRANCH  11  12
ENDBRANCH   9  10
ENDBRANCH   1   3
BRANCH   1  19
HETATM   19  C5  UNL     1      24.850   5.710  50.818  1.00  0.00     0.035 A 
HETATM   20  C6  UNL     1      25.559   4.936  49.929  1.00  0.00     0.032 A 
HETATM   21  C7  UNL     1      26.449   5.369  48.974  1.00  0.00     0.041 A 
HETATM   22  C8  UNL     1      26.677   6.725  48.873  1.00  0.00     0.091 A 
HETATM   23  C15 UNL     1      26.005   7.571  49.728  1.00  0.00     0.069 A 
HETATM   24 CL1  UNL     1      26.281   9.292  49.613  1.00  0.00    -0.081 Cl
HETATM   25  C16 UNL     1      25.130   7.063  50.657  1.00  0.00     0.056 A 
BRANCH  22  26
HETATM   26  O1  UNL     1      27.547   7.236  47.949  1.00  0.00    -0.345 OA
BRANCH  26  27
HETATM   27  C9  UNL     1      28.820   6.669  47.666  1.00  0.00     0.215 C 
BRANCH  27  28
HETATM   28  C10 UNL     1      29.853   7.406  48.422  1.00  0.00    -0.020 A 
HETATM   29  C11 UNL     1      31.023   7.148  48.964  1.00  0.00    -0.014 A 
HETATM   30  C12 UNL     1      31.614   8.220  49.462  1.00  0.00     0.055 A 
HETATM   31  C13 UNL     1      30.659   9.340  49.329  1.00  0.00     0.117 A 
HETATM   32  F1  UNL     1      30.850  10.627  49.772  1.00  0.00    -0.206 F 
HETATM   33  C14 UNL     1      29.607   8.828  48.701  1.00  0.00     0.052 A 
ENDBRANCH  27  28
ENDBRANCH  26  27
ENDBRANCH  22  26
ENDBRANCH   1  19
TORSDOF 8
ENDMDL
MODEL 7
REMARK VINA RESULT:      -8.4      5.123      9.049
REMARK  8 active torsions:
REMARK  status: ('A' for Active; 'I' for Inactive)
REMARK    1  A    between atoms: C4_6  and  N3_7 
REMARK    2  A    between atoms: N3_7  and  C5_8 
REMARK    3  A    between atoms: C8_11  and  O1_12 
REMARK    4  A    between atoms: O1_12  and  C9_13 
REMARK    5  A    between atoms: C9_13  and  C10_14 
REMARK    6  A    between atoms: C17_23  and  C18_24 
REMARK    7  A    between atoms: C19_25  and  C20_26 
REMARK    8  A    between atoms: C20_26  and  N4_27 
ROOT
HETATM    1  N3  UNL     1      18.562  -0.765  53.755  1.00  0.00    -0.340 N 
HETATM    2  H5  UNL     1      18.122   0.077  54.237  1.00  0.00     0.167 HD
ENDROOT
BRANCH   1   3
HETATM    3  C4  UNL     1      17.720  -1.843  53.457  1.00  0.00     0.150 A 
HETATM    4  N2  UNL     1      17.947  -3.118  53.797  1.00  0.00    -0.223 NA
HETATM    5  C3  UNL     1      17.068  -4.066  53.454  1.00  0.00     0.235 A 
HETATM    6  N1  UNL     1      15.930  -3.829  52.766  1.00  0.00    -0.245 NA
HETATM    7  C2  UNL     1      15.632  -2.560  52.385  1.00  0.00     0.054 A 
HETATM    8  C1  UNL     1      14.396  -2.244  51.628  1.00  0.00     0.072 C 
HETATM    9  C17 UNL     1      16.548  -1.603  52.748  1.00  0.00     0.088 A 
BRANCH   9  10
HETATM   10  C18 UNL     1      16.211  -0.249  52.331  1.00  0.00    -0.059 C 
HETATM   11  C19 UNL     1      15.947   0.882  51.996  1.00  0.00    -0.071 C 
BRANCH  11  12
HETATM   12  C20 UNL     1      15.644   2.256  51.610  1.00  0.00     0.366 C 
BRANCH  12  13
HETATM   13  N4  UNL     1      14.533   2.825  52.315  1.00  0.00     0.103 N 
HETATM   14  C21 UNL     1      14.857   4.006  53.062  1.00  0.00     0.299 C 
HETATM   15  C22 UNL     1      13.616   4.423  53.840  1.00  0.00     0.198 C 
HETATM   16  O2  UNL     1      12.557   4.720  53.018  1.00  0.00    -0.388 OA
HETATM   17  C23 UNL     1      12.793   4.409  51.683  1.00  0.00     0.198 C 
HETATM   18  C24 UNL     1      13.384   3.048  51.496  1.00  0.00     0.299 C 
ENDBRANCH  12  13
ENDBRANCH  11  12
ENDBRANCH   9  10
ENDBRANCH   1   3
BRANCH   1  19
HETATM   19  C5  UNL     1      19.929  -0.631  53.510  1.00  0.00     0.035 A 
HETATM   20  C6  UNL     1      20.518  -0.129  52.373  1.00  0.00     0.032 A 
HETATM   21  C7  UNL     1      21.863   0.011  52.124  1.00  0.00     0.041 A 
HETATM   22  C8  UNL     1      22.744  -0.390  53.105  1.00  0.00     0.091 A 
HETATM   23  C15 UNL     1      22.236  -0.905  54.277  1.00  0.00     0.069 A 
HETATM   24 CL1  UNL     1      23.339  -1.417  55.531  1.00  0.00    -0.081 Cl
HETATM   25  C16 UNL     1      20.877  -1.014  54.453  1.00  0.00     0.056 A 
BRANCH  22  26
HETATM   26  O1  UNL     1      24.098  -0.284  52.935  1.00  0.00    -0.345 OA
BRANCH  26  27
HETATM   27  C9  UNL     1      24.813   0.940  53.047  1.00  0.00     0.215 C 
BRANCH  27  28
HETATM   28  C10 UNL     1      26.125   0.674  53.671  1.00  0.00    -0.020 A 
HETATM   29  C11 UNL     1      26.580   0.329  54.856  1.00  0.00    -0.014 A 
HETATM   30  C12 UNL     1      27.884   0.114  54.871  1.00  0.00     0.055 A 
HETATM   31  C13 UNL     1      28.394   0.465  53.529  1.00  0.00     0.117 A 
HETATM   32  F1  UNL     1      29.709   0.441  53.129  1.00  0.00    -0.206 F 
HETATM   33  C14 UNL     1      27.320   0.799  52.824  1.00  0.00     0.052 A 
ENDBRANCH  27  28
ENDBRANCH  26  27
ENDBRANCH  22  26
ENDBRANCH   1  19
TORSDOF 8
ENDMDL
MODEL 8
REMARK VINA RESULT:      -8.2      5.178      9.245
REMARK  8 active torsions:
REMARK  status: ('A' for Active; 'I' for Inactive)
REMARK    1  A    between atoms: C4_6  and  N3_7 
REMARK    2  A    between atoms: N3_7  and  C5_8 
REMARK    3  A    between atoms: C8_11  and  O1_12 
REMARK    4  A    between atoms: O1_12  and  C9_13 
REMARK    5  A    between atoms: C9_13  and  C10_14 
REMARK    6  A    between atoms: C17_23  and  C18_24 
REMARK    7  A    between atoms: C19_25  and  C20_26 
REMARK    8  A    between atoms: C20_26  and  N4_27 
ROOT
HETATM    1  N3  UNL     1      27.064   5.954  48.427  1.00  0.00    -0.340 N 
HETATM    2  H5  UNL     1      27.536   5.586  47.544  1.00  0.00     0.167 HD
ENDROOT
BRANCH   1   3
HETATM    3  C4  UNL     1      27.363   7.266  48.811  1.00  0.00     0.150 A 
HETATM    4  N2  UNL     1      26.468   8.173  49.225  1.00  0.00    -0.223 NA
HETATM    5  C3  UNL     1      26.872   9.401  49.565  1.00  0.00     0.235 A 
HETATM    6  N1  UNL     1      28.158   9.813  49.523  1.00  0.00    -0.245 NA
HETATM    7  C2  UNL     1      29.123   8.950  49.113  1.00  0.00     0.054 A 
HETATM    8  C1  UNL     1      30.549   9.351  49.047  1.00  0.00     0.072 C 
HETATM    9  C17 UNL     1      28.685   7.695  48.768  1.00  0.00     0.088 A 
BRANCH   9  10
HETATM   10  C18 UNL     1      29.734   6.783  48.331  1.00  0.00    -0.059 C 
HETATM   11  C19 UNL     1      30.612   6.027  47.987  1.00  0.00    -0.071 C 
BRANCH  11  12
HETATM   12  C20 UNL     1      31.685   5.121  47.593  1.00  0.00     0.366 C 
BRANCH  12  13
HETATM   13  N4  UNL     1      32.987   5.721  47.611  1.00  0.00     0.103 N 
HETATM   14  C21 UNL     1      33.157   6.716  48.630  1.00  0.00     0.299 C 
HETATM   15  C22 UNL     1      34.537   7.338  48.451  1.00  0.00     0.198 C 
HETATM   16  O2  UNL     1      35.547   6.418  48.584  1.00  0.00    -0.388 OA
HETATM   17  C23 UNL     1      35.090   5.107  48.676  1.00  0.00     0.198 C 
HETATM   18  C24 UNL     1      34.058   4.775  47.648  1.00  0.00     0.299 C 
ENDBRANCH  12  13
ENDBRANCH  11  12
ENDBRANCH   9  10
ENDBRANCH   1   3
BRANCH   1  19
HETATM   19  C5  UNL     1      26.220   5.033  49.047  1.00  0.00     0.035 A 
HETATM   20  C6  UNL     1      24.844   5.038  49.038  1.00  0.00     0.032 A 
HETATM   21  C7  UNL     1      24.005   4.133  49.644  1.00  0.00     0.041 A 
HETATM   22  C8  UNL     1      24.576   3.094  50.345  1.00  0.00     0.091 A 
HETATM   23  C15 UNL     1      25.950   3.015  50.403  1.00  0.00     0.069 A 
HETATM   24 CL1  UNL     1      26.691   1.703  51.288  1.00  0.00    -0.081 Cl
HETATM   25  C16 UNL     1      26.725   3.959  49.772  1.00  0.00     0.056 A 
BRANCH  22  26
HETATM   26  O1  UNL     1      23.810   2.151  50.975  1.00  0.00    -0.345 OA
BRANCH  26  27
HETATM   27  C9  UNL     1      23.202   2.349  52.245  1.00  0.00     0.215 C 
BRANCH  27  28
HETATM   28  C10 UNL     1      23.222   1.074  52.991  1.00  0.00    -0.020 A 
HETATM   29  C11 UNL     1      24.117   0.186  53.364  1.00  0.00    -0.014 A 
HETATM   30  C12 UNL     1      23.617  -0.768  54.131  1.00  0.00     0.055 A 
HETATM   31  C13 UNL     1      22.157  -0.547  54.196  1.00  0.00     0.117 A 
HETATM   32  F1  UNL     1      21.244  -1.343  54.845  1.00  0.00    -0.206 F 
HETATM   33  C14 UNL     1      21.941   0.566  53.504  1.00  0.00     0.052 A 
ENDBRANCH  27  28
ENDBRANCH  26  27
ENDBRANCH  22  26
ENDBRANCH   1  19
TORSDOF 8
ENDMDL
MODEL 9
REMARK VINA RESULT:      -8.2      4.902      7.754
REMARK  8 active torsions:
REMARK  status: ('A' for Active; 'I' for Inactive)
REMARK    1  A    between atoms: C4_6  and  N3_7 
REMARK    2  A    between atoms: N3_7  and  C5_8 
REMARK    3  A    between atoms: C8_11  and  O1_12 
REMARK    4  A    between atoms: O1_12  and  C9_13 
REMARK    5  A    between atoms: C9_13  and  C10_14 
REMARK    6  A    between atoms: C17_23  and  C18_24 
REMARK    7  A    between atoms: C19_25  and  C20_26 
REMARK    8  A    between atoms: C20_26  and  N4_27 
ROOT
HETATM    1  N3  UNL     1      18.796  -0.606  53.728  1.00  0.00    -0.340 N 
HETATM    2  H5  UNL     1      18.396   0.292  54.138  1.00  0.00     0.167 HD
ENDROOT
BRANCH   1   3
HETATM    3  C4  UNL     1      17.894  -1.641  53.456  1.00  0.00     0.150 A 
HETATM    4  N2  UNL     1      17.968  -2.882  53.955  1.00  0.00    -0.223 NA
HETATM    5  C3  UNL     1      17.046  -3.791  53.621  1.00  0.00     0.235 A 
HETATM    6  N1  UNL     1      16.010  -3.547  52.789  1.00  0.00    -0.245 NA
HETATM    7  C2  UNL     1      15.869  -2.312  52.243  1.00  0.00     0.054 A 
HETATM    8  C1  UNL     1      14.750  -1.991  51.323  1.00  0.00     0.072 C 
HETATM    9  C17 UNL     1      16.826  -1.395  52.599  1.00  0.00     0.088 A 
BRANCH   9  10
HETATM   10  C18 UNL     1      16.658  -0.076  52.003  1.00  0.00    -0.059 C 
HETATM   11  C19 UNL     1      16.503   1.021  51.521  1.00  0.00    -0.071 C 
BRANCH  11  12
HETATM   12  C20 UNL     1      16.292   2.347  50.950  1.00  0.00     0.366 C 
BRANCH  12  13
HETATM   13  N4  UNL     1      17.502   3.089  50.745  1.00  0.00     0.103 N 
HETATM   14  C21 UNL     1      18.560   2.741  51.648  1.00  0.00     0.299 C 
HETATM   15  C22 UNL     1      19.728   3.684  51.386  1.00  0.00     0.198 C 
HETATM   16  O2  UNL     1      20.211   3.575  50.105  1.00  0.00    -0.388 OA
HETATM   17  C23 UNL     1      19.427   2.769  49.287  1.00  0.00     0.198 C 
HETATM   18  C24 UNL     1      17.967   3.073  49.395  1.00  0.00     0.299 C 
ENDBRANCH  12  13
ENDBRANCH  11  12
ENDBRANCH   9  10
ENDBRANCH   1   3
BRANCH   1  19
HETATM   19  C5  UNL     1      20.177  -0.579  53.536  1.00  0.00     0.035 A 
HETATM   20  C6  UNL     1      20.846  -0.154  52.412  1.00  0.00     0.032 A 
HETATM   21  C7  UNL     1      22.207  -0.120  52.216  1.00  0.00     0.041 A 
HETATM   22  C8  UNL     1      23.016  -0.555  53.243  1.00  0.00     0.091 A 
HETATM   23  C15 UNL     1      22.425  -0.997  54.405  1.00  0.00     0.069 A 
HETATM   24 CL1  UNL     1      23.437  -1.552  55.718  1.00  0.00    -0.081 Cl
HETATM   25  C16 UNL     1      21.056  -1.002  54.527  1.00  0.00     0.056 A 
BRANCH  22  26
HETATM   26  O1  UNL     1      24.380  -0.552  53.127  1.00  0.00    -0.345 OA
BRANCH  26  27
HETATM   27  C9  UNL     1      25.169   0.631  53.119  1.00  0.00     0.215 C 
BRANCH  27  28
HETATM   28  C10 UNL     1      26.528   0.305  53.598  1.00  0.00    -0.020 A 
HETATM   29  C11 UNL     1      27.284   0.597  54.634  1.00  0.00    -0.014 A 
HETATM   30  C12 UNL     1      28.433  -0.056  54.641  1.00  0.00     0.055 A 
HETATM   31  C13 UNL     1      28.504  -0.817  53.376  1.00  0.00     0.117 A 
HETATM   32  F1  UNL     1      29.558  -1.591  52.952  1.00  0.00    -0.206 F 
HETATM   33  C14 UNL     1      27.348  -0.586  52.764  1.00  0.00     0.052 A 
ENDBRANCH  27  28
ENDBRANCH  26  27
ENDBRANCH  22  26
ENDBRANCH   1  19
TORSDOF 8
ENDMDL
