MODEL 1
REMARK VINA RESULT:      -7.6      0.000      0.000
REMARK  8 active torsions:
REMARK  status: ('A' for Active; 'I' for Inactive)
REMARK    1  A    between atoms: C2_2  and  C3_3 
REMARK    2  A    between atoms: C3_3  and  C4_4 
REMARK    3  A    between atoms: C4_4  and  N1_5 
REMARK    4  A    between atoms: N1_5  and  C5_6 
REMARK    5  A    between atoms: C5_6  and  C6_7 
REMARK    6  A    between atoms: C11_13  and  O1_14 
REMARK    7  A    between atoms: C12_15  and  N2_17 
REMARK    8  A    between atoms: N2_17  and  C13_18 
ROOT
HETATM    1  N1  UNL     1      23.167   1.371  52.033  1.00  0.00     0.130 N 
HETATM    2  C12 UNL     1      23.524   2.102  50.933  1.00  0.00     0.385 A 
HETATM    3  O2  UNL     1      22.532   1.320  50.645  1.00  0.00    -0.102 OA
ENDROOT
BRANCH   1   4
HETATM    4  C4  UNL     1      22.144   0.366  52.204  1.00  0.00     0.286 C 
BRANCH   4   5
HETATM    5  C3  UNL     1      21.628   0.455  53.621  1.00  0.00     0.031 C 
BRANCH   5   6
HETATM    6  C2  UNL     1      21.345  -0.918  54.197  1.00  0.00    -0.003 C 
HETATM    7  C1  UNL     1      22.540  -1.281  55.074  1.00  0.00     0.005 C 
ENDBRANCH   5   6
ENDBRANCH   4   5
ENDBRANCH   1   4
BRANCH   1   8
HETATM    8  C5  UNL     1      23.942   1.632  53.252  1.00  0.00     0.327 C 
BRANCH   8   9
HETATM    9  C6  UNL     1      25.267   0.981  53.241  1.00  0.00     0.006 A 
HETATM   10  C7  UNL     1      25.345  -0.347  52.793  1.00  0.00     0.012 A 
HETATM   11  C8  UNL     1      26.496  -1.123  52.703  1.00  0.00     0.002 A 
HETATM   12  C9  UNL     1      27.672  -0.518  53.096  1.00  0.00     0.022 A 
HETATM   13  C10 UNL     1      27.660   0.770  53.540  1.00  0.00     0.044 A 
HETATM   14 BR1  UNL     1      29.268   1.640  54.090  1.00  0.00    -0.048 Br
HETATM   15  C11 UNL     1      26.493   1.487  53.607  1.00  0.00     0.091 A 
BRANCH  15  16
HETATM   16  O1  UNL     1      26.498   2.785  54.056  1.00  0.00    -0.359 OA
HETATM   17  H15 UNL     1      27.374   3.301  53.942  1.00  0.00     0.217 HD
ENDBRANCH  15  16
ENDBRANCH   8   9
ENDBRANCH   1   8
BRANCH   2  18
HETATM   18  N2  UNL     1      23.915   2.857  49.847  1.00  0.00    -0.312 N 
HETATM   19  H16 UNL     1      23.051   2.483  49.346  1.00  0.00     0.169 HD
BRANCH  18  20
HETATM   20  C13 UNL     1      24.944   3.718  49.492  1.00  0.00     0.035 A 
HETATM   21  C14 UNL     1      24.466   4.960  49.143  1.00  0.00     0.029 A 
HETATM   22  C15 UNL     1      25.417   5.919  48.767  1.00  0.00     0.002 A 
HETATM   23  C16 UNL     1      26.773   5.590  48.761  1.00  0.00     0.000 A 
HETATM   24  C17 UNL     1      27.177   4.305  49.130  1.00  0.00     0.002 A 
HETATM   25  C18 UNL     1      26.248   3.338  49.507  1.00  0.00     0.029 A 
ENDBRANCH  18  20
ENDBRANCH   2  18
TORSDOF 8
ENDMDL
MODEL 2
REMARK VINA RESULT:      -7.5      2.653      6.051
REMARK  8 active torsions:
REMARK  status: ('A' for Active; 'I' for Inactive)
REMARK    1  A    between atoms: C2_2  and  C3_3 
REMARK    2  A    between atoms: C3_3  and  C4_4 
REMARK    3  A    between atoms: C4_4  and  N1_5 
REMARK    4  A    between atoms: N1_5  and  C5_6 
REMARK    5  A    between atoms: C5_6  and  C6_7 
REMARK    6  A    between atoms: C11_13  and  O1_14 
REMARK    7  A    between atoms: C12_15  and  N2_17 
REMARK    8  A    between atoms: N2_17  and  C13_18 
ROOT
HETATM    1  N1  UNL     1      26.039   0.142  53.962  1.00  0.00     0.130 N 
HETATM    2  C12 UNL     1      24.780  -0.385  54.048  1.00  0.00     0.385 A 
HETATM    3  O2  UNL     1      25.640  -1.323  53.809  1.00  0.00    -0.102 OA
ENDROOT
BRANCH   1   4
HETATM    4  C4  UNL     1      27.309  -0.491  53.696  1.00  0.00     0.286 C 
BRANCH   4   5
HETATM    5  C3  UNL     1      28.392   0.321  54.367  1.00  0.00     0.031 C 
BRANCH   5   6
HETATM    6  C2  UNL     1      29.753   0.040  53.763  1.00  0.00    -0.003 C 
HETATM    7  C1  UNL     1      29.774  -1.442  53.399  1.00  0.00     0.005 C 
ENDBRANCH   5   6
ENDBRANCH   4   5
ENDBRANCH   1   4
BRANCH   1   8
HETATM    8  C5  UNL     1      26.139   1.593  54.166  1.00  0.00     0.327 C 
BRANCH   8   9
HETATM    9  C6  UNL     1      25.589   2.372  53.039  1.00  0.00     0.006 A 
HETATM   10  C7  UNL     1      24.261   2.816  53.133  1.00  0.00     0.012 A 
HETATM   11  C8  UNL     1      23.571   3.564  52.184  1.00  0.00     0.002 A 
HETATM   12  C9  UNL     1      24.270   3.896  51.041  1.00  0.00     0.022 A 
HETATM   13  C10 UNL     1      25.563   3.492  50.894  1.00  0.00     0.044 A 
HETATM   14 BR1  UNL     1      26.562   3.933  49.328  1.00  0.00    -0.048 Br
HETATM   15  C11 UNL     1      26.193   2.756  51.864  1.00  0.00     0.091 A 
BRANCH  15  16
HETATM   16  O1  UNL     1      27.497   2.357  51.700  1.00  0.00    -0.359 OA
HETATM   17  H15 UNL     1      27.641   1.471  51.211  1.00  0.00     0.217 HD
ENDBRANCH  15  16
ENDBRANCH   8   9
ENDBRANCH   1   8
BRANCH   2  18
HETATM   18  N2  UNL     1      23.495  -0.878  54.141  1.00  0.00    -0.312 N 
HETATM   19  H16 UNL     1      23.880  -1.594  54.830  1.00  0.00     0.169 HD
BRANCH  18  20
HETATM   20  C13 UNL     1      22.238  -0.620  53.611  1.00  0.00     0.035 A 
HETATM   21  C14 UNL     1      22.324   0.000  52.386  1.00  0.00     0.029 A 
HETATM   22  C15 UNL     1      21.113   0.308  51.749  1.00  0.00     0.002 A 
HETATM   23  C16 UNL     1      19.902  -0.014  52.362  1.00  0.00     0.000 A 
HETATM   24  C17 UNL     1      19.902  -0.644  53.608  1.00  0.00     0.002 A 
HETATM   25  C18 UNL     1      21.093  -0.959  54.258  1.00  0.00     0.029 A 
ENDBRANCH  18  20
ENDBRANCH   2  18
TORSDOF 8
ENDMDL
MODEL 3
REMARK VINA RESULT:      -7.5      2.623      6.120
REMARK  8 active torsions:
REMARK  status: ('A' for Active; 'I' for Inactive)
REMARK    1  A    between atoms: C2_2  and  C3_3 
REMARK    2  A    between atoms: C3_3  and  C4_4 
REMARK    3  A    between atoms: C4_4  and  N1_5 
REMARK    4  A    between atoms: N1_5  and  C5_6 
REMARK    5  A    between atoms: C5_6  and  C6_7 
REMARK    6  A    between atoms: C11_13  and  O1_14 
REMARK    7  A    between atoms: C12_15  and  N2_17 
REMARK    8  A    between atoms: N2_17  and  C13_18 
ROOT
HETATM    1  N1  UNL     1      26.574   0.518  54.017  1.00  0.00     0.130 N 
HETATM    2  C12 UNL     1      25.406  -0.083  53.637  1.00  0.00     0.385 A 
HETATM    3  O2  UNL     1      26.227  -0.965  54.112  1.00  0.00    -0.102 OA
ENDROOT
BRANCH   1   4
HETATM    4  C4  UNL     1      27.781  -0.041  54.580  1.00  0.00     0.286 C 
BRANCH   4   5
HETATM    5  C3  UNL     1      28.941   0.842  54.181  1.00  0.00     0.031 C 
BRANCH   5   6
HETATM    6  C2  UNL     1      30.011   0.057  53.449  1.00  0.00    -0.003 C 
HETATM    7  C1  UNL     1      29.598  -1.411  53.511  1.00  0.00     0.005 C 
ENDBRANCH   5   6
ENDBRANCH   4   5
ENDBRANCH   1   4
BRANCH   1   8
HETATM    8  C5  UNL     1      26.636   1.973  53.825  1.00  0.00     0.327 C 
BRANCH   8   9
HETATM    9  C6  UNL     1      26.044   2.410  52.545  1.00  0.00     0.006 A 
HETATM   10  C7  UNL     1      26.828   2.300  51.386  1.00  0.00     0.012 A 
HETATM   11  C8  UNL     1      26.446   2.650  50.094  1.00  0.00     0.002 A 
HETATM   12  C9  UNL     1      25.170   3.155  49.950  1.00  0.00     0.022 A 
HETATM   13  C10 UNL     1      24.363   3.285  51.040  1.00  0.00     0.044 A 
HETATM   14 BR1  UNL     1      22.591   3.978  50.879  1.00  0.00    -0.048 Br
HETATM   15  C11 UNL     1      24.793   2.922  52.290  1.00  0.00     0.091 A 
BRANCH  15  16
HETATM   16  O1  UNL     1      23.966   3.059  53.379  1.00  0.00    -0.359 OA
HETATM   17  H15 UNL     1      24.370   2.819  54.287  1.00  0.00     0.217 HD
ENDBRANCH  15  16
ENDBRANCH   8   9
ENDBRANCH   1   8
BRANCH   2  18
HETATM   18  N2  UNL     1      24.213  -0.651  53.241  1.00  0.00    -0.312 N 
HETATM   19  H16 UNL     1      24.796  -1.380  52.725  1.00  0.00     0.169 HD
BRANCH  18  20
HETATM   20  C13 UNL     1      22.851  -0.431  53.394  1.00  0.00     0.035 A 
HETATM   21  C14 UNL     1      22.304   0.150  52.274  1.00  0.00     0.029 A 
HETATM   22  C15 UNL     1      20.928   0.418  52.310  1.00  0.00     0.002 A 
HETATM   23  C16 UNL     1      20.186   0.096  53.447  1.00  0.00     0.000 A 
HETATM   24  C17 UNL     1      20.818  -0.494  54.544  1.00  0.00     0.002 A 
HETATM   25  C18 UNL     1      22.184  -0.768  54.528  1.00  0.00     0.029 A 
ENDBRANCH  18  20
ENDBRANCH   2  18
TORSDOF 8
ENDMDL
MODEL 4
REMARK VINA RESULT:      -7.5      2.497      6.391
REMARK  8 active torsions:
REMARK  status: ('A' for Active; 'I' for Inactive)
REMARK    1  A    between atoms: C2_2  and  C3_3 
REMARK    2  A    between atoms: C3_3  and  C4_4 
REMARK    3  A    between atoms: C4_4  and  N1_5 
REMARK    4  A    between atoms: N1_5  and  C5_6 
REMARK    5  A    between atoms: C5_6  and  C6_7 
REMARK    6  A    between atoms: C11_13  and  O1_14 
REMARK    7  A    between atoms: C12_15  and  N2_17 
REMARK    8  A    between atoms: N2_17  and  C13_18 
ROOT
HETATM    1  N1  UNL     1      25.753   3.156  50.857  1.00  0.00     0.130 N 
HETATM    2  C12 UNL     1      26.350   2.370  51.803  1.00  0.00     0.385 A 
HETATM    3  O2  UNL     1      27.163   2.575  50.817  1.00  0.00    -0.102 OA
ENDROOT
BRANCH   1   4
HETATM    4  C4  UNL     1      26.243   3.639  49.587  1.00  0.00     0.286 C 
BRANCH   4   5
HETATM    5  C3  UNL     1      25.584   4.967  49.300  1.00  0.00     0.031 C 
BRANCH   5   6
HETATM    6  C2  UNL     1      26.583   5.983  48.785  1.00  0.00    -0.003 C 
HETATM    7  C1  UNL     1      27.876   5.223  48.502  1.00  0.00     0.005 C 
ENDBRANCH   5   6
ENDBRANCH   4   5
ENDBRANCH   1   4
BRANCH   1   8
HETATM    8  C5  UNL     1      24.383   3.591  51.159  1.00  0.00     0.327 C 
BRANCH   8   9
HETATM    9  C6  UNL     1      23.400   2.493  51.078  1.00  0.00     0.006 A 
HETATM   10  C7  UNL     1      22.734   2.295  49.858  1.00  0.00     0.012 A 
HETATM   11  C8  UNL     1      21.785   1.315  49.584  1.00  0.00     0.002 A 
HETATM   12  C9  UNL     1      21.475   0.459  50.621  1.00  0.00     0.022 A 
HETATM   13  C10 UNL     1      22.089   0.602  51.829  1.00  0.00     0.044 A 
HETATM   14 BR1  UNL     1      21.685  -0.564  53.286  1.00  0.00    -0.048 Br
HETATM   15  C11 UNL     1      23.018   1.588  52.041  1.00  0.00     0.091 A 
BRANCH  15  16
HETATM   16  O1  UNL     1      23.629   1.718  53.264  1.00  0.00    -0.359 OA
HETATM   17  H15 UNL     1      24.643   1.848  53.253  1.00  0.00     0.217 HD
ENDBRANCH  15  16
ENDBRANCH   8   9
ENDBRANCH   1   8
BRANCH   2  18
HETATM   18  N2  UNL     1      26.916   1.577  52.780  1.00  0.00    -0.312 N 
HETATM   19  H16 UNL     1      26.756   2.389  53.452  1.00  0.00     0.169 HD
BRANCH  18  20
HETATM   20  C13 UNL     1      27.467   0.309  52.906  1.00  0.00     0.035 A 
HETATM   21  C14 UNL     1      26.611  -0.662  52.442  1.00  0.00     0.029 A 
HETATM   22  C15 UNL     1      27.062  -1.987  52.515  1.00  0.00     0.002 A 
HETATM   23  C16 UNL     1      28.325  -2.266  53.039  1.00  0.00     0.000 A 
HETATM   24  C17 UNL     1      29.134  -1.220  53.489  1.00  0.00     0.002 A 
HETATM   25  C18 UNL     1      28.704   0.103  53.426  1.00  0.00     0.029 A 
ENDBRANCH  18  20
ENDBRANCH   2  18
TORSDOF 8
ENDMDL
MODEL 5
REMARK VINA RESULT:      -7.4      2.419      4.985
REMARK  8 active torsions:
REMARK  status: ('A' for Active; 'I' for Inactive)
REMARK    1  A    between atoms: C2_2  and  C3_3 
REMARK    2  A    between atoms: C3_3  and  C4_4 
REMARK    3  A    between atoms: C4_4  and  N1_5 
REMARK    4  A    between atoms: N1_5  and  C5_6 
REMARK    5  A    between atoms: C5_6  and  C6_7 
REMARK    6  A    between atoms: C11_13  and  O1_14 
REMARK    7  A    between atoms: C12_15  and  N2_17 
REMARK    8  A    between atoms: N2_17  and  C13_18 
ROOT
HETATM    1  N1  UNL     1      23.252   0.431  53.300  1.00  0.00     0.130 N 
HETATM    2  C12 UNL     1      24.518   0.101  52.901  1.00  0.00     0.385 A 
HETATM    3  O2  UNL     1      23.941  -0.923  53.443  1.00  0.00    -0.102 OA
ENDROOT
BRANCH   1   4
HETATM    4  C4  UNL     1      22.238  -0.357  53.960  1.00  0.00     0.286 C 
BRANCH   4   5
HETATM    5  C3  UNL     1      20.933   0.402  53.895  1.00  0.00     0.031 C 
BRANCH   5   6
HETATM    6  C2  UNL     1      19.809  -0.469  53.374  1.00  0.00    -0.003 C 
HETATM    7  C1  UNL     1      19.344   0.153  52.060  1.00  0.00     0.005 C 
ENDBRANCH   5   6
ENDBRANCH   4   5
ENDBRANCH   1   4
BRANCH   1   8
HETATM    8  C5  UNL     1      22.834   1.811  53.024  1.00  0.00     0.327 C 
BRANCH   8   9
HETATM    9  C6  UNL     1      23.161   2.248  51.652  1.00  0.00     0.006 A 
HETATM   10  C7  UNL     1      22.336   1.805  50.607  1.00  0.00     0.012 A 
HETATM   11  C8  UNL     1      22.477   2.112  49.256  1.00  0.00     0.002 A 
HETATM   12  C9  UNL     1      23.534   2.933  48.924  1.00  0.00     0.022 A 
HETATM   13  C10 UNL     1      24.369   3.395  49.896  1.00  0.00     0.044 A 
HETATM   14 BR1  UNL     1      25.843   4.534  49.474  1.00  0.00    -0.048 Br
HETATM   15  C11 UNL     1      24.182   3.059  51.212  1.00  0.00     0.091 A 
BRANCH  15  16
HETATM   16  O1  UNL     1      25.033   3.533  52.181  1.00  0.00    -0.359 OA
HETATM   17  H15 UNL     1      25.624   4.325  51.916  1.00  0.00     0.217 HD
ENDBRANCH  15  16
ENDBRANCH   8   9
ENDBRANCH   1   8
BRANCH   2  18
HETATM   18  N2  UNL     1      25.800  -0.191  52.485  1.00  0.00    -0.312 N 
HETATM   19  H16 UNL     1      25.357  -0.688  51.653  1.00  0.00     0.169 HD
BRANCH  18  20
HETATM   20  C13 UNL     1      27.107   0.022  52.904  1.00  0.00     0.035 A 
HETATM   21  C14 UNL     1      27.809  -1.158  52.989  1.00  0.00     0.029 A 
HETATM   22  C15 UNL     1      29.146  -1.068  53.400  1.00  0.00     0.002 A 
HETATM   23  C16 UNL     1      29.700   0.177  53.701  1.00  0.00     0.000 A 
HETATM   24  C17 UNL     1      28.918   1.329  53.589  1.00  0.00     0.002 A 
HETATM   25  C18 UNL     1      27.588   1.261  53.182  1.00  0.00     0.029 A 
ENDBRANCH  18  20
ENDBRANCH   2  18
TORSDOF 8
ENDMDL
MODEL 6
REMARK VINA RESULT:      -7.1      3.293      6.095
REMARK  8 active torsions:
REMARK  status: ('A' for Active; 'I' for Inactive)
REMARK    1  A    between atoms: C2_2  and  C3_3 
REMARK    2  A    between atoms: C3_3  and  C4_4 
REMARK    3  A    between atoms: C4_4  and  N1_5 
REMARK    4  A    between atoms: N1_5  and  C5_6 
REMARK    5  A    between atoms: C5_6  and  C6_7 
REMARK    6  A    between atoms: C11_13  and  O1_14 
REMARK    7  A    between atoms: C12_15  and  N2_17 
REMARK    8  A    between atoms: N2_17  and  C13_18 
ROOT
HETATM    1  N1  UNL     1      24.390   2.159  52.871  1.00  0.00     0.130 N 
HETATM    2  C12 UNL     1      25.562   1.743  53.441  1.00  0.00     0.385 A 
HETATM    3  O2  UNL     1      25.301   2.960  53.798  1.00  0.00    -0.102 OA
ENDROOT
BRANCH   1   4
HETATM    4  C4  UNL     1      23.700   3.425  52.954  1.00  0.00     0.286 C 
BRANCH   4   5
HETATM    5  C3  UNL     1      23.047   3.696  51.619  1.00  0.00     0.031 C 
BRANCH   5   6
HETATM    6  C2  UNL     1      21.695   4.359  51.787  1.00  0.00    -0.003 C 
HETATM    7  C1  UNL     1      21.084   4.469  50.392  1.00  0.00     0.005 C 
ENDBRANCH   5   6
ENDBRANCH   4   5
ENDBRANCH   1   4
BRANCH   1   8
HETATM    8  C5  UNL     1      23.704   1.173  52.027  1.00  0.00     0.327 C 
BRANCH   8   9
HETATM    9  C6  UNL     1      22.730   0.354  52.776  1.00  0.00     0.006 A 
HETATM   10  C7  UNL     1      23.200  -0.396  53.865  1.00  0.00     0.012 A 
HETATM   11  C8  UNL     1      22.441  -1.218  54.692  1.00  0.00     0.002 A 
HETATM   12  C9  UNL     1      21.094  -1.296  54.404  1.00  0.00     0.022 A 
HETATM   13  C10 UNL     1      20.579  -0.590  53.359  1.00  0.00     0.044 A 
HETATM   14 BR1  UNL     1      18.720  -0.674  52.931  1.00  0.00    -0.048 Br
HETATM   15  C11 UNL     1      21.377   0.205  52.577  1.00  0.00     0.091 A 
BRANCH  15  16
HETATM   16  O1  UNL     1      20.842   0.910  51.527  1.00  0.00    -0.359 OA
HETATM   17  H15 UNL     1      19.899   1.281  51.664  1.00  0.00     0.217 HD
ENDBRANCH  15  16
ENDBRANCH   8   9
ENDBRANCH   1   8
BRANCH   2  18
HETATM   18  N2  UNL     1      26.739   1.285  53.995  1.00  0.00    -0.312 N 
HETATM   19  H16 UNL     1      26.643   2.072  54.709  1.00  0.00     0.169 HD
BRANCH  18  20
HETATM   20  C13 UNL     1      27.674   0.282  53.777  1.00  0.00     0.035 A 
HETATM   21  C14 UNL     1      27.098  -0.832  53.213  1.00  0.00     0.029 A 
HETATM   22  C15 UNL     1      27.948  -1.913  52.943  1.00  0.00     0.002 A 
HETATM   23  C16 UNL     1      29.307  -1.824  53.247  1.00  0.00     0.000 A 
HETATM   24  C17 UNL     1      29.814  -0.655  53.819  1.00  0.00     0.002 A 
HETATM   25  C18 UNL     1      28.986   0.430  54.096  1.00  0.00     0.029 A 
ENDBRANCH  18  20
ENDBRANCH   2  18
TORSDOF 8
ENDMDL
MODEL 7
REMARK VINA RESULT:      -7.0      1.771      2.685
REMARK  8 active torsions:
REMARK  status: ('A' for Active; 'I' for Inactive)
REMARK    1  A    between atoms: C2_2  and  C3_3 
REMARK    2  A    between atoms: C3_3  and  C4_4 
REMARK    3  A    between atoms: C4_4  and  N1_5 
REMARK    4  A    between atoms: N1_5  and  C5_6 
REMARK    5  A    between atoms: C5_6  and  C6_7 
REMARK    6  A    between atoms: C11_13  and  O1_14 
REMARK    7  A    between atoms: C12_15  and  N2_17 
REMARK    8  A    between atoms: N2_17  and  C13_18 
ROOT
HETATM    1  N1  UNL     1      24.775   2.943  50.829  1.00  0.00     0.130 N 
HETATM    2  C12 UNL     1      25.786   3.447  50.057  1.00  0.00     0.385 A 
HETATM    3  O2  UNL     1      24.757   3.173  49.320  1.00  0.00    -0.102 OA
ENDROOT
BRANCH   1   4
HETATM    4  C4  UNL     1      23.455   2.482  50.468  1.00  0.00     0.286 C 
BRANCH   4   5
HETATM    5  C3  UNL     1      22.531   2.738  51.635  1.00  0.00     0.031 C 
BRANCH   5   6
HETATM    6  C2  UNL     1      21.632   1.548  51.903  1.00  0.00    -0.003 C 
HETATM    7  C1  UNL     1      20.448   2.066  52.716  1.00  0.00     0.005 C 
ENDBRANCH   5   6
ENDBRANCH   4   5
ENDBRANCH   1   4
BRANCH   1   8
HETATM    8  C5  UNL     1      25.060   2.841  52.266  1.00  0.00     0.327 C 
BRANCH   8   9
HETATM    9  C6  UNL     1      25.842   1.638  52.613  1.00  0.00     0.006 A 
HETATM   10  C7  UNL     1      25.159   0.417  52.723  1.00  0.00     0.012 A 
HETATM   11  C8  UNL     1      25.718  -0.818  53.032  1.00  0.00     0.002 A 
HETATM   12  C9  UNL     1      27.081  -0.833  53.252  1.00  0.00     0.022 A 
HETATM   13  C10 UNL     1      27.798   0.321  53.160  1.00  0.00     0.044 A 
HETATM   14 BR1  UNL     1      29.684   0.339  53.456  1.00  0.00    -0.048 Br
HETATM   15  C11 UNL     1      27.191   1.511  52.850  1.00  0.00     0.091 A 
BRANCH  15  16
HETATM   16  O1  UNL     1      27.929   2.667  52.761  1.00  0.00    -0.359 OA
HETATM   17  H15 UNL     1      28.251   3.068  53.645  1.00  0.00     0.217 HD
ENDBRANCH  15  16
ENDBRANCH   8   9
ENDBRANCH   1   8
BRANCH   2  18
HETATM   18  N2  UNL     1      26.829   3.958  49.313  1.00  0.00    -0.312 N 
HETATM   19  H16 UNL     1      27.274   2.991  49.377  1.00  0.00     0.169 HD
BRANCH  18  20
HETATM   20  C13 UNL     1      27.202   5.160  48.728  1.00  0.00     0.035 A 
HETATM   21  C14 UNL     1      28.537   5.167  48.394  1.00  0.00     0.029 A 
HETATM   22  C15 UNL     1      29.030   6.332  47.790  1.00  0.00     0.002 A 
HETATM   23  C16 UNL     1      28.175   7.411  47.556  1.00  0.00     0.000 A 
HETATM   24  C17 UNL     1      26.831   7.323  47.925  1.00  0.00     0.002 A 
HETATM   25  C18 UNL     1      26.322   6.174  48.526  1.00  0.00     0.029 A 
ENDBRANCH  18  20
ENDBRANCH   2  18
TORSDOF 8
ENDMDL
MODEL 8
REMARK VINA RESULT:      -6.8      2.656      4.409
REMARK  8 active torsions:
REMARK  status: ('A' for Active; 'I' for Inactive)
REMARK    1  A    between atoms: C2_2  and  C3_3 
REMARK    2  A    between atoms: C3_3  and  C4_4 
REMARK    3  A    between atoms: C4_4  and  N1_5 
REMARK    4  A    between atoms: N1_5  and  C5_6 
REMARK    5  A    between atoms: C5_6  and  C6_7 
REMARK    6  A    between atoms: C11_13  and  O1_14 
REMARK    7  A    between atoms: C12_15  and  N2_17 
REMARK    8  A    between atoms: N2_17  and  C13_18 
ROOT
HETATM    1  N1  UNL     1      25.909   2.406  51.626  1.00  0.00     0.130 N 
HETATM    2  C12 UNL     1      25.888   3.260  50.557  1.00  0.00     0.385 A 
HETATM    3  O2  UNL     1      26.877   2.431  50.446  1.00  0.00    -0.102 OA
ENDROOT
BRANCH   1   4
HETATM    4  C4  UNL     1      26.817   1.333  51.956  1.00  0.00     0.286 C 
BRANCH   4   5
HETATM    5  C3  UNL     1      27.310   1.549  53.367  1.00  0.00     0.031 C 
BRANCH   5   6
HETATM    6  C2  UNL     1      27.314   0.258  54.159  1.00  0.00    -0.003 C 
HETATM    7  C1  UNL     1      28.679   0.160  54.835  1.00  0.00     0.005 C 
ENDBRANCH   5   6
ENDBRANCH   4   5
ENDBRANCH   1   4
BRANCH   1   8
HETATM    8  C5  UNL     1      24.842   2.597  52.616  1.00  0.00     0.327 C 
BRANCH   8   9
HETATM    9  C6  UNL     1      23.718   1.655  52.440  1.00  0.00     0.006 A 
HETATM   10  C7  UNL     1      23.707   0.490  53.222  1.00  0.00     0.012 A 
HETATM   11  C8  UNL     1      22.737  -0.508  53.205  1.00  0.00     0.002 A 
HETATM   12  C9  UNL     1      21.688  -0.323  52.329  1.00  0.00     0.022 A 
HETATM   13  C10 UNL     1      21.644   0.789  51.543  1.00  0.00     0.044 A 
HETATM   14 BR1  UNL     1      20.207   1.079  50.320  1.00  0.00    -0.048 Br
HETATM   15  C11 UNL     1      22.630   1.740  51.603  1.00  0.00     0.091 A 
BRANCH  15  16
HETATM   16  O1  UNL     1      22.571   2.857  50.805  1.00  0.00    -0.359 OA
HETATM   17  H15 UNL     1      23.146   2.840  49.959  1.00  0.00     0.217 HD
ENDBRANCH  15  16
ENDBRANCH   8   9
ENDBRANCH   1   8
BRANCH   2  18
HETATM   18  N2  UNL     1      25.834   4.140  49.497  1.00  0.00    -0.312 N 
HETATM   19  H16 UNL     1      24.876   3.728  49.276  1.00  0.00     0.169 HD
BRANCH  18  20
HETATM   20  C13 UNL     1      26.621   5.127  48.918  1.00  0.00     0.035 A 
HETATM   21  C14 UNL     1      25.904   6.278  48.690  1.00  0.00     0.029 A 
HETATM   22  C15 UNL     1      26.597   7.349  48.110  1.00  0.00     0.002 A 
HETATM   23  C16 UNL     1      27.949   7.213  47.793  1.00  0.00     0.000 A 
HETATM   24  C17 UNL     1      28.605   6.009  48.056  1.00  0.00     0.002 A 
HETATM   25  C18 UNL     1      27.935   4.933  48.633  1.00  0.00     0.029 A 
ENDBRANCH  18  20
ENDBRANCH   2  18
TORSDOF 8
ENDMDL
MODEL 9
REMARK VINA RESULT:      -6.7      1.442      5.608
REMARK  8 active torsions:
REMARK  status: ('A' for Active; 'I' for Inactive)
REMARK    1  A    between atoms: C2_2  and  C3_3 
REMARK    2  A    between atoms: C3_3  and  C4_4 
REMARK    3  A    between atoms: C4_4  and  N1_5 
REMARK    4  A    between atoms: N1_5  and  C5_6 
REMARK    5  A    between atoms: C5_6  and  C6_7 
REMARK    6  A    between atoms: C11_13  and  O1_14 
REMARK    7  A    between atoms: C12_15  and  N2_17 
REMARK    8  A    between atoms: N2_17  and  C13_18 
ROOT
HETATM    1  N1  UNL     1      24.948   2.828  50.661  1.00  0.00     0.130 N 
HETATM    2  C12 UNL     1      23.820   2.135  51.007  1.00  0.00     0.385 A 
HETATM    3  O2  UNL     1      23.680   2.657  49.830  1.00  0.00    -0.102 OA
ENDROOT
BRANCH   1   4
HETATM    4  C4  UNL     1      25.261   3.585  49.472  1.00  0.00     0.286 C 
BRANCH   4   5
HETATM    5  C3  UNL     1      26.764   3.671  49.349  1.00  0.00     0.031 C 
BRANCH   5   6
HETATM    6  C2  UNL     1      27.200   5.009  48.787  1.00  0.00    -0.003 C 
HETATM    7  C1  UNL     1      25.977   5.921  48.825  1.00  0.00     0.005 C 
ENDBRANCH   5   6
ENDBRANCH   4   5
ENDBRANCH   1   4
BRANCH   1   8
HETATM    8  C5  UNL     1      26.032   2.817  51.651  1.00  0.00     0.327 C 
BRANCH   8   9
HETATM    9  C6  UNL     1      26.195   1.507  52.312  1.00  0.00     0.006 A 
HETATM   10  C7  UNL     1      26.587   0.415  51.521  1.00  0.00     0.012 A 
HETATM   11  C8  UNL     1      26.797  -0.889  51.959  1.00  0.00     0.002 A 
HETATM   12  C9  UNL     1      26.598  -1.121  53.304  1.00  0.00     0.022 A 
HETATM   13  C10 UNL     1      26.217  -0.100  54.122  1.00  0.00     0.044 A 
HETATM   14 BR1  UNL     1      25.933  -0.383  55.989  1.00  0.00    -0.048 Br
HETATM   15  C11 UNL     1      26.024   1.167  53.634  1.00  0.00     0.091 A 
BRANCH  15  16
HETATM   16  O1  UNL     1      25.640   2.186  54.472  1.00  0.00    -0.359 OA
HETATM   17  H15 UNL     1      26.383   2.622  55.024  1.00  0.00     0.217 HD
ENDBRANCH  15  16
ENDBRANCH   8   9
ENDBRANCH   1   8
BRANCH   2  18
HETATM   18  N2  UNL     1      22.701   1.428  51.393  1.00  0.00    -0.312 N 
HETATM   19  H16 UNL     1      22.327   1.590  50.408  1.00  0.00     0.169 HD
BRANCH  18  20
HETATM   20  C13 UNL     1      22.212   0.783  52.521  1.00  0.00     0.035 A 
HETATM   21  C14 UNL     1      22.975  -0.314  52.847  1.00  0.00     0.029 A 
HETATM   22  C15 UNL     1      22.578  -1.045  53.975  1.00  0.00     0.002 A 
HETATM   23  C16 UNL     1      21.458  -0.646  54.706  1.00  0.00     0.000 A 
HETATM   24  C17 UNL     1      20.737   0.482  54.308  1.00  0.00     0.002 A 
HETATM   25  C18 UNL     1      21.114   1.222  53.190  1.00  0.00     0.029 A 
ENDBRANCH  18  20
ENDBRANCH   2  18
TORSDOF 8
ENDMDL
