MODEL 1
REMARK VINA RESULT:      -8.9      0.000      0.000
REMARK  4 active torsions:
REMARK  status: ('A' for Active; 'I' for Inactive)
REMARK    1  A    between atoms: O1_2  and  C2_3 
REMARK    2  A    between atoms: N3_13  and  C9_14 
REMARK    3  A    between atoms: C12_17  and  C13_18 
REMARK       I    between atoms: C13_18  and  N4_20 
REMARK    4  A    between atoms: N4_20  and  C14_21 
ROOT
HETATM    1  C9  UNL     1      23.719   0.284  53.167  1.00  0.00     0.034 A 
HETATM    2  C10 UNL     1      22.946  -0.492  53.988  1.00  0.00     0.030 A 
HETATM    3  C11 UNL     1      21.595  -0.713  53.750  1.00  0.00     0.019 A 
HETATM    4  C12 UNL     1      21.021  -0.119  52.640  1.00  0.00     0.032 A 
HETATM    5  C20 UNL     1      21.806   0.653  51.832  1.00  0.00     0.019 A 
HETATM    6  C21 UNL     1      23.164   0.882  52.060  1.00  0.00     0.030 A 
ENDROOT
BRANCH   1   7
HETATM    7  N3  UNL     1      25.062   0.559  53.327  1.00  0.00    -0.326 N 
HETATM    8  C5  UNL     1      25.757   1.812  52.938  1.00  0.00     0.351 C 
HETATM    9  N2  UNL     1      26.226   2.035  54.348  1.00  0.00    -0.293 N 
HETATM   10  O2  UNL     1      26.906   1.314  52.008  1.00  0.00    -0.305 OA
HETATM   11  N1  UNL     1      26.322   0.770  55.256  1.00  0.00    -0.126 NA
HETATM   12  H5  UNL     1      26.496   2.971  54.780  1.00  0.00     0.180 HD
HETATM   13  C4  UNL     1      27.219  -0.066  54.567  1.00  0.00     0.111 C 
HETATM   14  C3  UNL     1      28.759  -0.709  54.091  1.00  0.00     0.089 C 
HETATM   15  C8  UNL     1      25.882  -0.483  53.912  1.00  0.00     0.144 C 
HETATM   16  C2  UNL     1      28.583   0.328  53.308  1.00  0.00     0.086 C 
HETATM   17  C6  UNL     1      27.260   0.008  52.641  1.00  0.00     0.101 C 
HETATM   18  C7  UNL     1      26.335  -0.989  52.543  1.00  0.00     0.040 C 
BRANCH  16  19
HETATM   19  O1  UNL     1      29.699   1.158  53.486  1.00  0.00    -0.357 OA
HETATM   20  C1  UNL     1      29.693   2.228  54.404  1.00  0.00     0.209 C 
ENDBRANCH  16  19
ENDBRANCH   1   7
BRANCH   4  21
HETATM   21  C13 UNL     1      19.614  -0.372  52.420  1.00  0.00     0.256 C 
HETATM   22  O3  UNL     1      19.087   0.002  51.341  1.00  0.00    -0.267 OA
HETATM   23  N4  UNL     1      18.751  -1.021  53.338  1.00  0.00    -0.323 N 
HETATM   24  H11 UNL     1      19.125  -1.348  54.232  1.00  0.00     0.169 HD
BRANCH  23  25
HETATM   25  C14 UNL     1      17.363  -1.221  53.021  1.00  0.00     0.035 A 
HETATM   26  C15 UNL     1      17.099  -2.585  53.037  1.00  0.00     0.029 A 
HETATM   27  C16 UNL     1      15.827  -3.082  52.765  1.00  0.00     0.002 A 
HETATM   28  C17 UNL     1      14.824  -2.148  52.472  1.00  0.00     0.000 A 
HETATM   29  C18 UNL     1      15.108  -0.799  52.461  1.00  0.00     0.002 A 
HETATM   30  C19 UNL     1      16.356  -0.327  52.730  1.00  0.00     0.029 A 
ENDBRANCH  23  25
ENDBRANCH   4  21
TORSDOF 4
ENDMDL
MODEL 2
REMARK VINA RESULT:      -8.9      1.928      2.585
REMARK  4 active torsions:
REMARK  status: ('A' for Active; 'I' for Inactive)
REMARK    1  A    between atoms: O1_2  and  C2_3 
REMARK    2  A    between atoms: N3_13  and  C9_14 
REMARK    3  A    between atoms: C12_17  and  C13_18 
REMARK       I    between atoms: C13_18  and  N4_20 
REMARK    4  A    between atoms: N4_20  and  C14_21 
ROOT
HETATM    1  C9  UNL     1      23.671   0.322  52.662  1.00  0.00     0.034 A 
HETATM    2  C10 UNL     1      23.016   1.103  51.749  1.00  0.00     0.030 A 
HETATM    3  C11 UNL     1      21.641   1.044  51.567  1.00  0.00     0.019 A 
HETATM    4  C12 UNL     1      20.915   0.157  52.343  1.00  0.00     0.032 A 
HETATM    5  C20 UNL     1      21.585  -0.616  53.249  1.00  0.00     0.019 A 
HETATM    6  C21 UNL     1      22.966  -0.566  53.441  1.00  0.00     0.030 A 
ENDROOT
BRANCH   1   7
HETATM    7  N3  UNL     1      25.029   0.311  52.907  1.00  0.00    -0.326 N 
HETATM    8  C5  UNL     1      25.834  -0.850  53.360  1.00  0.00     0.351 C 
HETATM    9  N2  UNL     1      26.726  -0.751  52.156  1.00  0.00    -0.293 N 
HETATM   10  O2  UNL     1      26.530  -0.325  54.653  1.00  0.00    -0.305 OA
HETATM   11  N1  UNL     1      26.807   0.645  51.464  1.00  0.00    -0.126 NA
HETATM   12  H5  UNL     1      27.304  -1.542  51.734  1.00  0.00     0.180 HD
HETATM   13  C4  UNL     1      27.266   1.495  52.486  1.00  0.00     0.111 C 
HETATM   14  C3  UNL     1      28.427   2.305  53.490  1.00  0.00     0.089 C 
HETATM   15  C8  UNL     1      25.739   1.562  52.725  1.00  0.00     0.144 C 
HETATM   16  C2  UNL     1      28.259   1.137  54.062  1.00  0.00     0.086 C 
HETATM   17  C6  UNL     1      26.763   1.109  54.307  1.00  0.00     0.101 C 
HETATM   18  C7  UNL     1      25.658   1.903  54.213  1.00  0.00     0.040 C 
BRANCH  16  19
HETATM   19  O1  UNL     1      29.530   0.552  54.159  1.00  0.00    -0.357 OA
HETATM   20  C1  UNL     1      29.786  -0.755  53.697  1.00  0.00     0.209 C 
ENDBRANCH  16  19
ENDBRANCH   1   7
BRANCH   4  21
HETATM   21  C13 UNL     1      19.486   0.123  52.131  1.00  0.00     0.256 C 
HETATM   22  O3  UNL     1      18.772  -0.587  52.885  1.00  0.00    -0.267 OA
HETATM   23  N4  UNL     1      18.796   0.839  51.121  1.00  0.00    -0.323 N 
HETATM   24  H11 UNL     1      19.325   1.434  50.479  1.00  0.00     0.169 HD
BRANCH  23  25
HETATM   25  C14 UNL     1      17.367   0.734  50.995  1.00  0.00     0.035 A 
HETATM   26  C15 UNL     1      17.078  -0.190  49.998  1.00  0.00     0.029 A 
HETATM   27  C16 UNL     1      15.766  -0.500  49.653  1.00  0.00     0.002 A 
HETATM   28  C17 UNL     1      14.747   0.161  50.353  1.00  0.00     0.000 A 
HETATM   29  C18 UNL     1      15.056   1.075  51.338  1.00  0.00     0.002 A 
HETATM   30  C19 UNL     1      16.344   1.367  51.666  1.00  0.00     0.029 A 
ENDBRANCH  23  25
ENDBRANCH   4  21
TORSDOF 4
ENDMDL
MODEL 3
REMARK VINA RESULT:      -8.2      7.303      9.166
REMARK  4 active torsions:
REMARK  status: ('A' for Active; 'I' for Inactive)
REMARK    1  A    between atoms: O1_2  and  C2_3 
REMARK    2  A    between atoms: N3_13  and  C9_14 
REMARK    3  A    between atoms: C12_17  and  C13_18 
REMARK       I    between atoms: C13_18  and  N4_20 
REMARK    4  A    between atoms: N4_20  and  C14_21 
ROOT
HETATM    1  C9  UNL     1      26.325   7.033  49.545  1.00  0.00     0.034 A 
HETATM    2  C10 UNL     1      26.619   5.810  49.005  1.00  0.00     0.030 A 
HETATM    3  C11 UNL     1      25.919   4.659  49.341  1.00  0.00     0.019 A 
HETATM    4  C12 UNL     1      24.887   4.765  50.258  1.00  0.00     0.032 A 
HETATM    5  C20 UNL     1      24.608   5.993  50.787  1.00  0.00     0.019 A 
HETATM    6  C21 UNL     1      25.304   7.156  50.457  1.00  0.00     0.030 A 
ENDROOT
BRANCH   1   7
HETATM    7  N3  UNL     1      26.968   8.224  49.273  1.00  0.00    -0.326 N 
HETATM    8  C5  UNL     1      27.126   9.372  50.201  1.00  0.00     0.351 C 
HETATM    9  N2  UNL     1      28.622   9.308  50.087  1.00  0.00    -0.293 N 
HETATM   10  O2  UNL     1      26.526  10.569  49.401  1.00  0.00    -0.305 OA
HETATM   11  N1  UNL     1      29.193   8.643  48.795  1.00  0.00    -0.126 NA
HETATM   12  H5  UNL     1      29.324   9.671  50.803  1.00  0.00     0.180 HD
HETATM   13  C4  UNL     1      28.654   9.423  47.756  1.00  0.00     0.111 C 
HETATM   14  C3  UNL     1      28.563  10.738  46.629  1.00  0.00     0.089 C 
HETATM   15  C8  UNL     1      27.526   8.382  47.944  1.00  0.00     0.144 C 
HETATM   16  C2  UNL     1      28.029  11.214  47.728  1.00  0.00     0.086 C 
HETATM   17  C6  UNL     1      26.916  10.221  48.002  1.00  0.00     0.101 C 
HETATM   18  C7  UNL     1      26.297   9.141  47.445  1.00  0.00     0.040 C 
BRANCH  16  19
HETATM   19  O1  UNL     1      28.745  12.376  48.050  1.00  0.00    -0.357 OA
HETATM   20  C1  UNL     1      28.096  13.591  48.351  1.00  0.00     0.209 C 
ENDBRANCH  16  19
ENDBRANCH   1   7
BRANCH   4  21
HETATM   21  C13 UNL     1      24.176   3.549  50.582  1.00  0.00     0.256 C 
HETATM   22  O3  UNL     1      23.948   2.712  49.671  1.00  0.00    -0.267 OA
HETATM   23  N4  UNL     1      23.699   3.205  51.871  1.00  0.00    -0.323 N 
HETATM   24  H11 UNL     1      23.857   3.847  52.652  1.00  0.00     0.169 HD
BRANCH  23  25
HETATM   25  C14 UNL     1      23.000   1.967  52.087  1.00  0.00     0.035 A 
HETATM   26  C15 UNL     1      23.814   1.124  52.834  1.00  0.00     0.029 A 
HETATM   27  C16 UNL     1      23.398  -0.154  53.198  1.00  0.00     0.002 A 
HETATM   28  C17 UNL     1      22.122  -0.555  52.778  1.00  0.00     0.000 A 
HETATM   29  C18 UNL     1      21.331   0.297  52.037  1.00  0.00     0.002 A 
HETATM   30  C19 UNL     1      21.751   1.544  51.689  1.00  0.00     0.029 A 
ENDBRANCH  23  25
ENDBRANCH   4  21
TORSDOF 4
ENDMDL
MODEL 4
REMARK VINA RESULT:      -8.2      5.902     11.544
REMARK  4 active torsions:
REMARK  status: ('A' for Active; 'I' for Inactive)
REMARK    1  A    between atoms: O1_2  and  C2_3 
REMARK    2  A    between atoms: N3_13  and  C9_14 
REMARK    3  A    between atoms: C12_17  and  C13_18 
REMARK       I    between atoms: C13_18  and  N4_20 
REMARK    4  A    between atoms: N4_20  and  C14_21 
ROOT
HETATM    1  C9  UNL     1      24.832   4.746  49.742  1.00  0.00     0.034 A 
HETATM    2  C10 UNL     1      25.876   3.895  49.500  1.00  0.00     0.030 A 
HETATM    3  C11 UNL     1      27.105   4.337  49.027  1.00  0.00     0.019 A 
HETATM    4  C12 UNL     1      27.267   5.692  48.794  1.00  0.00     0.032 A 
HETATM    5  C20 UNL     1      26.215   6.527  49.040  1.00  0.00     0.019 A 
HETATM    6  C21 UNL     1      24.976   6.095  49.515  1.00  0.00     0.030 A 
ENDROOT
BRANCH   1   7
HETATM    7  N3  UNL     1      23.581   4.396  50.207  1.00  0.00    -0.326 N 
HETATM    8  C5  UNL     1      22.325   5.165  50.022  1.00  0.00     0.351 C 
HETATM    9  N2  UNL     1      21.666   4.000  49.341  1.00  0.00    -0.293 N 
HETATM   10  O2  UNL     1      21.806   5.366  51.480  1.00  0.00    -0.305 OA
HETATM   11  N1  UNL     1      22.242   2.587  49.668  1.00  0.00    -0.126 NA
HETATM   12  H5  UNL     1      20.848   4.051  48.659  1.00  0.00     0.180 HD
HETATM   13  C4  UNL     1      22.098   2.486  51.063  1.00  0.00     0.111 C 
HETATM   14  C3  UNL     1      21.304   2.135  52.566  1.00  0.00     0.089 C 
HETATM   15  C8  UNL     1      23.483   3.167  50.970  1.00  0.00     0.144 C 
HETATM   16  C2  UNL     1      20.913   3.351  52.267  1.00  0.00     0.086 C 
HETATM   17  C6  UNL     1      22.231   4.088  52.127  1.00  0.00     0.101 C 
HETATM   18  C7  UNL     1      23.571   3.909  52.304  1.00  0.00     0.040 C 
BRANCH  16  19
HETATM   19  O1  UNL     1      19.511   3.328  52.253  1.00  0.00    -0.357 OA
HETATM   20  C1  UNL     1      18.767   3.904  51.203  1.00  0.00     0.209 C 
ENDBRANCH  16  19
ENDBRANCH   1   7
BRANCH   4  21
HETATM   21  C13 UNL     1      28.559   6.119  48.306  1.00  0.00     0.256 C 
HETATM   22  O3  UNL     1      28.619   6.796  47.247  1.00  0.00    -0.267 OA
HETATM   23  N4  UNL     1      29.799   5.836  48.930  1.00  0.00    -0.323 N 
HETATM   24  H11 UNL     1      29.811   5.290  49.796  1.00  0.00     0.169 HD
BRANCH  23  25
HETATM   25  C14 UNL     1      31.031   6.308  48.359  1.00  0.00     0.035 A 
HETATM   26  C15 UNL     1      31.476   7.394  49.103  1.00  0.00     0.029 A 
HETATM   27  C16 UNL     1      32.654   8.062  48.781  1.00  0.00     0.002 A 
HETATM   28  C17 UNL     1      33.373   7.594  47.672  1.00  0.00     0.000 A 
HETATM   29  C18 UNL     1      32.913   6.515  46.947  1.00  0.00     0.002 A 
HETATM   30  C19 UNL     1      31.760   5.870  47.274  1.00  0.00     0.029 A 
ENDBRANCH  23  25
ENDBRANCH   4  21
TORSDOF 4
ENDMDL
MODEL 5
REMARK VINA RESULT:      -8.1      8.074     12.848
REMARK  4 active torsions:
REMARK  status: ('A' for Active; 'I' for Inactive)
REMARK    1  A    between atoms: O1_2  and  C2_3 
REMARK    2  A    between atoms: N3_13  and  C9_14 
REMARK    3  A    between atoms: C12_17  and  C13_18 
REMARK       I    between atoms: C13_18  and  N4_20 
REMARK    4  A    between atoms: N4_20  and  C14_21 
ROOT
HETATM    1  C9  UNL     1      26.586   6.587  48.511  1.00  0.00     0.034 A 
HETATM    2  C10 UNL     1      27.541   7.473  48.092  1.00  0.00     0.030 A 
HETATM    3  C11 UNL     1      28.861   7.099  47.875  1.00  0.00     0.019 A 
HETATM    4  C12 UNL     1      29.211   5.778  48.096  1.00  0.00     0.032 A 
HETATM    5  C20 UNL     1      28.246   4.908  48.515  1.00  0.00     0.019 A 
HETATM    6  C21 UNL     1      26.917   5.271  48.736  1.00  0.00     0.030 A 
ENDROOT
BRANCH   1   7
HETATM    7  N3  UNL     1      25.257   6.870  48.754  1.00  0.00    -0.326 N 
HETATM    8  C5  UNL     1      24.447   7.928  48.101  1.00  0.00     0.351 C 
HETATM    9  N2  UNL     1      23.453   6.917  47.608  1.00  0.00    -0.293 N 
HETATM   10  O2  UNL     1      23.898   8.757  49.304  1.00  0.00    -0.305 OA
HETATM   11  N1  UNL     1      23.369   5.578  48.405  1.00  0.00    -0.126 NA
HETATM   12  H5  UNL     1      22.804   7.030  46.769  1.00  0.00     0.180 HD
HETATM   13  C4  UNL     1      23.045   5.989  49.710  1.00  0.00     0.111 C 
HETATM   14  C3  UNL     1      22.019   6.445  51.033  1.00  0.00     0.089 C 
HETATM   15  C8  UNL     1      24.589   6.070  49.762  1.00  0.00     0.144 C 
HETATM   16  C2  UNL     1      22.187   7.554  50.354  1.00  0.00     0.086 C 
HETATM   17  C6  UNL     1      23.697   7.693  50.333  1.00  0.00     0.101 C 
HETATM   18  C7  UNL     1      24.823   7.120  50.848  1.00  0.00     0.040 C 
BRANCH  16  19
HETATM   19  O1  UNL     1      20.906   8.023  50.030  1.00  0.00    -0.357 OA
HETATM   20  C1  UNL     1      20.711   9.221  49.312  1.00  0.00     0.209 C 
ENDBRANCH  16  19
ENDBRANCH   1   7
BRANCH   4  21
HETATM   21  C13 UNL     1      30.592   5.421  47.857  1.00  0.00     0.256 C 
HETATM   22  O3  UNL     1      31.501   6.191  48.262  1.00  0.00    -0.267 OA
HETATM   23  N4  UNL     1      31.026   4.249  47.190  1.00  0.00    -0.323 N 
HETATM   24  H11 UNL     1      30.330   3.585  46.840  1.00  0.00     0.169 HD
BRANCH  23  25
HETATM   25  C14 UNL     1      32.428   3.989  47.003  1.00  0.00     0.035 A 
HETATM   26  C15 UNL     1      32.773   4.339  45.703  1.00  0.00     0.029 A 
HETATM   27  C16 UNL     1      34.076   4.195  45.234  1.00  0.00     0.002 A 
HETATM   28  C17 UNL     1      35.025   3.681  46.128  1.00  0.00     0.000 A 
HETATM   29  C18 UNL     1      34.661   3.339  47.413  1.00  0.00     0.002 A 
HETATM   30  C19 UNL     1      33.384   3.486  47.859  1.00  0.00     0.029 A 
ENDBRANCH  23  25
ENDBRANCH   4  21
TORSDOF 4
ENDMDL
MODEL 6
REMARK VINA RESULT:      -8.1      5.902     11.207
REMARK  4 active torsions:
REMARK  status: ('A' for Active; 'I' for Inactive)
REMARK    1  A    between atoms: O1_2  and  C2_3 
REMARK    2  A    between atoms: N3_13  and  C9_14 
REMARK    3  A    between atoms: C12_17  and  C13_18 
REMARK       I    between atoms: C13_18  and  N4_20 
REMARK    4  A    between atoms: N4_20  and  C14_21 
ROOT
HETATM    1  C9  UNL     1      25.029   4.325  50.030  1.00  0.00     0.034 A 
HETATM    2  C10 UNL     1      26.146   3.759  49.479  1.00  0.00     0.030 A 
HETATM    3  C11 UNL     1      27.168   4.516  48.921  1.00  0.00     0.019 A 
HETATM    4  C12 UNL     1      27.039   5.894  48.927  1.00  0.00     0.032 A 
HETATM    5  C20 UNL     1      25.917   6.442  49.479  1.00  0.00     0.019 A 
HETATM    6  C21 UNL     1      24.884   5.693  50.043  1.00  0.00     0.030 A 
ENDROOT
BRANCH   1   7
HETATM    7  N3  UNL     1      23.967   3.653  50.601  1.00  0.00    -0.326 N 
HETATM    8  C5  UNL     1      22.625   4.214  50.895  1.00  0.00     0.351 C 
HETATM    9  N2  UNL     1      21.960   3.174  50.040  1.00  0.00    -0.293 N 
HETATM   10  O2  UNL     1      22.439   3.931  52.418  1.00  0.00    -0.305 OA
HETATM   11  N1  UNL     1      22.751   1.847  49.820  1.00  0.00    -0.126 NA
HETATM   12  H5  UNL     1      21.005   3.260  49.573  1.00  0.00     0.180 HD
HETATM   13  C4  UNL     1      22.947   1.358  51.124  1.00  0.00     0.111 C 
HETATM   14  C3  UNL     1      22.569   0.492  52.579  1.00  0.00     0.089 C 
HETATM   15  C8  UNL     1      24.187   2.269  50.972  1.00  0.00     0.144 C 
HETATM   16  C2  UNL     1      21.986   1.656  52.732  1.00  0.00     0.086 C 
HETATM   17  C6  UNL     1      23.144   2.622  52.567  1.00  0.00     0.101 C 
HETATM   18  C7  UNL     1      24.500   2.637  52.422  1.00  0.00     0.040 C 
BRANCH  16  19
HETATM   19  O1  UNL     1      20.631   1.396  52.980  1.00  0.00    -0.357 OA
HETATM   20  C1  UNL     1      20.192   0.156  53.490  1.00  0.00     0.209 C 
ENDBRANCH  16  19
ENDBRANCH   1   7
BRANCH   4  21
HETATM   21  C13 UNL     1      28.122   6.652  48.341  1.00  0.00     0.256 C 
HETATM   22  O3  UNL     1      27.935   7.238  47.243  1.00  0.00    -0.267 OA
HETATM   23  N4  UNL     1      29.412   6.799  48.908  1.00  0.00    -0.323 N 
HETATM   24  H11 UNL     1      29.621   6.347  49.801  1.00  0.00     0.169 HD
BRANCH  23  25
HETATM   25  C14 UNL     1      30.421   7.577  48.241  1.00  0.00     0.035 A 
HETATM   26  C15 UNL     1      30.457   8.842  48.815  1.00  0.00     0.029 A 
HETATM   27  C16 UNL     1      31.344   9.817  48.369  1.00  0.00     0.002 A 
HETATM   28  C17 UNL     1      32.200   9.471  47.315  1.00  0.00     0.000 A 
HETATM   29  C18 UNL     1      32.147   8.210  46.759  1.00  0.00     0.002 A 
HETATM   30  C19 UNL     1      31.275   7.265  47.205  1.00  0.00     0.029 A 
ENDBRANCH  23  25
ENDBRANCH   4  21
TORSDOF 4
ENDMDL
MODEL 7
REMARK VINA RESULT:      -8.0      7.914     10.366
REMARK  4 active torsions:
REMARK  status: ('A' for Active; 'I' for Inactive)
REMARK    1  A    between atoms: O1_2  and  C2_3 
REMARK    2  A    between atoms: N3_13  and  C9_14 
REMARK    3  A    between atoms: C12_17  and  C13_18 
REMARK       I    between atoms: C13_18  and  N4_20 
REMARK    4  A    between atoms: N4_20  and  C14_21 
ROOT
HETATM    1  C9  UNL     1      27.264   6.972  48.288  1.00  0.00     0.034 A 
HETATM    2  C10 UNL     1      26.119   6.977  49.039  1.00  0.00     0.030 A 
HETATM    3  C11 UNL     1      25.654   5.846  49.697  1.00  0.00     0.019 A 
HETATM    4  C12 UNL     1      26.383   4.675  49.582  1.00  0.00     0.032 A 
HETATM    5  C20 UNL     1      27.522   4.688  48.829  1.00  0.00     0.019 A 
HETATM    6  C21 UNL     1      28.000   5.817  48.163  1.00  0.00     0.030 A 
ENDROOT
BRANCH   1   7
HETATM    7  N3  UNL     1      27.797   8.042  47.600  1.00  0.00    -0.326 N 
HETATM    8  C5  UNL     1      28.594   7.978  46.349  1.00  0.00     0.351 C 
HETATM    9  N2  UNL     1      27.613   8.861  45.633  1.00  0.00    -0.293 N 
HETATM   10  O2  UNL     1      29.907   8.735  46.718  1.00  0.00    -0.305 OA
HETATM   11  N1  UNL     1      26.742   9.799  46.525  1.00  0.00    -0.126 NA
HETATM   12  H5  UNL     1      27.458   8.904  44.579  1.00  0.00     0.180 HD
HETATM   13  C4  UNL     1      27.690  10.576  47.213  1.00  0.00     0.111 C 
HETATM   14  C3  UNL     1      28.781  11.900  47.480  1.00  0.00     0.089 C 
HETATM   15  C8  UNL     1      27.578   9.361  48.162  1.00  0.00     0.144 C 
HETATM   16  C2  UNL     1      29.481  11.035  46.787  1.00  0.00     0.086 C 
HETATM   17  C6  UNL     1      29.396   9.788  47.646  1.00  0.00     0.101 C 
HETATM   18  C7  UNL     1      28.938   9.364  48.859  1.00  0.00     0.040 C 
BRANCH  16  19
HETATM   19  O1  UNL     1      29.945  11.713  45.651  1.00  0.00    -0.357 OA
HETATM   20  C1  UNL     1      31.300  12.071  45.497  1.00  0.00     0.209 C 
ENDBRANCH  16  19
ENDBRANCH   1   7
BRANCH   4  21
HETATM   21  C13 UNL     1      25.873   3.518  50.282  1.00  0.00     0.256 C 
HETATM   22  O3  UNL     1      24.891   2.896  49.801  1.00  0.00    -0.267 OA
HETATM   23  N4  UNL     1      26.394   3.007  51.497  1.00  0.00    -0.323 N 
HETATM   24  H11 UNL     1      27.194   3.472  51.934  1.00  0.00     0.169 HD
BRANCH  23  25
HETATM   25  C14 UNL     1      25.809   1.847  52.114  1.00  0.00     0.035 A 
HETATM   26  C15 UNL     1      26.679   0.775  51.952  1.00  0.00     0.029 A 
HETATM   27  C16 UNL     1      26.375  -0.488  52.451  1.00  0.00     0.002 A 
HETATM   28  C17 UNL     1      25.154  -0.634  53.123  1.00  0.00     0.000 A 
HETATM   29  C18 UNL     1      24.306   0.442  53.271  1.00  0.00     0.002 A 
HETATM   30  C19 UNL     1      24.615   1.672  52.779  1.00  0.00     0.029 A 
ENDBRANCH  23  25
ENDBRANCH   4  21
TORSDOF 4
ENDMDL
MODEL 8
REMARK VINA RESULT:      -8.0      6.363      8.087
REMARK  4 active torsions:
REMARK  status: ('A' for Active; 'I' for Inactive)
REMARK    1  A    between atoms: O1_2  and  C2_3 
REMARK    2  A    between atoms: N3_13  and  C9_14 
REMARK    3  A    between atoms: C12_17  and  C13_18 
REMARK       I    between atoms: C13_18  and  N4_20 
REMARK    4  A    between atoms: N4_20  and  C14_21 
ROOT
HETATM    1  C9  UNL     1      25.377   5.959  49.912  1.00  0.00     0.034 A 
HETATM    2  C10 UNL     1      24.374   5.989  50.843  1.00  0.00     0.030 A 
HETATM    3  C11 UNL     1      23.774   4.836  51.330  1.00  0.00     0.019 A 
HETATM    4  C12 UNL     1      24.215   3.615  50.848  1.00  0.00     0.032 A 
HETATM    5  C20 UNL     1      25.216   3.603  49.919  1.00  0.00     0.019 A 
HETATM    6  C21 UNL     1      25.826   4.755  49.422  1.00  0.00     0.030 A 
ENDROOT
BRANCH   1   7
HETATM    7  N3  UNL     1      26.025   7.051  49.371  1.00  0.00    -0.326 N 
HETATM    8  C5  UNL     1      26.396   8.299  50.084  1.00  0.00     0.351 C 
HETATM    9  N2  UNL     1      27.846   8.108  49.746  1.00  0.00    -0.293 N 
HETATM   10  O2  UNL     1      25.732   9.418  49.223  1.00  0.00    -0.305 OA
HETATM   11  N1  UNL     1      28.158   7.233  48.492  1.00  0.00    -0.126 NA
HETATM   12  H5  UNL     1      28.675   8.512  50.281  1.00  0.00     0.180 HD
HETATM   13  C4  UNL     1      27.494   7.902  47.448  1.00  0.00     0.111 C 
HETATM   14  C3  UNL     1      27.284   9.056  46.169  1.00  0.00     0.089 C 
HETATM   15  C8  UNL     1      26.361   6.984  47.962  1.00  0.00     0.144 C 
HETATM   16  C2  UNL     1      26.966   9.715  47.257  1.00  0.00     0.086 C 
HETATM   17  C6  UNL     1      25.865   8.854  47.846  1.00  0.00     0.101 C 
HETATM   18  C7  UNL     1      25.107   7.758  47.558  1.00  0.00     0.040 C 
BRANCH  16  19
HETATM   19  O1  UNL     1      27.785  10.853  47.289  1.00  0.00    -0.357 OA
HETATM   20  C1  UNL     1      28.269  11.389  48.500  1.00  0.00     0.209 C 
ENDBRANCH  16  19
ENDBRANCH   1   7
BRANCH   4  21
HETATM   21  C13 UNL     1      23.572   2.434  51.379  1.00  0.00     0.256 C 
HETATM   22  O3  UNL     1      23.159   1.552  50.582  1.00  0.00    -0.267 OA
HETATM   23  N4  UNL     1      23.358   2.173  52.755  1.00  0.00    -0.323 N 
HETATM   24  H11 UNL     1      23.674   2.854  53.449  1.00  0.00     0.169 HD
BRANCH  23  25
HETATM   25  C14 UNL     1      22.705   0.963  53.178  1.00  0.00     0.035 A 
HETATM   26  C15 UNL     1      21.338   1.200  53.247  1.00  0.00     0.029 A 
HETATM   27  C16 UNL     1      20.446   0.203  53.632  1.00  0.00     0.002 A 
HETATM   28  C17 UNL     1      20.986  -1.051  53.948  1.00  0.00     0.000 A 
HETATM   29  C18 UNL     1      22.346  -1.264  53.874  1.00  0.00     0.002 A 
HETATM   30  C19 UNL     1      23.206  -0.280  53.495  1.00  0.00     0.029 A 
ENDBRANCH  23  25
ENDBRANCH   4  21
TORSDOF 4
ENDMDL
MODEL 9
REMARK VINA RESULT:      -7.9      7.931     10.038
REMARK  4 active torsions:
REMARK  status: ('A' for Active; 'I' for Inactive)
REMARK    1  A    between atoms: O1_2  and  C2_3 
REMARK    2  A    between atoms: N3_13  and  C9_14 
REMARK    3  A    between atoms: C12_17  and  C13_18 
REMARK       I    between atoms: C13_18  and  N4_20 
REMARK    4  A    between atoms: N4_20  and  C14_21 
ROOT
HETATM    1  C9  UNL     1      27.799   7.412  48.484  1.00  0.00     0.034 A 
HETATM    2  C10 UNL     1      26.613   7.532  49.157  1.00  0.00     0.030 A 
HETATM    3  C11 UNL     1      25.869   6.431  49.558  1.00  0.00     0.019 A 
HETATM    4  C12 UNL     1      26.353   5.169  49.259  1.00  0.00     0.032 A 
HETATM    5  C20 UNL     1      27.537   5.067  48.586  1.00  0.00     0.019 A 
HETATM    6  C21 UNL     1      28.295   6.166  48.178  1.00  0.00     0.030 A 
ENDROOT
BRANCH   1   7
HETATM    7  N3  UNL     1      28.601   8.447  48.046  1.00  0.00    -0.326 N 
HETATM    8  C5  UNL     1      29.218   8.575  46.703  1.00  0.00     0.351 C 
HETATM    9  N2  UNL     1      28.535   9.892  46.472  1.00  0.00    -0.293 N 
HETATM   10  O2  UNL     1      30.736   8.747  47.018  1.00  0.00    -0.305 OA
HETATM   11  N1  UNL     1      28.111  10.688  47.745  1.00  0.00    -0.126 NA
HETATM   12  H5  UNL     1      28.314  10.328  45.524  1.00  0.00     0.180 HD
HETATM   13  C4  UNL     1      29.322  10.878  48.436  1.00  0.00     0.111 C 
HETATM   14  C3  UNL     1      30.813  11.656  48.861  1.00  0.00     0.089 C 
HETATM   15  C8  UNL     1      28.888   9.503  48.996  1.00  0.00     0.144 C 
HETATM   16  C2  UNL     1      31.119  10.909  47.828  1.00  0.00     0.086 C 
HETATM   17  C6  UNL     1      30.692   9.529  48.290  1.00  0.00     0.101 C 
HETATM   18  C7  UNL     1      30.224   8.877  49.392  1.00  0.00     0.040 C 
BRANCH  16  19
HETATM   19  O1  UNL     1      31.684  11.763  46.870  1.00  0.00    -0.357 OA
HETATM   20  C1  UNL     1      32.925  11.481  46.260  1.00  0.00     0.209 C 
ENDBRANCH  16  19
ENDBRANCH   1   7
BRANCH   4  21
HETATM   21  C13 UNL     1      25.555   4.044  49.693  1.00  0.00     0.256 C 
HETATM   22  O3  UNL     1      26.083   2.904  49.746  1.00  0.00    -0.267 OA
HETATM   23  N4  UNL     1      24.192   4.113  50.075  1.00  0.00    -0.323 N 
HETATM   24  H11 UNL     1      23.710   5.015  50.052  1.00  0.00     0.169 HD
BRANCH  23  25
HETATM   25  C14 UNL     1      23.488   2.930  50.491  1.00  0.00     0.035 A 
HETATM   26  C15 UNL     1      22.680   2.505  49.443  1.00  0.00     0.029 A 
HETATM   27  C16 UNL     1      21.875   1.375  49.558  1.00  0.00     0.002 A 
HETATM   28  C17 UNL     1      21.914   0.683  50.777  1.00  0.00     0.000 A 
HETATM   29  C18 UNL     1      22.723   1.123  51.804  1.00  0.00     0.002 A 
HETATM   30  C19 UNL     1      23.505   2.229  51.677  1.00  0.00     0.029 A 
ENDBRANCH  23  25
ENDBRANCH   4  21
TORSDOF 4
ENDMDL
