MODEL 1
REMARK VINA RESULT:      -7.9      0.000      0.000
REMARK  4 active torsions:
REMARK  status: ('A' for Active; 'I' for Inactive)
REMARK    1  A    between atoms: O1_2  and  C2_3 
REMARK    2  A    between atoms: C5_6  and  N1_7 
REMARK    3  A    between atoms: N1_7  and  C6_8 
REMARK    4  A    between atoms: C17_22  and  O2_23 
ROOT
HETATM    1  C2  UNL     1      26.525   1.494  53.979  1.00  0.00     0.102 A 
HETATM    2  C3  UNL     1      25.365   2.087  53.507  1.00  0.00     0.055 A 
HETATM    3  C4  UNL     1      24.307   1.261  53.267  1.00  0.00     0.024 A 
HETATM    4  C5  UNL     1      23.148   1.806  52.803  1.00  0.00     0.067 A 
HETATM    5  C12 UNL     1      22.070   0.965  52.559  1.00  0.00     0.089 A 
HETATM    6  C13 UNL     1      20.820   1.475  52.068  1.00  0.00     0.103 C 
HETATM    7  N2  UNL     1      19.813   1.884  51.662  1.00  0.00    -0.191 NA
HETATM    8  C14 UNL     1      22.161  -0.401  52.780  1.00  0.00     0.142 A 
HETATM    9  N3  UNL     1      23.306  -0.933  53.238  1.00  0.00    -0.259 NA
HETATM   10  C15 UNL     1      24.349  -0.115  53.474  1.00  0.00     0.071 A 
HETATM   11  C16 UNL     1      25.512  -0.701  53.946  1.00  0.00     0.072 A 
HETATM   12  C17 UNL     1      26.585   0.133  54.189  1.00  0.00     0.103 A 
ENDROOT
BRANCH   4  13
HETATM   13  N1  UNL     1      23.014   3.207  52.562  1.00  0.00    -0.354 N 
HETATM   14  H5  UNL     1      22.529   3.826  53.252  1.00  0.00     0.166 HD
BRANCH  13  15
HETATM   15  C6  UNL     1      23.543   3.788  51.375  1.00  0.00     0.033 A 
HETATM   16  C7  UNL     1      23.546   3.121  50.166  1.00  0.00     0.029 A 
HETATM   17  C8  UNL     1      24.037   3.613  48.977  1.00  0.00     0.004 A 
HETATM   18  C9  UNL     1      24.566   4.903  49.062  1.00  0.00     0.019 A 
HETATM   19  C10 UNL     1      24.589   5.614  50.244  1.00  0.00     0.013 A 
HETATM   20 BR1  UNL     1      25.325   7.365  50.284  1.00  0.00    -0.051 Br
HETATM   21  C11 UNL     1      24.078   5.063  51.406  1.00  0.00     0.048 A 
ENDBRANCH  13  15
ENDBRANCH   4  13
BRANCH   1  22
HETATM   22  O1  UNL     1      27.658   2.265  54.251  1.00  0.00    -0.353 OA
HETATM   23  C1  UNL     1      28.628   2.578  53.303  1.00  0.00     0.210 C 
ENDBRANCH   1  22
BRANCH  12  24
HETATM   24  O2  UNL     1      27.786  -0.406  54.667  1.00  0.00    -0.353 OA
HETATM   25  C18 UNL     1      28.746  -0.965  53.796  1.00  0.00     0.210 C 
ENDBRANCH  12  24
TORSDOF 4
ENDMDL
MODEL 2
REMARK VINA RESULT:      -7.9      3.345      5.496
REMARK  4 active torsions:
REMARK  status: ('A' for Active; 'I' for Inactive)
REMARK    1  A    between atoms: O1_2  and  C2_3 
REMARK    2  A    between atoms: C5_6  and  N1_7 
REMARK    3  A    between atoms: N1_7  and  C6_8 
REMARK    4  A    between atoms: C17_22  and  O2_23 
ROOT
HETATM    1  C2  UNL     1      20.389   0.027  52.244  1.00  0.00     0.102 A 
HETATM    2  C3  UNL     1      21.755   0.253  52.238  1.00  0.00     0.055 A 
HETATM    3  C4  UNL     1      22.468  -0.258  53.283  1.00  0.00     0.024 A 
HETATM    4  C5  UNL     1      23.814  -0.058  53.312  1.00  0.00     0.067 A 
HETATM    5  C12 UNL     1      24.540  -0.578  54.376  1.00  0.00     0.089 A 
HETATM    6  C13 UNL     1      25.962  -0.402  54.468  1.00  0.00     0.103 C 
HETATM    7  N2  UNL     1      27.110  -0.252  54.548  1.00  0.00    -0.191 NA
HETATM    8  C14 UNL     1      23.916  -1.288  55.391  1.00  0.00     0.142 A 
HETATM    9  N3  UNL     1      22.587  -1.483  55.357  1.00  0.00    -0.259 NA
HETATM   10  C15 UNL     1      21.887  -0.977  54.324  1.00  0.00     0.071 A 
HETATM   11  C16 UNL     1      20.520  -1.198  54.324  1.00  0.00     0.072 A 
HETATM   12  C17 UNL     1      19.797  -0.682  53.268  1.00  0.00     0.103 A 
ENDROOT
BRANCH   4  13
HETATM   13  N1  UNL     1      24.494   0.668  52.287  1.00  0.00    -0.354 N 
HETATM   14  H5  UNL     1      25.201   0.197  51.676  1.00  0.00     0.166 HD
BRANCH  13  15
HETATM   15  C6  UNL     1      24.219   2.048  52.077  1.00  0.00     0.033 A 
HETATM   16  C7  UNL     1      24.111   2.946  53.121  1.00  0.00     0.029 A 
HETATM   17  C8  UNL     1      23.848   4.292  53.001  1.00  0.00     0.004 A 
HETATM   18  C9  UNL     1      23.684   4.732  51.685  1.00  0.00     0.019 A 
HETATM   19  C10 UNL     1      23.779   3.879  50.606  1.00  0.00     0.013 A 
HETATM   20 BR1  UNL     1      23.544   4.548  48.843  1.00  0.00    -0.051 Br
HETATM   21  C11 UNL     1      24.047   2.534  50.793  1.00  0.00     0.048 A 
ENDBRANCH  13  15
ENDBRANCH   4  13
BRANCH   1  22
HETATM   22  O1  UNL     1      19.582   0.515  51.213  1.00  0.00    -0.353 OA
HETATM   23  C1  UNL     1      20.079   1.087  50.045  1.00  0.00     0.210 C 
ENDBRANCH   1  22
BRANCH  12  24
HETATM   24  O2  UNL     1      18.411  -0.876  53.217  1.00  0.00    -0.353 OA
HETATM   25  C18 UNL     1      17.825  -2.123  53.526  1.00  0.00     0.210 C 
ENDBRANCH  12  24
TORSDOF 4
ENDMDL
MODEL 3
REMARK VINA RESULT:      -7.7      2.128      3.340
REMARK  4 active torsions:
REMARK  status: ('A' for Active; 'I' for Inactive)
REMARK    1  A    between atoms: O1_2  and  C2_3 
REMARK    2  A    between atoms: C5_6  and  N1_7 
REMARK    3  A    between atoms: N1_7  and  C6_8 
REMARK    4  A    between atoms: C17_22  and  O2_23 
ROOT
HETATM    1  C2  UNL     1      26.675   1.380  52.150  1.00  0.00     0.102 A 
HETATM    2  C3  UNL     1      25.366   0.928  52.164  1.00  0.00     0.055 A 
HETATM    3  C4  UNL     1      24.977   0.205  53.254  1.00  0.00     0.024 A 
HETATM    4  C5  UNL     1      23.697  -0.255  53.306  1.00  0.00     0.067 A 
HETATM    5  C12 UNL     1      23.301  -0.991  54.417  1.00  0.00     0.089 A 
HETATM    6  C13 UNL     1      21.966  -1.507  54.533  1.00  0.00     0.103 C 
HETATM    7  N2  UNL     1      20.891  -1.933  54.625  1.00  0.00    -0.191 NA
HETATM    8  C14 UNL     1      24.182  -1.254  55.454  1.00  0.00     0.142 A 
HETATM    9  N3  UNL     1      25.444  -0.796  55.398  1.00  0.00    -0.259 NA
HETATM   10  C15 UNL     1      25.824  -0.084  54.321  1.00  0.00     0.071 A 
HETATM   11  C16 UNL     1      27.132   0.371  54.299  1.00  0.00     0.072 A 
HETATM   12  C17 UNL     1      27.528   1.101  53.197  1.00  0.00     0.103 A 
ENDROOT
BRANCH   4  13
HETATM   13  N1  UNL     1      22.760  -0.007  52.258  1.00  0.00    -0.354 N 
HETATM   14  H5  UNL     1      22.609  -0.708  51.497  1.00  0.00     0.166 HD
BRANCH  13  15
HETATM   15  C6  UNL     1      22.011   1.204  52.233  1.00  0.00     0.033 A 
HETATM   16  C7  UNL     1      20.645   1.230  52.434  1.00  0.00     0.029 A 
HETATM   17  C8  UNL     1      19.852   2.356  52.424  1.00  0.00     0.004 A 
HETATM   18  C9  UNL     1      20.544   3.546  52.185  1.00  0.00     0.019 A 
HETATM   19  C10 UNL     1      21.907   3.577  51.977  1.00  0.00     0.013 A 
HETATM   20 BR1  UNL     1      22.781   5.233  51.657  1.00  0.00    -0.051 Br
HETATM   21  C11 UNL     1      22.649   2.409  51.999  1.00  0.00     0.048 A 
ENDBRANCH  13  15
ENDBRANCH   4  13
BRANCH   1  22
HETATM   22  O1  UNL     1      27.158   2.126  51.071  1.00  0.00    -0.353 OA
HETATM   23  C1  UNL     1      26.394   3.051  50.366  1.00  0.00     0.210 C 
ENDBRANCH   1  22
BRANCH  12  24
HETATM   24  O2  UNL     1      28.840   1.586  53.122  1.00  0.00    -0.353 OA
HETATM   25  C18 UNL     1      29.520   2.063  54.263  1.00  0.00     0.210 C 
ENDBRANCH  12  24
TORSDOF 4
ENDMDL
MODEL 4
REMARK VINA RESULT:      -7.7      2.890      4.837
REMARK  4 active torsions:
REMARK  status: ('A' for Active; 'I' for Inactive)
REMARK    1  A    between atoms: O1_2  and  C2_3 
REMARK    2  A    between atoms: C5_6  and  N1_7 
REMARK    3  A    between atoms: N1_7  and  C6_8 
REMARK    4  A    between atoms: C17_22  and  O2_23 
ROOT
HETATM    1  C2  UNL     1      25.865  -0.101  53.566  1.00  0.00     0.102 A 
HETATM    2  C3  UNL     1      24.707   0.137  52.845  1.00  0.00     0.055 A 
HETATM    3  C4  UNL     1      24.291   1.433  52.761  1.00  0.00     0.024 A 
HETATM    4  C5  UNL     1      23.157   1.709  52.060  1.00  0.00     0.067 A 
HETATM    5  C12 UNL     1      22.734   3.030  51.974  1.00  0.00     0.089 A 
HETATM    6  C13 UNL     1      21.546   3.388  51.251  1.00  0.00     0.103 C 
HETATM    7  N2  UNL     1      20.581   3.678  50.676  1.00  0.00    -0.191 NA
HETATM    8  C14 UNL     1      23.444   4.052  52.585  1.00  0.00     0.142 A 
HETATM    9  N3  UNL     1      24.563   3.775  53.274  1.00  0.00    -0.259 NA
HETATM   10  C15 UNL     1      24.971   2.494  53.355  1.00  0.00     0.071 A 
HETATM   11  C16 UNL     1      26.128   2.248  54.076  1.00  0.00     0.072 A 
HETATM   12  C17 UNL     1      26.550   0.936  54.162  1.00  0.00     0.103 A 
ENDROOT
BRANCH   4  13
HETATM   13  N1  UNL     1      22.397   0.685  51.418  1.00  0.00    -0.354 N 
HETATM   14  H5  UNL     1      22.676   0.319  50.479  1.00  0.00     0.166 HD
BRANCH  13  15
HETATM   15  C6  UNL     1      21.242   0.142  52.048  1.00  0.00     0.033 A 
HETATM   16  C7  UNL     1      21.305  -0.523  53.256  1.00  0.00     0.029 A 
HETATM   17  C8  UNL     1      20.238  -1.075  53.928  1.00  0.00     0.004 A 
HETATM   18  C9  UNL     1      19.008  -0.919  53.283  1.00  0.00     0.019 A 
HETATM   19  C10 UNL     1      18.888  -0.265  52.075  1.00  0.00     0.013 A 
HETATM   20 BR1  UNL     1      17.183  -0.091  51.256  1.00  0.00    -0.051 Br
HETATM   21  C11 UNL     1      20.001   0.269  51.451  1.00  0.00     0.048 A 
ENDBRANCH  13  15
ENDBRANCH   4  13
BRANCH   1  22
HETATM   22  O1  UNL     1      26.362  -1.400  53.704  1.00  0.00    -0.353 OA
HETATM   23  C1  UNL     1      27.040  -2.081  52.698  1.00  0.00     0.210 C 
ENDBRANCH   1  22
BRANCH  12  24
HETATM   24  O2  UNL     1      27.714   0.630  54.878  1.00  0.00    -0.353 OA
HETATM   25  C18 UNL     1      28.997   0.789  54.310  1.00  0.00     0.210 C 
ENDBRANCH  12  24
TORSDOF 4
ENDMDL
MODEL 5
REMARK VINA RESULT:      -7.6      2.454      4.113
REMARK  4 active torsions:
REMARK  status: ('A' for Active; 'I' for Inactive)
REMARK    1  A    between atoms: O1_2  and  C2_3 
REMARK    2  A    between atoms: C5_6  and  N1_7 
REMARK    3  A    between atoms: N1_7  and  C6_8 
REMARK    4  A    between atoms: C17_22  and  O2_23 
ROOT
HETATM    1  C2  UNL     1      26.103   0.234  54.343  1.00  0.00     0.102 A 
HETATM    2  C3  UNL     1      25.133   1.084  53.838  1.00  0.00     0.055 A 
HETATM    3  C4  UNL     1      25.480   1.839  52.757  1.00  0.00     0.024 A 
HETATM    4  C5  UNL     1      24.554   2.687  52.230  1.00  0.00     0.067 A 
HETATM    5  C12 UNL     1      24.907   3.456  51.128  1.00  0.00     0.089 A 
HETATM    6  C13 UNL     1      23.978   4.370  50.526  1.00  0.00     0.103 C 
HETATM    7  N2  UNL     1      23.232   5.117  50.044  1.00  0.00    -0.191 NA
HETATM    8  C14 UNL     1      26.173   3.368  50.569  1.00  0.00     0.142 A 
HETATM    9  N3  UNL     1      27.083   2.529  51.091  1.00  0.00    -0.259 NA
HETATM   10  C15 UNL     1      26.737   1.786  52.159  1.00  0.00     0.071 A 
HETATM   11  C16 UNL     1      27.702   0.933  52.670  1.00  0.00     0.072 A 
HETATM   12  C17 UNL     1      27.353   0.169  53.764  1.00  0.00     0.103 A 
ENDROOT
BRANCH   4  13
HETATM   13  N1  UNL     1      23.240   2.807  52.778  1.00  0.00    -0.354 N 
HETATM   14  H5  UNL     1      23.073   3.354  53.653  1.00  0.00     0.166 HD
BRANCH  13  15
HETATM   15  C6  UNL     1      22.133   2.183  52.138  1.00  0.00     0.033 A 
HETATM   16  C7  UNL     1      22.230   0.943  51.539  1.00  0.00     0.029 A 
HETATM   17  C8  UNL     1      21.209   0.275  50.902  1.00  0.00     0.004 A 
HETATM   18  C9  UNL     1      19.990   0.959  50.892  1.00  0.00     0.019 A 
HETATM   19  C10 UNL     1      19.837   2.200  51.474  1.00  0.00     0.013 A 
HETATM   20 BR1  UNL     1      18.150   3.071  51.422  1.00  0.00    -0.051 Br
HETATM   21  C11 UNL     1      20.905   2.819  52.101  1.00  0.00     0.048 A 
ENDBRANCH  13  15
ENDBRANCH   4  13
BRANCH   1  22
HETATM   22  O1  UNL     1      25.833  -0.575  55.450  1.00  0.00    -0.353 OA
HETATM   23  C1  UNL     1      24.635  -1.257  55.638  1.00  0.00     0.210 C 
ENDBRANCH   1  22
BRANCH  12  24
HETATM   24  O2  UNL     1      28.290  -0.710  54.322  1.00  0.00    -0.353 OA
HETATM   25  C18 UNL     1      29.579  -0.867  53.769  1.00  0.00     0.210 C 
ENDBRANCH  12  24
TORSDOF 4
ENDMDL
MODEL 6
REMARK VINA RESULT:      -7.6      2.952      5.558
REMARK  4 active torsions:
REMARK  status: ('A' for Active; 'I' for Inactive)
REMARK    1  A    between atoms: O1_2  and  C2_3 
REMARK    2  A    between atoms: C5_6  and  N1_7 
REMARK    3  A    between atoms: N1_7  and  C6_8 
REMARK    4  A    between atoms: C17_22  and  O2_23 
ROOT
HETATM    1  C2  UNL     1      24.108   3.216  50.242  1.00  0.00     0.102 A 
HETATM    2  C3  UNL     1      24.154   2.468  51.407  1.00  0.00     0.055 A 
HETATM    3  C4  UNL     1      23.149   1.565  51.597  1.00  0.00     0.024 A 
HETATM    4  C5  UNL     1      23.159   0.809  52.730  1.00  0.00     0.067 A 
HETATM    5  C12 UNL     1      22.136  -0.111  52.923  1.00  0.00     0.089 A 
HETATM    6  C13 UNL     1      22.087  -0.938  54.097  1.00  0.00     0.103 C 
HETATM    7  N2  UNL     1      22.040  -1.600  55.048  1.00  0.00    -0.191 NA
HETATM    8  C14 UNL     1      21.123  -0.264  51.989  1.00  0.00     0.142 A 
HETATM    9  N3  UNL     1      21.119   0.484  50.873  1.00  0.00    -0.259 NA
HETATM   10  C15 UNL     1      22.112   1.374  50.689  1.00  0.00     0.071 A 
HETATM   11  C16 UNL     1      22.072   2.126  49.526  1.00  0.00     0.072 A 
HETATM   12  C17 UNL     1      23.088   3.041  49.332  1.00  0.00     0.103 A 
ENDROOT
BRANCH   4  13
HETATM   13  N1  UNL     1      24.184   0.937  53.716  1.00  0.00    -0.354 N 
HETATM   14  H5  UNL     1      24.010   1.463  54.604  1.00  0.00     0.166 HD
BRANCH  13  15
HETATM   15  C6  UNL     1      25.463   0.350  53.508  1.00  0.00     0.033 A 
HETATM   16  C7  UNL     1      25.617  -0.894  52.928  1.00  0.00     0.029 A 
HETATM   17  C8  UNL     1      26.816  -1.529  52.693  1.00  0.00     0.004 A 
HETATM   18  C9  UNL     1      27.941  -0.805  53.097  1.00  0.00     0.019 A 
HETATM   19  C10 UNL     1      27.844   0.440  53.682  1.00  0.00     0.013 A 
HETATM   20 BR1  UNL     1      29.417   1.367  54.207  1.00  0.00    -0.051 Br
HETATM   21  C11 UNL     1      26.607   1.025  53.891  1.00  0.00     0.048 A 
ENDBRANCH  13  15
ENDBRANCH   4  13
BRANCH   1  22
HETATM   22  O1  UNL     1      25.097   4.165  49.968  1.00  0.00    -0.353 OA
HETATM   23  C1  UNL     1      26.427   3.846  49.713  1.00  0.00     0.210 C 
ENDBRANCH   1  22
BRANCH  12  24
HETATM   24  O2  UNL     1      23.097   3.828  48.174  1.00  0.00    -0.353 OA
HETATM   25  C18 UNL     1      21.944   4.512  47.732  1.00  0.00     0.210 C 
ENDBRANCH  12  24
TORSDOF 4
ENDMDL
MODEL 7
REMARK VINA RESULT:      -7.5      2.092      2.628
REMARK  4 active torsions:
REMARK  status: ('A' for Active; 'I' for Inactive)
REMARK    1  A    between atoms: O1_2  and  C2_3 
REMARK    2  A    between atoms: C5_6  and  N1_7 
REMARK    3  A    between atoms: N1_7  and  C6_8 
REMARK    4  A    between atoms: C17_22  and  O2_23 
ROOT
HETATM    1  C2  UNL     1      25.655   0.109  52.722  1.00  0.00     0.102 A 
HETATM    2  C3  UNL     1      24.342   0.235  52.300  1.00  0.00     0.055 A 
HETATM    3  C4  UNL     1      23.379  -0.251  53.133  1.00  0.00     0.024 A 
HETATM    4  C5  UNL     1      22.075  -0.144  52.755  1.00  0.00     0.067 A 
HETATM    5  C12 UNL     1      21.094  -0.640  53.604  1.00  0.00     0.089 A 
HETATM    6  C13 UNL     1      19.701  -0.559  53.264  1.00  0.00     0.103 C 
HETATM    7  N2  UNL     1      18.576  -0.504  52.986  1.00  0.00    -0.191 NA
HETATM    8  C14 UNL     1      21.424  -1.230  54.815  1.00  0.00     0.142 A 
HETATM    9  N3  UNL     1      22.712  -1.332  55.184  1.00  0.00    -0.259 NA
HETATM   10  C15 UNL     1      23.661  -0.851  54.358  1.00  0.00     0.071 A 
HETATM   11  C16 UNL     1      24.976  -0.975  54.773  1.00  0.00     0.072 A 
HETATM   12  C17 UNL     1      25.952  -0.484  53.930  1.00  0.00     0.103 A 
ENDROOT
BRANCH   4  13
HETATM   13  N1  UNL     1      21.694   0.457  51.516  1.00  0.00    -0.354 N 
HETATM   14  H5  UNL     1      21.386  -0.132  50.708  1.00  0.00     0.166 HD
BRANCH  13  15
HETATM   15  C6  UNL     1      21.725   1.871  51.361  1.00  0.00     0.033 A 
HETATM   16  C7  UNL     1      21.181   2.727  52.298  1.00  0.00     0.029 A 
HETATM   17  C8  UNL     1      21.171   4.102  52.221  1.00  0.00     0.004 A 
HETATM   18  C9  UNL     1      21.777   4.620  51.074  1.00  0.00     0.019 A 
HETATM   19  C10 UNL     1      22.335   3.810  50.106  1.00  0.00     0.013 A 
HETATM   20 BR1  UNL     1      23.144   4.585  48.572  1.00  0.00    -0.051 Br
HETATM   21  C11 UNL     1      22.314   2.433  50.243  1.00  0.00     0.048 A 
ENDBRANCH  13  15
ENDBRANCH   4  13
BRANCH   1  22
HETATM   22  O1  UNL     1      26.706   0.579  51.929  1.00  0.00    -0.353 OA
HETATM   23  C1  UNL     1      26.883   1.917  51.590  1.00  0.00     0.210 C 
ENDBRANCH   1  22
BRANCH  12  24
HETATM   24  O2  UNL     1      27.299  -0.583  54.300  1.00  0.00    -0.353 OA
HETATM   25  C18 UNL     1      27.963   0.466  54.973  1.00  0.00     0.210 C 
ENDBRANCH  12  24
TORSDOF 4
ENDMDL
MODEL 8
REMARK VINA RESULT:      -7.2      2.976      4.514
REMARK  4 active torsions:
REMARK  status: ('A' for Active; 'I' for Inactive)
REMARK    1  A    between atoms: O1_2  and  C2_3 
REMARK    2  A    between atoms: C5_6  and  N1_7 
REMARK    3  A    between atoms: N1_7  and  C6_8 
REMARK    4  A    between atoms: C17_22  and  O2_23 
ROOT
HETATM    1  C2  UNL     1      22.344   0.789  53.134  1.00  0.00     0.102 A 
HETATM    2  C3  UNL     1      22.766   1.805  52.293  1.00  0.00     0.055 A 
HETATM    3  C4  UNL     1      24.081   1.795  51.930  1.00  0.00     0.024 A 
HETATM    4  C5  UNL     1      24.535   2.776  51.101  1.00  0.00     0.067 A 
HETATM    5  C12 UNL     1      25.874   2.766  50.732  1.00  0.00     0.089 A 
HETATM    6  C13 UNL     1      26.417   3.773  49.862  1.00  0.00     0.103 C 
HETATM    7  N2  UNL     1      26.859   4.590  49.168  1.00  0.00    -0.191 NA
HETATM    8  C14 UNL     1      26.737   1.782  51.189  1.00  0.00     0.142 A 
HETATM    9  N3  UNL     1      26.284   0.816  52.005  1.00  0.00    -0.259 NA
HETATM   10  C15 UNL     1      24.986   0.829  52.361  1.00  0.00     0.071 A 
HETATM   11  C16 UNL     1      24.556  -0.183  53.204  1.00  0.00     0.072 A 
HETATM   12  C17 UNL     1      23.226  -0.175  53.573  1.00  0.00     0.103 A 
ENDROOT
BRANCH   4  13
HETATM   13  N1  UNL     1      23.678   3.807  50.610  1.00  0.00    -0.354 N 
HETATM   14  H5  UNL     1      23.449   4.640  51.199  1.00  0.00     0.166 HD
BRANCH  13  15
HETATM   15  C6  UNL     1      23.121   3.720  49.303  1.00  0.00     0.033 A 
HETATM   16  C7  UNL     1      22.733   2.518  48.746  1.00  0.00     0.029 A 
HETATM   17  C8  UNL     1      22.188   2.350  47.492  1.00  0.00     0.004 A 
HETATM   18  C9  UNL     1      22.039   3.534  46.766  1.00  0.00     0.019 A 
HETATM   19  C10 UNL     1      22.412   4.762  47.273  1.00  0.00     0.013 A 
HETATM   20 BR1  UNL     1      22.180   6.331  46.227  1.00  0.00    -0.051 Br
HETATM   21  C11 UNL     1      22.954   4.863  48.542  1.00  0.00     0.048 A 
ENDBRANCH  13  15
ENDBRANCH   4  13
BRANCH   1  22
HETATM   22  O1  UNL     1      21.014   0.724  53.557  1.00  0.00    -0.353 OA
HETATM   23  C1  UNL     1      19.955   0.358  52.731  1.00  0.00     0.210 C 
ENDBRANCH   1  22
BRANCH  12  24
HETATM   24  O2  UNL     1      22.738  -1.175  54.423  1.00  0.00    -0.353 OA
HETATM   25  C18 UNL     1      23.343  -1.450  55.668  1.00  0.00     0.210 C 
ENDBRANCH  12  24
TORSDOF 4
ENDMDL
MODEL 9
REMARK VINA RESULT:      -7.1      3.471      6.296
REMARK  4 active torsions:
REMARK  status: ('A' for Active; 'I' for Inactive)
REMARK    1  A    between atoms: O1_2  and  C2_3 
REMARK    2  A    between atoms: C5_6  and  N1_7 
REMARK    3  A    between atoms: N1_7  and  C6_8 
REMARK    4  A    between atoms: C17_22  and  O2_23 
ROOT
HETATM    1  C2  UNL     1      25.740   5.226  49.582  1.00  0.00     0.102 A 
HETATM    2  C3  UNL     1      25.831   3.960  50.135  1.00  0.00     0.055 A 
HETATM    3  C4  UNL     1      24.843   3.595  51.002  1.00  0.00     0.024 A 
HETATM    4  C5  UNL     1      24.896   2.357  51.565  1.00  0.00     0.067 A 
HETATM    5  C12 UNL     1      23.890   1.986  52.449  1.00  0.00     0.089 A 
HETATM    6  C13 UNL     1      23.887   0.695  53.078  1.00  0.00     0.103 C 
HETATM    7  N2  UNL     1      23.888  -0.343  53.596  1.00  0.00    -0.191 NA
HETATM    8  C14 UNL     1      22.849   2.850  52.755  1.00  0.00     0.142 A 
HETATM    9  N3  UNL     1      22.801   4.070  52.194  1.00  0.00    -0.259 NA
HETATM   10  C15 UNL     1      23.778   4.426  51.339  1.00  0.00     0.071 A 
HETATM   11  C16 UNL     1      23.694   5.692  50.783  1.00  0.00     0.072 A 
HETATM   12  C17 UNL     1      24.693   6.063  49.905  1.00  0.00     0.103 A 
ENDROOT
BRANCH   4  13
HETATM   13  N1  UNL     1      25.951   1.439  51.277  1.00  0.00    -0.354 N 
HETATM   14  H5  UNL     1      25.937   0.864  50.403  1.00  0.00     0.166 HD
BRANCH  13  15
HETATM   15  C6  UNL     1      27.044   1.290  52.177  1.00  0.00     0.033 A 
HETATM   16  C7  UNL     1      27.585   2.360  52.862  1.00  0.00     0.029 A 
HETATM   17  C8  UNL     1      28.639   2.299  53.746  1.00  0.00     0.004 A 
HETATM   18  C9  UNL     1      29.167   1.018  53.926  1.00  0.00     0.019 A 
HETATM   19  C10 UNL     1      28.666  -0.085  53.266  1.00  0.00     0.013 A 
HETATM   20 BR1  UNL     1      29.434  -1.797  53.560  1.00  0.00    -0.051 Br
HETATM   21  C11 UNL     1      27.603   0.043  52.389  1.00  0.00     0.048 A 
ENDBRANCH  13  15
ENDBRANCH   4  13
BRANCH   1  22
HETATM   22  O1  UNL     1      26.710   5.682  48.684  1.00  0.00    -0.353 OA
HETATM   23  C1  UNL     1      27.969   5.106  48.547  1.00  0.00     0.210 C 
ENDBRANCH   1  22
BRANCH  12  24
HETATM   24  O2  UNL     1      24.658   7.331  49.314  1.00  0.00    -0.353 OA
HETATM   25  C18 UNL     1      23.706   7.663  48.326  1.00  0.00     0.210 C 
ENDBRANCH  12  24
TORSDOF 4
ENDMDL
