MODEL 1
REMARK VINA RESULT:      -8.3      0.000      0.000
REMARK  4 active torsions:
REMARK  status: ('A' for Active; 'I' for Inactive)
REMARK    1  A    between atoms: N1_3  and  C3_4 
REMARK    2  A    between atoms: C6_7  and  C7_8 
REMARK    3  A    between atoms: C10_11  and  O1_12 
REMARK    4  A    between atoms: N4_18  and  O2_19 
ROOT
HETATM    1  C3  UNL     1      20.674  -0.257  53.051  1.00  0.00     0.165 C 
HETATM    2  C4  UNL     1      21.557  -0.572  54.003  1.00  0.00     0.060 C 
HETATM    3  C5  UNL     1      23.030  -0.464  53.918  1.00  0.00     0.036 C 
HETATM    4  C6  UNL     1      23.819   0.152  53.066  1.00  0.00     0.066 C 
HETATM    5  N4  UNL     1      23.301   0.890  51.976  1.00  0.00    -0.234 N 
HETATM    6  C15 UNL     1      22.008   1.123  51.366  1.00  0.00     0.333 C 
HETATM    7  O3  UNL     1      21.006   0.241  51.777  1.00  0.00    -0.312 OA
ENDROOT
BRANCH   4   8
HETATM    8  C7  UNL     1      25.256   0.086  53.228  1.00  0.00    -0.023 A 
HETATM    9  C8  UNL     1      26.041   1.105  53.541  1.00  0.00     0.027 A 
HETATM   10  C9  UNL     1      27.433   0.702  53.626  1.00  0.00     0.042 A 
HETATM   11  C10 UNL     1      28.666   1.256  53.896  1.00  0.00     0.175 A 
HETATM   12  C12 UNL     1      27.444  -0.651  53.339  1.00  0.00     0.054 A 
HETATM   13  N2  UNL     1      29.788   0.508  53.875  1.00  0.00    -0.217 NA
HETATM   14  C11 UNL     1      29.756  -0.810  53.590  1.00  0.00     0.236 A 
HETATM   15  N3  UNL     1      28.566  -1.412  53.315  1.00  0.00    -0.245 NA
HETATM   16  C13 UNL     1      26.053  -1.150  53.059  1.00  0.00     0.101 A 
BRANCH  11  17
HETATM   17  O1  UNL     1      28.676   2.619  54.188  1.00  0.00    -0.344 OA
HETATM   18  H8  UNL     1      27.867   3.147  53.848  1.00  0.00     0.219 HD
ENDBRANCH  11  17
ENDBRANCH   4   8
BRANCH   5  19
HETATM   19  O2  UNL     1      24.207   1.605  51.251  1.00  0.00    -0.281 OA
HETATM   20  C14 UNL     1      23.624   2.885  51.096  1.00  0.00     0.238 C 
ENDBRANCH   5  19
BRANCH   1  21
HETATM   21  N1  UNL     1      19.328  -0.484  53.472  1.00  0.00    -0.242 NA
HETATM   22  C2  UNL     1      18.391  -0.809  52.649  1.00  0.00     0.088 C 
HETATM   23  C1  UNL     1      16.934  -1.086  52.896  1.00  0.00     0.057 C 
ENDBRANCH   1  21
TORSDOF 4
ENDMDL
MODEL 2
REMARK VINA RESULT:      -8.1      2.386      3.241
REMARK  4 active torsions:
REMARK  status: ('A' for Active; 'I' for Inactive)
REMARK    1  A    between atoms: N1_3  and  C3_4 
REMARK    2  A    between atoms: C6_7  and  C7_8 
REMARK    3  A    between atoms: C10_11  and  O1_12 
REMARK    4  A    between atoms: N4_18  and  O2_19 
ROOT
HETATM    1  C3  UNL     1      21.440   1.914  51.858  1.00  0.00     0.165 C 
HETATM    2  C4  UNL     1      22.592   1.929  51.181  1.00  0.00     0.060 C 
HETATM    3  C5  UNL     1      23.898   1.405  51.638  1.00  0.00     0.036 C 
HETATM    4  C6  UNL     1      24.228   0.617  52.636  1.00  0.00     0.066 C 
HETATM    5  N4  UNL     1      23.256   0.095  53.523  1.00  0.00    -0.234 N 
HETATM    6  C15 UNL     1      21.838   0.265  53.768  1.00  0.00     0.333 C 
HETATM    7  O3  UNL     1      21.273   1.384  53.152  1.00  0.00    -0.312 OA
ENDROOT
BRANCH   4   8
HETATM    8  C7  UNL     1      25.613   0.260  52.854  1.00  0.00    -0.023 A 
HETATM    9  C8  UNL     1      26.114  -0.963  52.774  1.00  0.00     0.027 A 
HETATM   10  C9  UNL     1      27.539  -0.977  53.048  1.00  0.00     0.042 A 
HETATM   11  C10 UNL     1      28.580  -1.878  53.118  1.00  0.00     0.175 A 
HETATM   12  C12 UNL     1      27.879   0.338  53.304  1.00  0.00     0.054 A 
HETATM   13  N2  UNL     1      29.832  -1.477  53.418  1.00  0.00    -0.217 NA
HETATM   14  C11 UNL     1      30.123  -0.183  53.662  1.00  0.00     0.236 A 
HETATM   15  N3  UNL     1      29.135   0.752  53.606  1.00  0.00    -0.245 NA
HETATM   16  C13 UNL     1      26.674   1.232  53.203  1.00  0.00     0.101 A 
BRANCH  11  17
HETATM   17  O1  UNL     1      28.257  -3.210  52.863  1.00  0.00    -0.344 OA
HETATM   18  H8  UNL     1      27.402  -3.549  53.313  1.00  0.00     0.219 HD
ENDBRANCH  11  17
ENDBRANCH   4   8
BRANCH   5  19
HETATM   19  O2  UNL     1      23.698  -0.826  54.424  1.00  0.00    -0.281 OA
HETATM   20  C14 UNL     1      22.528  -1.322  55.045  1.00  0.00     0.238 C 
ENDBRANCH   5  19
BRANCH   1  21
HETATM   21  N1  UNL     1      20.374   2.506  51.115  1.00  0.00    -0.242 NA
HETATM   22  C2  UNL     1      19.447   3.207  51.673  1.00  0.00     0.088 C 
HETATM   23  C1  UNL     1      18.258   3.901  51.069  1.00  0.00     0.057 C 
ENDBRANCH   1  21
TORSDOF 4
ENDMDL
MODEL 3
REMARK VINA RESULT:      -8.1      1.772      7.591
REMARK  4 active torsions:
REMARK  status: ('A' for Active; 'I' for Inactive)
REMARK    1  A    between atoms: N1_3  and  C3_4 
REMARK    2  A    between atoms: C6_7  and  C7_8 
REMARK    3  A    between atoms: C10_11  and  O1_12 
REMARK    4  A    between atoms: N4_18  and  O2_19 
ROOT
HETATM    1  C3  UNL     1      26.483   0.236  54.197  1.00  0.00     0.165 C 
HETATM    2  C4  UNL     1      25.682  -0.716  53.709  1.00  0.00     0.060 C 
HETATM    3  C5  UNL     1      24.280  -0.554  53.264  1.00  0.00     0.036 C 
HETATM    4  C6  UNL     1      23.559   0.512  53.001  1.00  0.00     0.066 C 
HETATM    5  N4  UNL     1      24.092   1.817  53.121  1.00  0.00    -0.234 N 
HETATM    6  C15 UNL     1      25.312   2.428  53.607  1.00  0.00     0.333 C 
HETATM    7  O3  UNL     1      26.117   1.583  54.376  1.00  0.00    -0.312 OA
ENDROOT
BRANCH   4   8
HETATM    8  C7  UNL     1      22.182   0.372  52.575  1.00  0.00    -0.023 A 
HETATM    9  C8  UNL     1      21.199  -0.128  53.307  1.00  0.00     0.027 A 
HETATM   10  C9  UNL     1      19.941  -0.128  52.585  1.00  0.00     0.042 A 
HETATM   11  C10 UNL     1      18.625  -0.492  52.778  1.00  0.00     0.175 A 
HETATM   12  C12 UNL     1      20.226   0.414  51.345  1.00  0.00     0.054 A 
HETATM   13  N2  UNL     1      17.702  -0.321  51.810  1.00  0.00    -0.217 NA
HETATM   14  C11 UNL     1      18.022   0.212  50.613  1.00  0.00     0.236 A 
HETATM   15  N3  UNL     1      19.306   0.591  50.364  1.00  0.00    -0.245 NA
HETATM   16  C13 UNL     1      21.682   0.773  51.241  1.00  0.00     0.101 A 
BRANCH  11  17
HETATM   17  O1  UNL     1      18.317  -1.041  54.022  1.00  0.00    -0.344 OA
HETATM   18  H8  UNL     1      17.733  -1.882  53.999  1.00  0.00     0.219 HD
ENDBRANCH  11  17
ENDBRANCH   4   8
BRANCH   5  19
HETATM   19  O2  UNL     1      23.299   2.833  52.679  1.00  0.00    -0.281 OA
HETATM   20  C14 UNL     1      24.138   3.623  51.859  1.00  0.00     0.238 C 
ENDBRANCH   5  19
BRANCH   1  21
HETATM   21  N1  UNL     1      27.777  -0.270  54.527  1.00  0.00    -0.242 NA
HETATM   22  C2  UNL     1      28.677  -0.503  53.635  1.00  0.00     0.088 C 
HETATM   23  C1  UNL     1      30.078  -1.028  53.783  1.00  0.00     0.057 C 
ENDBRANCH   1  21
TORSDOF 4
ENDMDL
MODEL 4
REMARK VINA RESULT:      -7.6      3.116      5.618
REMARK  4 active torsions:
REMARK  status: ('A' for Active; 'I' for Inactive)
REMARK    1  A    between atoms: N1_3  and  C3_4 
REMARK    2  A    between atoms: C6_7  and  C7_8 
REMARK    3  A    between atoms: C10_11  and  O1_12 
REMARK    4  A    between atoms: N4_18  and  O2_19 
ROOT
HETATM    1  C3  UNL     1      24.332   5.169  49.536  1.00  0.00     0.165 C 
HETATM    2  C4  UNL     1      25.318   4.329  49.204  1.00  0.00     0.060 C 
HETATM    3  C5  UNL     1      25.963   3.327  50.079  1.00  0.00     0.036 C 
HETATM    4  C6  UNL     1      25.624   2.831  51.248  1.00  0.00     0.066 C 
HETATM    5  N4  UNL     1      24.445   3.242  51.913  1.00  0.00    -0.234 N 
HETATM    6  C15 UNL     1      23.414   4.244  51.734  1.00  0.00     0.333 C 
HETATM    7  O3  UNL     1      23.731   5.241  50.807  1.00  0.00    -0.312 OA
ENDROOT
BRANCH   4   8
HETATM    8  C7  UNL     1      26.462   1.841  51.889  1.00  0.00    -0.023 A 
HETATM    9  C8  UNL     1      26.318   0.529  51.787  1.00  0.00     0.027 A 
HETATM   10  C9  UNL     1      27.324  -0.182  52.553  1.00  0.00     0.042 A 
HETATM   11  C10 UNL     1      27.695  -1.478  52.840  1.00  0.00     0.175 A 
HETATM   12  C12 UNL     1      28.104   0.798  53.138  1.00  0.00     0.054 A 
HETATM   13  N2  UNL     1      28.749  -1.743  53.639  1.00  0.00    -0.217 NA
HETATM   14  C11 UNL     1      29.486  -0.756  54.191  1.00  0.00     0.236 A 
HETATM   15  N3  UNL     1      29.167   0.544  53.942  1.00  0.00    -0.245 NA
HETATM   16  C13 UNL     1      27.613   2.169  52.761  1.00  0.00     0.101 A 
BRANCH  11  17
HETATM   17  O1  UNL     1      26.921  -2.481  52.260  1.00  0.00    -0.344 OA
HETATM   18  H8  UNL     1      26.257  -2.943  52.888  1.00  0.00     0.219 HD
ENDBRANCH  11  17
ENDBRANCH   4   8
BRANCH   5  19
HETATM   19  O2  UNL     1      24.122   2.552  53.043  1.00  0.00    -0.281 OA
HETATM   20  C14 UNL     1      22.911   1.890  52.736  1.00  0.00     0.238 C 
ENDBRANCH   5  19
BRANCH   1  21
HETATM   21  N1  UNL     1      23.947   6.003  48.444  1.00  0.00    -0.242 NA
HETATM   22  C2  UNL     1      24.706   6.941  47.987  1.00  0.00     0.088 C 
HETATM   23  C1  UNL     1      24.480   7.910  46.861  1.00  0.00     0.057 C 
ENDBRANCH   1  21
TORSDOF 4
ENDMDL
MODEL 5
REMARK VINA RESULT:      -7.4      2.215      3.599
REMARK  4 active torsions:
REMARK  status: ('A' for Active; 'I' for Inactive)
REMARK    1  A    between atoms: N1_3  and  C3_4 
REMARK    2  A    between atoms: C6_7  and  C7_8 
REMARK    3  A    between atoms: C10_11  and  O1_12 
REMARK    4  A    between atoms: N4_18  and  O2_19 
ROOT
HETATM    1  C3  UNL     1      22.436   3.165  51.206  1.00  0.00     0.165 C 
HETATM    2  C4  UNL     1      23.642   2.944  50.675  1.00  0.00     0.060 C 
HETATM    3  C5  UNL     1      24.718   2.098  51.237  1.00  0.00     0.036 C 
HETATM    4  C6  UNL     1      24.720   1.198  52.194  1.00  0.00     0.066 C 
HETATM    5  N4  UNL     1      23.544   0.874  52.909  1.00  0.00    -0.234 N 
HETATM    6  C15 UNL     1      22.182   1.362  52.998  1.00  0.00     0.333 C 
HETATM    7  O3  UNL     1      21.978   2.617  52.419  1.00  0.00    -0.312 OA
ENDROOT
BRANCH   4   8
HETATM    8  C7  UNL     1      25.945   0.510  52.542  1.00  0.00    -0.023 A 
HETATM    9  C8  UNL     1      27.057   1.088  52.966  1.00  0.00     0.027 A 
HETATM   10  C9  UNL     1      28.100   0.114  53.229  1.00  0.00     0.042 A 
HETATM   11  C10 UNL     1      29.408   0.075  53.664  1.00  0.00     0.175 A 
HETATM   12  C12 UNL     1      27.541  -1.116  52.933  1.00  0.00     0.054 A 
HETATM   13  N2  UNL     1      30.071  -1.093  53.784  1.00  0.00    -0.217 NA
HETATM   14  C11 UNL     1      29.488  -2.272  53.484  1.00  0.00     0.236 A 
HETATM   15  N3  UNL     1      28.198  -2.297  53.050  1.00  0.00    -0.245 NA
HETATM   16  C13 UNL     1      26.120  -0.959  52.468  1.00  0.00     0.101 A 
BRANCH  11  17
HETATM   17  O1  UNL     1      29.990   1.305  53.968  1.00  0.00    -0.344 OA
HETATM   18  H8  UNL     1      30.696   1.633  53.302  1.00  0.00     0.219 HD
ENDBRANCH  11  17
ENDBRANCH   4   8
BRANCH   5  19
HETATM   19  O2  UNL     1      23.636  -0.176  53.773  1.00  0.00    -0.281 OA
HETATM   20  C14 UNL     1      22.414  -0.876  53.632  1.00  0.00     0.238 C 
ENDBRANCH   5  19
BRANCH   1  21
HETATM   21  N1  UNL     1      21.645   4.035  50.396  1.00  0.00    -0.242 NA
HETATM   22  C2  UNL     1      21.410   5.260  50.721  1.00  0.00     0.088 C 
HETATM   23  C1  UNL     1      20.613   6.318  50.010  1.00  0.00     0.057 C 
ENDBRANCH   1  21
TORSDOF 4
ENDMDL
MODEL 6
REMARK VINA RESULT:      -7.3      3.568      6.926
REMARK  4 active torsions:
REMARK  status: ('A' for Active; 'I' for Inactive)
REMARK    1  A    between atoms: N1_3  and  C3_4 
REMARK    2  A    between atoms: C6_7  and  C7_8 
REMARK    3  A    between atoms: C10_11  and  O1_12 
REMARK    4  A    between atoms: N4_18  and  O2_19 
ROOT
HETATM    1  C3  UNL     1      26.336   4.557  49.602  1.00  0.00     0.165 C 
HETATM    2  C4  UNL     1      26.361   3.224  49.694  1.00  0.00     0.060 C 
HETATM    3  C5  UNL     1      25.568   2.383  50.617  1.00  0.00     0.036 C 
HETATM    4  C6  UNL     1      24.520   2.645  51.365  1.00  0.00     0.066 C 
HETATM    5  N4  UNL     1      23.934   3.932  51.395  1.00  0.00    -0.234 N 
HETATM    6  C15 UNL     1      24.228   5.249  50.869  1.00  0.00     0.333 C 
HETATM    7  O3  UNL     1      25.531   5.403  50.388  1.00  0.00    -0.312 OA
ENDROOT
BRANCH   4   8
HETATM    8  C7  UNL     1      23.937   1.608  52.189  1.00  0.00    -0.023 A 
HETATM    9  C8  UNL     1      24.561   0.947  53.150  1.00  0.00     0.027 A 
HETATM   10  C9  UNL     1      23.692  -0.027  53.783  1.00  0.00     0.042 A 
HETATM   11  C10 UNL     1      23.737  -0.971  54.787  1.00  0.00     0.175 A 
HETATM   12  C12 UNL     1      22.477   0.084  53.133  1.00  0.00     0.054 A 
HETATM   13  N2  UNL     1      22.657  -1.719  55.092  1.00  0.00    -0.217 NA
HETATM   14  C11 UNL     1      21.488  -1.579  54.433  1.00  0.00     0.236 A 
HETATM   15  N3  UNL     1      21.384  -0.662  53.432  1.00  0.00    -0.245 NA
HETATM   16  C13 UNL     1      22.538   1.137  52.061  1.00  0.00     0.101 A 
BRANCH  11  17
HETATM   17  O1  UNL     1      24.954  -1.100  55.454  1.00  0.00    -0.344 OA
HETATM   18  H8  UNL     1      24.922  -0.927  56.463  1.00  0.00     0.219 HD
ENDBRANCH  11  17
ENDBRANCH   4   8
BRANCH   5  19
HETATM   19  O2  UNL     1      22.767   4.044  52.090  1.00  0.00    -0.281 OA
HETATM   20  C14 UNL     1      22.046   5.070  51.435  1.00  0.00     0.238 C 
ENDBRANCH   5  19
BRANCH   1  21
HETATM   21  N1  UNL     1      27.231   5.043  48.602  1.00  0.00    -0.242 NA
HETATM   22  C2  UNL     1      27.572   6.283  48.521  1.00  0.00     0.088 C 
HETATM   23  C1  UNL     1      28.490   6.977  47.552  1.00  0.00     0.057 C 
ENDBRANCH   1  21
TORSDOF 4
ENDMDL
MODEL 7
REMARK VINA RESULT:      -7.3      2.732      7.326
REMARK  4 active torsions:
REMARK  status: ('A' for Active; 'I' for Inactive)
REMARK    1  A    between atoms: N1_3  and  C3_4 
REMARK    2  A    between atoms: C6_7  and  C7_8 
REMARK    3  A    between atoms: C10_11  and  O1_12 
REMARK    4  A    between atoms: N4_18  and  O2_19 
ROOT
HETATM    1  C3  UNL     1      26.361  -0.578  53.083  1.00  0.00     0.165 C 
HETATM    2  C4  UNL     1      26.498   0.534  52.354  1.00  0.00     0.060 C 
HETATM    3  C5  UNL     1      25.412   1.389  51.827  1.00  0.00     0.036 C 
HETATM    4  C6  UNL     1      24.129   1.451  52.104  1.00  0.00     0.066 C 
HETATM    5  N4  UNL     1      23.535   0.600  53.066  1.00  0.00    -0.234 N 
HETATM    6  C15 UNL     1      23.932  -0.536  53.872  1.00  0.00     0.333 C 
HETATM    7  O3  UNL     1      25.131  -1.136  53.477  1.00  0.00    -0.312 OA
ENDROOT
BRANCH   4   8
HETATM    8  C7  UNL     1      23.282   2.404  51.419  1.00  0.00    -0.023 A 
HETATM    9  C8  UNL     1      23.090   3.662  51.783  1.00  0.00     0.027 A 
HETATM   10  C9  UNL     1      22.184   4.349  50.882  1.00  0.00     0.042 A 
HETATM   11  C10 UNL     1      21.615   5.594  50.721  1.00  0.00     0.175 A 
HETATM   12  C12 UNL     1      21.831   3.412  49.928  1.00  0.00     0.054 A 
HETATM   13  N2  UNL     1      20.776   5.853  49.697  1.00  0.00    -0.217 NA
HETATM   14  C11 UNL     1      20.457   4.909  48.787  1.00  0.00     0.236 A 
HETATM   15  N3  UNL     1      20.989   3.661  48.894  1.00  0.00    -0.245 NA
HETATM   16  C13 UNL     1      22.503   2.094  50.198  1.00  0.00     0.101 A 
BRANCH  11  17
HETATM   17  O1  UNL     1      21.958   6.553  51.672  1.00  0.00    -0.344 OA
HETATM   18  H8  UNL     1      22.948   6.816  51.694  1.00  0.00     0.219 HD
ENDBRANCH  11  17
ENDBRANCH   4   8
BRANCH   5  19
HETATM   19  O2  UNL     1      22.233   0.857  53.373  1.00  0.00    -0.281 OA
HETATM   20  C14 UNL     1      21.581  -0.395  53.288  1.00  0.00     0.238 C 
ENDBRANCH   5  19
BRANCH   1  21
HETATM   21  N1  UNL     1      27.623  -1.154  53.424  1.00  0.00    -0.242 NA
HETATM   22  C2  UNL     1      28.717  -0.472  53.426  1.00  0.00     0.088 C 
HETATM   23  C1  UNL     1      30.123  -0.893  53.751  1.00  0.00     0.057 C 
ENDBRANCH   1  21
TORSDOF 4
ENDMDL
MODEL 8
REMARK VINA RESULT:      -7.3      2.474      2.948
REMARK  4 active torsions:
REMARK  status: ('A' for Active; 'I' for Inactive)
REMARK    1  A    between atoms: N1_3  and  C3_4 
REMARK    2  A    between atoms: C6_7  and  C7_8 
REMARK    3  A    between atoms: C10_11  and  O1_12 
REMARK    4  A    between atoms: N4_18  and  O2_19 
ROOT
HETATM    1  C3  UNL     1      20.463   2.972  51.848  1.00  0.00     0.165 C 
HETATM    2  C4  UNL     1      20.908   2.197  52.842  1.00  0.00     0.060 C 
HETATM    3  C5  UNL     1      22.294   1.722  53.045  1.00  0.00     0.036 C 
HETATM    4  C6  UNL     1      23.437   2.090  52.511  1.00  0.00     0.066 C 
HETATM    5  N4  UNL     1      23.506   3.123  51.547  1.00  0.00    -0.234 N 
HETATM    6  C15 UNL     1      22.578   3.937  50.790  1.00  0.00     0.333 C 
HETATM    7  O3  UNL     1      21.259   3.476  50.803  1.00  0.00    -0.312 OA
ENDROOT
BRANCH   4   8
HETATM    8  C7  UNL     1      24.667   1.437  52.904  1.00  0.00    -0.023 A 
HETATM    9  C8  UNL     1      25.065   0.241  52.500  1.00  0.00     0.027 A 
HETATM   10  C9  UNL     1      26.345  -0.122  53.079  1.00  0.00     0.042 A 
HETATM   11  C10 UNL     1      27.242  -1.168  53.057  1.00  0.00     0.175 A 
HETATM   12  C12 UNL     1      26.707   0.948  53.875  1.00  0.00     0.054 A 
HETATM   13  N2  UNL     1      28.385  -1.124  53.771  1.00  0.00    -0.217 NA
HETATM   14  C11 UNL     1      28.702  -0.059  54.537  1.00  0.00     0.236 A 
HETATM   15  N3  UNL     1      27.854   1.004  54.598  1.00  0.00    -0.245 NA
HETATM   16  C13 UNL     1      25.661   2.028  53.829  1.00  0.00     0.101 A 
BRANCH  11  17
HETATM   17  O1  UNL     1      26.896  -2.257  52.259  1.00  0.00    -0.344 OA
HETATM   18  H8  UNL     1      27.212  -2.209  51.286  1.00  0.00     0.219 HD
ENDBRANCH  11  17
ENDBRANCH   4   8
BRANCH   5  19
HETATM   19  O2  UNL     1      24.757   3.518  51.178  1.00  0.00    -0.281 OA
HETATM   20  C14 UNL     1      24.579   4.780  50.566  1.00  0.00     0.238 C 
ENDBRANCH   5  19
BRANCH   1  21
HETATM   21  N1  UNL     1      19.065   3.239  51.961  1.00  0.00    -0.242 NA
HETATM   22  C2  UNL     1      18.193   2.709  51.173  1.00  0.00     0.088 C 
HETATM   23  C1  UNL     1      16.698   2.864  51.135  1.00  0.00     0.057 C 
ENDBRANCH   1  21
TORSDOF 4
ENDMDL
MODEL 9
REMARK VINA RESULT:      -7.2      2.673      4.042
REMARK  4 active torsions:
REMARK  status: ('A' for Active; 'I' for Inactive)
REMARK    1  A    between atoms: N1_3  and  C3_4 
REMARK    2  A    between atoms: C6_7  and  C7_8 
REMARK    3  A    between atoms: C10_11  and  O1_12 
REMARK    4  A    between atoms: N4_18  and  O2_19 
ROOT
HETATM    1  C3  UNL     1      21.476   4.327  51.359  1.00  0.00     0.165 C 
HETATM    2  C4  UNL     1      22.772   4.253  51.041  1.00  0.00     0.060 C 
HETATM    3  C5  UNL     1      23.784   3.356  51.641  1.00  0.00     0.036 C 
HETATM    4  C6  UNL     1      23.673   2.293  52.404  1.00  0.00     0.066 C 
HETATM    5  N4  UNL     1      22.411   1.798  52.809  1.00  0.00    -0.234 N 
HETATM    6  C15 UNL     1      21.026   2.212  52.718  1.00  0.00     0.333 C 
HETATM    7  O3  UNL     1      20.843   3.545  52.344  1.00  0.00    -0.312 OA
ENDROOT
BRANCH   4   8
HETATM    8  C7  UNL     1      24.859   1.595  52.855  1.00  0.00    -0.023 A 
HETATM    9  C8  UNL     1      25.241   0.392  52.456  1.00  0.00     0.027 A 
HETATM   10  C9  UNL     1      26.474  -0.019  53.100  1.00  0.00     0.042 A 
HETATM   11  C10 UNL     1      27.339  -1.092  53.113  1.00  0.00     0.175 A 
HETATM   12  C12 UNL     1      26.825   1.029  53.931  1.00  0.00     0.054 A 
HETATM   13  N2  UNL     1      28.441  -1.094  53.890  1.00  0.00    -0.217 NA
HETATM   14  C11 UNL     1      28.747  -0.050  54.688  1.00  0.00     0.236 A 
HETATM   15  N3  UNL     1      27.930   1.039  54.717  1.00  0.00    -0.245 NA
HETATM   16  C13 UNL     1      25.817   2.142  53.842  1.00  0.00     0.101 A 
BRANCH  11  17
HETATM   17  O1  UNL     1      27.004  -2.160  52.281  1.00  0.00    -0.344 OA
HETATM   18  H8  UNL     1      26.038  -2.492  52.360  1.00  0.00     0.219 HD
ENDBRANCH  11  17
ENDBRANCH   4   8
BRANCH   5  19
HETATM   19  O2  UNL     1      22.417   0.608  53.473  1.00  0.00    -0.281 OA
HETATM   20  C14 UNL     1      21.055   0.320  53.722  1.00  0.00     0.238 C 
ENDBRANCH   5  19
BRANCH   1  21
HETATM   21  N1  UNL     1      20.787   5.306  50.580  1.00  0.00    -0.242 NA
HETATM   22  C2  UNL     1      19.708   5.037  49.928  1.00  0.00     0.088 C 
HETATM   23  C1  UNL     1      18.850   5.919  49.064  1.00  0.00     0.057 C 
ENDBRANCH   1  21
TORSDOF 4
ENDMDL
