MODEL 1
REMARK VINA RESULT:      -8.8      0.000      0.000
REMARK  3 active torsions:
REMARK  status: ('A' for Active; 'I' for Inactive)
REMARK    1  A    between atoms: N1_1  and  C1_2 
REMARK    2  A    between atoms: C12_15  and  N4_16 
REMARK    3  A    between atoms: N4_16  and  C13_17 
ROOT
HETATM    1  C1  UNL     1      24.518  -1.053  55.446  1.00  0.00     0.026 A 
HETATM    2  C2  UNL     1      23.167  -1.285  55.311  1.00  0.00     0.032 A 
HETATM    3  C3  UNL     1      22.446  -0.911  54.200  1.00  0.00     0.040 A 
HETATM    4  C4  UNL     1      23.139  -0.266  53.169  1.00  0.00     0.084 A 
HETATM    5  C5  UNL     1      24.498  -0.020  53.274  1.00  0.00    -0.004 A 
HETATM    6  C6  UNL     1      25.180  -0.418  54.420  1.00  0.00     0.040 A 
HETATM    7  C7  UNL     1      25.485   0.621  52.358  1.00  0.00     0.161 C 
HETATM    8  N2  UNL     1      24.941   1.910  51.974  1.00  0.00    -0.380 N 
HETATM    9  C8  UNL     1      23.629   2.292  51.540  1.00  0.00     0.109 A 
HETATM   10  C9  UNL     1      22.474   1.497  51.535  1.00  0.00     0.107 A 
HETATM   11  C10 UNL     1      21.302   2.047  51.064  1.00  0.00     0.059 A 
HETATM   12  C11 UNL     1      21.319   3.353  50.622  1.00  0.00     0.122 A 
HETATM   13  N3  UNL     1      22.446   4.087  50.643  1.00  0.00    -0.241 NA
HETATM   14  C12 UNL     1      23.617   3.601  51.090  1.00  0.00     0.157 A 
HETATM   15  O1  UNL     1      22.459   0.149  51.997  1.00  0.00    -0.308 OA
HETATM   16  H8  UNL     1      25.657   2.667  52.034  1.00  0.00     0.160 HD
ENDROOT
BRANCH  14  17
HETATM   17  N4  UNL     1      24.777   4.420  51.088  1.00  0.00    -0.339 N 
HETATM   18  H11 UNL     1      24.881   4.695  52.109  1.00  0.00     0.167 HD
BRANCH  17  19
HETATM   19  C13 UNL     1      25.709   4.899  50.133  1.00  0.00     0.035 A 
HETATM   20  C14 UNL     1      26.636   4.017  49.622  1.00  0.00     0.032 A 
HETATM   21  C15 UNL     1      27.527   4.582  48.720  1.00  0.00     0.046 A 
HETATM   22  C16 UNL     1      27.473   5.923  48.376  1.00  0.00     0.138 A 
HETATM   23  F1  UNL     1      28.353   6.449  47.498  1.00  0.00    -0.204 F 
HETATM   24  C17 UNL     1      26.506   6.767  48.933  1.00  0.00     0.074 A 
HETATM   25 CL1  UNL     1      26.447   8.457  48.493  1.00  0.00    -0.081 Cl
HETATM   26  C18 UNL     1      25.594   6.245  49.838  1.00  0.00     0.056 A 
ENDBRANCH  17  19
ENDBRANCH  14  17
BRANCH   1  27
HETATM   27  N1  UNL     1      25.265  -1.436  56.591  1.00  0.00    -0.399 N 
HETATM   28  H1  UNL     1      25.988  -0.719  56.823  1.00  0.00     0.156 HD
HETATM   29  H2  UNL     1      25.119  -2.326  57.148  1.00  0.00     0.156 HD
ENDBRANCH   1  27
TORSDOF 3
ENDMDL
MODEL 2
REMARK VINA RESULT:      -8.7      4.196      6.418
REMARK  3 active torsions:
REMARK  status: ('A' for Active; 'I' for Inactive)
REMARK    1  A    between atoms: N1_1  and  C1_2 
REMARK    2  A    between atoms: C12_15  and  N4_16 
REMARK    3  A    between atoms: N4_16  and  C13_17 
ROOT
HETATM    1  C1  UNL     1      19.369   2.028  49.391  1.00  0.00     0.026 A 
HETATM    2  C2  UNL     1      18.529   1.236  50.141  1.00  0.00     0.032 A 
HETATM    3  C3  UNL     1      18.794   0.882  51.444  1.00  0.00     0.040 A 
HETATM    4  C4  UNL     1      19.980   1.359  52.015  1.00  0.00     0.084 A 
HETATM    5  C5  UNL     1      20.844   2.159  51.287  1.00  0.00    -0.004 A 
HETATM    6  C6  UNL     1      20.530   2.488  49.971  1.00  0.00     0.040 A 
HETATM    7  C7  UNL     1      22.144   2.811  51.618  1.00  0.00     0.161 C 
HETATM    8  N2  UNL     1      23.014   1.785  52.161  1.00  0.00    -0.380 N 
HETATM    9  C8  UNL     1      22.776   0.760  53.136  1.00  0.00     0.109 A 
HETATM   10  C9  UNL     1      21.545   0.401  53.702  1.00  0.00     0.107 A 
HETATM   11  C10 UNL     1      21.525  -0.610  54.640  1.00  0.00     0.059 A 
HETATM   12  C11 UNL     1      22.715  -1.221  54.974  1.00  0.00     0.122 A 
HETATM   13  N3  UNL     1      23.878  -0.851  54.407  1.00  0.00    -0.241 NA
HETATM   14  C12 UNL     1      23.956   0.129  53.490  1.00  0.00     0.157 A 
HETATM   15  O1  UNL     1      20.317   1.031  53.351  1.00  0.00    -0.308 OA
HETATM   16  H8  UNL     1      23.972   1.830  51.749  1.00  0.00     0.160 HD
ENDROOT
BRANCH  14  17
HETATM   17  N4  UNL     1      25.211   0.480  52.926  1.00  0.00    -0.339 N 
HETATM   18  H11 UNL     1      24.948   1.159  52.153  1.00  0.00     0.167 HD
BRANCH  17  19
HETATM   19  C13 UNL     1      26.574   0.155  53.141  1.00  0.00     0.035 A 
HETATM   20  C14 UNL     1      27.009  -1.107  52.801  1.00  0.00     0.032 A 
HETATM   21  C15 UNL     1      28.349  -1.345  53.076  1.00  0.00     0.046 A 
HETATM   22  C16 UNL     1      29.164  -0.381  53.647  1.00  0.00     0.138 A 
HETATM   23  F1  UNL     1      30.463  -0.637  53.908  1.00  0.00    -0.204 F 
HETATM   24  C17 UNL     1      28.659   0.884  53.970  1.00  0.00     0.074 A 
HETATM   25 CL1  UNL     1      29.694   2.092  54.691  1.00  0.00    -0.081 Cl
HETATM   26  C18 UNL     1      27.326   1.165  53.711  1.00  0.00     0.056 A 
ENDBRANCH  17  19
ENDBRANCH  14  17
BRANCH   1  27
HETATM   27  N1  UNL     1      19.101   2.396  48.046  1.00  0.00    -0.399 N 
HETATM   28  H1  UNL     1      19.671   3.224  47.763  1.00  0.00     0.156 HD
HETATM   29  H2  UNL     1      18.418   1.905  47.401  1.00  0.00     0.156 HD
ENDBRANCH   1  27
TORSDOF 3
ENDMDL
MODEL 3
REMARK VINA RESULT:      -8.6      4.894      6.977
REMARK  3 active torsions:
REMARK  status: ('A' for Active; 'I' for Inactive)
REMARK    1  A    between atoms: N1_1  and  C1_2 
REMARK    2  A    between atoms: C12_15  and  N4_16 
REMARK    3  A    between atoms: N4_16  and  C13_17 
ROOT
HETATM    1  C1  UNL     1      28.777  -0.591  53.472  1.00  0.00     0.026 A 
HETATM    2  C2  UNL     1      29.164   0.730  53.457  1.00  0.00     0.032 A 
HETATM    3  C3  UNL     1      28.295   1.771  53.693  1.00  0.00     0.040 A 
HETATM    4  C4  UNL     1      26.959   1.448  53.958  1.00  0.00     0.084 A 
HETATM    5  C5  UNL     1      26.540   0.128  53.982  1.00  0.00    -0.004 A 
HETATM    6  C6  UNL     1      27.459  -0.887  53.736  1.00  0.00     0.040 A 
HETATM    7  C7  UNL     1      25.217  -0.511  54.240  1.00  0.00     0.161 C 
HETATM    8  N2  UNL     1      24.252   0.131  53.368  1.00  0.00    -0.380 N 
HETATM    9  C8  UNL     1      24.019   1.514  53.068  1.00  0.00     0.109 A 
HETATM   10  C9  UNL     1      24.810   2.607  53.450  1.00  0.00     0.107 A 
HETATM   11  C10 UNL     1      24.408   3.870  53.072  1.00  0.00     0.059 A 
HETATM   12  C11 UNL     1      23.250   4.000  52.335  1.00  0.00     0.122 A 
HETATM   13  N3  UNL     1      22.518   2.927  51.985  1.00  0.00    -0.241 NA
HETATM   14  C12 UNL     1      22.861   1.673  52.327  1.00  0.00     0.157 A 
HETATM   15  O1  UNL     1      26.009   2.469  54.207  1.00  0.00    -0.308 OA
HETATM   16  H8  UNL     1      23.635  -0.564  52.893  1.00  0.00     0.160 HD
ENDROOT
BRANCH  14  17
HETATM   17  N4  UNL     1      22.049   0.578  51.932  1.00  0.00    -0.339 N 
HETATM   18  H11 UNL     1      22.694   0.011  51.308  1.00  0.00     0.167 HD
BRANCH  17  19
HETATM   19  C13 UNL     1      20.721   0.134  52.158  1.00  0.00     0.035 A 
HETATM   20  C14 UNL     1      20.439  -0.517  53.338  1.00  0.00     0.032 A 
HETATM   21  C15 UNL     1      19.123  -0.944  53.458  1.00  0.00     0.046 A 
HETATM   22  C16 UNL     1      18.187  -0.723  52.460  1.00  0.00     0.138 A 
HETATM   23  F1  UNL     1      16.914  -1.151  52.598  1.00  0.00    -0.204 F 
HETATM   24  C17 UNL     1      18.539  -0.055  51.282  1.00  0.00     0.074 A 
HETATM   25 CL1  UNL     1      17.351   0.216  50.030  1.00  0.00    -0.081 Cl
HETATM   26  C18 UNL     1      19.842   0.390  51.122  1.00  0.00     0.056 A 
ENDBRANCH  17  19
ENDBRANCH  14  17
BRANCH   1  27
HETATM   27  N1  UNL     1      29.670  -1.668  53.228  1.00  0.00    -0.399 N 
HETATM   28  H1  UNL     1      30.372  -1.415  52.497  1.00  0.00     0.156 HD
HETATM   29  H2  UNL     1      29.644  -2.609  53.715  1.00  0.00     0.156 HD
ENDBRANCH   1  27
TORSDOF 3
ENDMDL
MODEL 4
REMARK VINA RESULT:      -8.4      4.248      8.086
REMARK  3 active torsions:
REMARK  status: ('A' for Active; 'I' for Inactive)
REMARK    1  A    between atoms: N1_1  and  C1_2 
REMARK    2  A    between atoms: C12_15  and  N4_16 
REMARK    3  A    between atoms: N4_16  and  C13_17 
ROOT
HETATM    1  C1  UNL     1      25.275   6.379  48.488  1.00  0.00     0.026 A 
HETATM    2  C2  UNL     1      26.625   6.191  48.689  1.00  0.00     0.032 A 
HETATM    3  C3  UNL     1      27.158   5.016  49.167  1.00  0.00     0.040 A 
HETATM    4  C4  UNL     1      26.268   3.975  49.457  1.00  0.00     0.084 A 
HETATM    5  C5  UNL     1      24.906   4.132  49.263  1.00  0.00    -0.004 A 
HETATM    6  C6  UNL     1      24.418   5.342  48.778  1.00  0.00     0.040 A 
HETATM    7  C7  UNL     1      23.742   3.223  49.465  1.00  0.00     0.161 C 
HETATM    8  N2  UNL     1      23.830   2.705  50.818  1.00  0.00    -0.380 N 
HETATM    9  C8  UNL     1      24.937   2.172  51.558  1.00  0.00     0.109 A 
HETATM   10  C9  UNL     1      26.286   2.169  51.176  1.00  0.00     0.107 A 
HETATM   11  C10 UNL     1      27.206   1.592  52.026  1.00  0.00     0.059 A 
HETATM   12  C11 UNL     1      26.756   1.047  53.210  1.00  0.00     0.122 A 
HETATM   13  N3  UNL     1      25.453   1.069  53.543  1.00  0.00    -0.241 NA
HETATM   14  C12 UNL     1      24.513   1.617  52.753  1.00  0.00     0.157 A 
HETATM   15  O1  UNL     1      26.748   2.738  49.955  1.00  0.00    -0.308 OA
HETATM   16  H8  UNL     1      22.909   2.742  51.309  1.00  0.00     0.160 HD
ENDROOT
BRANCH  14  17
HETATM   17  N4  UNL     1      23.152   1.611  53.154  1.00  0.00    -0.339 N 
HETATM   18  H11 UNL     1      22.933   2.642  53.286  1.00  0.00     0.167 HD
BRANCH  17  19
HETATM   19  C13 UNL     1      22.143   0.644  53.394  1.00  0.00     0.035 A 
HETATM   20  C14 UNL     1      22.378  -0.329  54.341  1.00  0.00     0.032 A 
HETATM   21  C15 UNL     1      21.350  -1.250  54.484  1.00  0.00     0.046 A 
HETATM   22  C16 UNL     1      20.191  -1.180  53.727  1.00  0.00     0.138 A 
HETATM   23  F1  UNL     1      19.206  -2.090  53.882  1.00  0.00    -0.204 F 
HETATM   24  C17 UNL     1      20.014  -0.166  52.779  1.00  0.00     0.074 A 
HETATM   25 CL1  UNL     1      18.550  -0.088  51.829  1.00  0.00    -0.081 Cl
HETATM   26  C18 UNL     1      21.016   0.777  52.604  1.00  0.00     0.056 A 
ENDBRANCH  17  19
ENDBRANCH  14  17
BRANCH   1  27
HETATM   27  N1  UNL     1      24.721   7.590  47.996  1.00  0.00    -0.399 N 
HETATM   28  H1  UNL     1      23.684   7.513  47.892  1.00  0.00     0.156 HD
HETATM   29  H2  UNL     1      25.271   8.465  47.762  1.00  0.00     0.156 HD
ENDBRANCH   1  27
TORSDOF 3
ENDMDL
MODEL 5
REMARK VINA RESULT:      -8.4      1.874      2.559
REMARK  3 active torsions:
REMARK  status: ('A' for Active; 'I' for Inactive)
REMARK    1  A    between atoms: N1_1  and  C1_2 
REMARK    2  A    between atoms: C12_15  and  N4_16 
REMARK    3  A    between atoms: N4_16  and  C13_17 
ROOT
HETATM    1  C1  UNL     1      26.958   0.040  54.240  1.00  0.00     0.026 A 
HETATM    2  C2  UNL     1      25.770  -0.613  54.486  1.00  0.00     0.032 A 
HETATM    3  C3  UNL     1      24.601  -0.322  53.823  1.00  0.00     0.040 A 
HETATM    4  C4  UNL     1      24.641   0.690  52.856  1.00  0.00     0.084 A 
HETATM    5  C5  UNL     1      25.820   1.364  52.585  1.00  0.00    -0.004 A 
HETATM    6  C6  UNL     1      26.976   1.031  53.285  1.00  0.00     0.040 A 
HETATM    7  C7  UNL     1      26.168   2.452  51.627  1.00  0.00     0.161 C 
HETATM    8  N2  UNL     1      25.209   3.522  51.826  1.00  0.00    -0.380 N 
HETATM    9  C8  UNL     1      23.782   3.502  51.966  1.00  0.00     0.109 A 
HETATM   10  C9  UNL     1      22.962   2.372  52.103  1.00  0.00     0.107 A 
HETATM   11  C10 UNL     1      21.601   2.561  52.213  1.00  0.00     0.059 A 
HETATM   12  C11 UNL     1      21.110   3.849  52.185  1.00  0.00     0.122 A 
HETATM   13  N3  UNL     1      21.928   4.909  52.054  1.00  0.00    -0.241 NA
HETATM   14  C12 UNL     1      23.263   4.784  51.942  1.00  0.00     0.157 A 
HETATM   15  O1  UNL     1      23.473   1.043  52.136  1.00  0.00    -0.308 OA
HETATM   16  H8  UNL     1      25.673   4.457  51.868  1.00  0.00     0.160 HD
ENDROOT
BRANCH  14  17
HETATM   17  N4  UNL     1      24.078   5.938  51.804  1.00  0.00    -0.339 N 
HETATM   18  H11 UNL     1      24.445   6.094  52.788  1.00  0.00     0.167 HD
BRANCH  17  19
HETATM   19  C13 UNL     1      24.458   6.824  50.764  1.00  0.00     0.035 A 
HETATM   20  C14 UNL     1      23.680   7.938  50.534  1.00  0.00     0.032 A 
HETATM   21  C15 UNL     1      24.110   8.729  49.477  1.00  0.00     0.046 A 
HETATM   22  C16 UNL     1      25.230   8.407  48.728  1.00  0.00     0.138 A 
HETATM   23  F1  UNL     1      25.627   9.191  47.702  1.00  0.00    -0.204 F 
HETATM   24  C17 UNL     1      25.978   7.259  49.013  1.00  0.00     0.074 A 
HETATM   25 CL1  UNL     1      27.387   6.861  48.061  1.00  0.00    -0.081 Cl
HETATM   26  C18 UNL     1      25.585   6.440  50.061  1.00  0.00     0.056 A 
ENDBRANCH  17  19
ENDBRANCH  14  17
BRANCH   1  27
HETATM   27  N1  UNL     1      28.167  -0.256  54.923  1.00  0.00    -0.399 N 
HETATM   28  H1  UNL     1      28.302  -1.288  55.016  1.00  0.00     0.156 HD
HETATM   29  H2  UNL     1      28.853   0.462  55.293  1.00  0.00     0.156 HD
ENDBRANCH   1  27
TORSDOF 3
ENDMDL
MODEL 6
REMARK VINA RESULT:      -8.2      4.173      7.714
REMARK  3 active torsions:
REMARK  status: ('A' for Active; 'I' for Inactive)
REMARK    1  A    between atoms: N1_1  and  C1_2 
REMARK    2  A    between atoms: C12_15  and  N4_16 
REMARK    3  A    between atoms: N4_16  and  C13_17 
ROOT
HETATM    1  C1  UNL     1      25.660   7.391  50.135  1.00  0.00     0.026 A 
HETATM    2  C2  UNL     1      25.786   7.017  48.816  1.00  0.00     0.032 A 
HETATM    3  C3  UNL     1      24.867   6.224  48.168  1.00  0.00     0.040 A 
HETATM    4  C4  UNL     1      23.759   5.787  48.904  1.00  0.00     0.084 A 
HETATM    5  C5  UNL     1      23.603   6.148  50.232  1.00  0.00    -0.004 A 
HETATM    6  C6  UNL     1      24.563   6.952  50.840  1.00  0.00     0.040 A 
HETATM    7  C7  UNL     1      22.549   5.854  51.245  1.00  0.00     0.161 C 
HETATM    8  N2  UNL     1      22.361   4.416  51.264  1.00  0.00    -0.380 N 
HETATM    9  C8  UNL     1      22.223   3.464  50.200  1.00  0.00     0.109 A 
HETATM   10  C9  UNL     1      22.402   3.697  48.829  1.00  0.00     0.107 A 
HETATM   11  C10 UNL     1      22.210   2.647  47.956  1.00  0.00     0.059 A 
HETATM   12  C11 UNL     1      21.853   1.419  48.472  1.00  0.00     0.122 A 
HETATM   13  N3  UNL     1      21.693   1.233  49.794  1.00  0.00    -0.241 NA
HETATM   14  C12 UNL     1      21.866   2.220  50.691  1.00  0.00     0.157 A 
HETATM   15  O1  UNL     1      22.775   4.966  48.300  1.00  0.00    -0.308 OA
HETATM   16  H8  UNL     1      22.322   4.042  52.239  1.00  0.00     0.160 HD
ENDROOT
BRANCH  14  17
HETATM   17  N4  UNL     1      21.681   1.967  52.075  1.00  0.00    -0.339 N 
HETATM   18  H11 UNL     1      21.149   2.824  52.409  1.00  0.00     0.167 HD
BRANCH  17  19
HETATM   19  C13 UNL     1      22.016   0.945  52.999  1.00  0.00     0.035 A 
HETATM   20  C14 UNL     1      21.019   0.430  53.798  1.00  0.00     0.032 A 
HETATM   21  C15 UNL     1      21.446  -0.542  54.692  1.00  0.00     0.046 A 
HETATM   22  C16 UNL     1      22.770  -0.946  54.761  1.00  0.00     0.138 A 
HETATM   23  F1  UNL     1      23.162  -1.891  55.642  1.00  0.00    -0.204 F 
HETATM   24  C17 UNL     1      23.736  -0.381  53.920  1.00  0.00     0.074 A 
HETATM   25 CL1  UNL     1      25.402  -0.896  54.016  1.00  0.00    -0.081 Cl
HETATM   26  C18 UNL     1      23.353   0.592  53.010  1.00  0.00     0.056 A 
ENDBRANCH  17  19
ENDBRANCH  14  17
BRANCH   1  27
HETATM   27  N1  UNL     1      26.606   8.208  50.808  1.00  0.00    -0.399 N 
HETATM   28  H1  UNL     1      26.132   8.878  51.455  1.00  0.00     0.156 HD
HETATM   29  H2  UNL     1      27.658   8.157  50.685  1.00  0.00     0.156 HD
ENDBRANCH   1  27
TORSDOF 3
ENDMDL
MODEL 7
REMARK VINA RESULT:      -8.1      2.634      3.597
REMARK  3 active torsions:
REMARK  status: ('A' for Active; 'I' for Inactive)
REMARK    1  A    between atoms: N1_1  and  C1_2 
REMARK    2  A    between atoms: C12_15  and  N4_16 
REMARK    3  A    between atoms: N4_16  and  C13_17 
ROOT
HETATM    1  C1  UNL     1      29.039   1.607  54.449  1.00  0.00     0.026 A 
HETATM    2  C2  UNL     1      28.557   0.419  54.952  1.00  0.00     0.032 A 
HETATM    3  C3  UNL     1      27.432  -0.204  54.465  1.00  0.00     0.040 A 
HETATM    4  C4  UNL     1      26.758   0.417  53.406  1.00  0.00     0.084 A 
HETATM    5  C5  UNL     1      27.218   1.611  52.877  1.00  0.00    -0.004 A 
HETATM    6  C6  UNL     1      28.362   2.200  53.408  1.00  0.00     0.040 A 
HETATM    7  C7  UNL     1      26.732   2.483  51.769  1.00  0.00     0.161 C 
HETATM    8  N2  UNL     1      25.327   2.745  52.013  1.00  0.00    -0.380 N 
HETATM    9  C8  UNL     1      24.252   1.872  52.387  1.00  0.00     0.109 A 
HETATM   10  C9  UNL     1      24.349   0.527  52.772  1.00  0.00     0.107 A 
HETATM   11  C10 UNL     1      23.190  -0.150  53.085  1.00  0.00     0.059 A 
HETATM   12  C11 UNL     1      21.991   0.526  53.007  1.00  0.00     0.122 A 
HETATM   13  N3  UNL     1      21.937   1.817  52.635  1.00  0.00    -0.241 NA
HETATM   14  C12 UNL     1      23.034   2.527  52.318  1.00  0.00     0.157 A 
HETATM   15  O1  UNL     1      25.590  -0.167  52.857  1.00  0.00    -0.308 OA
HETATM   16  H8  UNL     1      25.091   3.753  51.883  1.00  0.00     0.160 HD
ENDROOT
BRANCH  14  17
HETATM   17  N4  UNL     1      22.917   3.887  51.931  1.00  0.00    -0.339 N 
HETATM   18  H11 UNL     1      22.491   4.347  52.787  1.00  0.00     0.167 HD
BRANCH  17  19
HETATM   19  C13 UNL     1      23.206   4.670  50.784  1.00  0.00     0.035 A 
HETATM   20  C14 UNL     1      23.040   4.100  49.541  1.00  0.00     0.032 A 
HETATM   21  C15 UNL     1      23.378   4.929  48.480  1.00  0.00     0.046 A 
HETATM   22  C16 UNL     1      23.842   6.219  48.676  1.00  0.00     0.138 A 
HETATM   23  F1  UNL     1      24.167   7.006  47.628  1.00  0.00    -0.204 F 
HETATM   24  C17 UNL     1      23.989   6.740  49.967  1.00  0.00     0.074 A 
HETATM   25 CL1  UNL     1      24.577   8.368  50.203  1.00  0.00    -0.081 Cl
HETATM   26  C18 UNL     1      23.662   5.946  51.056  1.00  0.00     0.056 A 
ENDBRANCH  17  19
ENDBRANCH  14  17
BRANCH   1  27
HETATM   27  N1  UNL     1      30.199   2.253  54.950  1.00  0.00    -0.399 N 
HETATM   28  H1  UNL     1      30.994   1.581  55.040  1.00  0.00     0.156 HD
HETATM   29  H2  UNL     1      30.268   3.280  55.203  1.00  0.00     0.156 HD
ENDBRANCH   1  27
TORSDOF 3
ENDMDL
MODEL 8
REMARK VINA RESULT:      -8.0      2.629      3.923
REMARK  3 active torsions:
REMARK  status: ('A' for Active; 'I' for Inactive)
REMARK    1  A    between atoms: N1_1  and  C1_2 
REMARK    2  A    between atoms: C12_15  and  N4_16 
REMARK    3  A    between atoms: N4_16  and  C13_17 
ROOT
HETATM    1  C1  UNL     1      25.986   0.907  52.308  1.00  0.00     0.026 A 
HETATM    2  C2  UNL     1      24.638   0.929  52.588  1.00  0.00     0.032 A 
HETATM    3  C3  UNL     1      23.763   1.816  52.007  1.00  0.00     0.040 A 
HETATM    4  C4  UNL     1      24.288   2.733  51.089  1.00  0.00     0.084 A 
HETATM    5  C5  UNL     1      25.639   2.736  50.785  1.00  0.00    -0.004 A 
HETATM    6  C6  UNL     1      26.482   1.816  51.402  1.00  0.00     0.040 A 
HETATM    7  C7  UNL     1      26.469   3.563  49.862  1.00  0.00     0.161 C 
HETATM    8  N2  UNL     1      26.192   4.954  50.165  1.00  0.00    -0.380 N 
HETATM    9  C8  UNL     1      24.956   5.648  50.385  1.00  0.00     0.109 A 
HETATM   10  C9  UNL     1      23.679   5.082  50.513  1.00  0.00     0.107 A 
HETATM   11  C10 UNL     1      22.606   5.925  50.709  1.00  0.00     0.059 A 
HETATM   12  C11 UNL     1      22.838   7.282  50.771  1.00  0.00     0.122 A 
HETATM   13  N3  UNL     1      24.077   7.789  50.644  1.00  0.00    -0.241 NA
HETATM   14  C12 UNL     1      25.160   7.015  50.451  1.00  0.00     0.157 A 
HETATM   15  O1  UNL     1      23.445   3.678  50.454  1.00  0.00    -0.308 OA
HETATM   16  H8  UNL     1      27.067   5.520  50.227  1.00  0.00     0.160 HD
ENDROOT
BRANCH  14  17
HETATM   17  N4  UNL     1      26.444   7.605  50.323  1.00  0.00    -0.339 N 
HETATM   18  H11 UNL     1      26.819   7.588  51.316  1.00  0.00     0.167 HD
BRANCH  17  19
HETATM   19  C13 UNL     1      27.238   8.151  49.282  1.00  0.00     0.035 A 
HETATM   20  C14 UNL     1      27.078   7.657  48.007  1.00  0.00     0.032 A 
HETATM   21  C15 UNL     1      27.919   8.229  47.061  1.00  0.00     0.046 A 
HETATM   22  C16 UNL     1      28.837   9.212  47.394  1.00  0.00     0.138 A 
HETATM   23  F1  UNL     1      29.646   9.750  46.457  1.00  0.00    -0.204 F 
HETATM   24  C17 UNL     1      28.950   9.670  48.711  1.00  0.00     0.074 A 
HETATM   25 CL1  UNL     1      30.112  10.909  49.120  1.00  0.00    -0.081 Cl
HETATM   26  C18 UNL     1      28.129   9.128  49.688  1.00  0.00     0.056 A 
ENDBRANCH  17  19
ENDBRANCH  14  17
BRANCH   1  27
HETATM   27  N1  UNL     1      26.893  -0.007  52.906  1.00  0.00    -0.399 N 
HETATM   28  H1  UNL     1      27.650  -0.276  52.238  1.00  0.00     0.156 HD
HETATM   29  H2  UNL     1      26.827  -0.375  53.898  1.00  0.00     0.156 HD
ENDBRANCH   1  27
TORSDOF 3
ENDMDL
MODEL 9
REMARK VINA RESULT:      -8.0      2.226      3.659
REMARK  3 active torsions:
REMARK  status: ('A' for Active; 'I' for Inactive)
REMARK    1  A    between atoms: N1_1  and  C1_2 
REMARK    2  A    between atoms: C12_15  and  N4_16 
REMARK    3  A    between atoms: N4_16  and  C13_17 
ROOT
HETATM    1  C1  UNL     1      19.781  -0.869  53.520  1.00  0.00     0.026 A 
HETATM    2  C2  UNL     1      20.551  -1.822  54.149  1.00  0.00     0.032 A 
HETATM    3  C3  UNL     1      21.878  -1.632  54.460  1.00  0.00     0.040 A 
HETATM    4  C4  UNL     1      22.452  -0.404  54.112  1.00  0.00     0.084 A 
HETATM    5  C5  UNL     1      21.704   0.575  53.480  1.00  0.00    -0.004 A 
HETATM    6  C6  UNL     1      20.365   0.332  53.187  1.00  0.00     0.040 A 
HETATM    7  C7  UNL     1      22.028   1.952  53.008  1.00  0.00     0.161 C 
HETATM    8  N2  UNL     1      23.216   1.855  52.183  1.00  0.00    -0.380 N 
HETATM    9  C8  UNL     1      24.454   1.158  52.381  1.00  0.00     0.109 A 
HETATM   10  C9  UNL     1      24.753   0.240  53.399  1.00  0.00     0.107 A 
HETATM   11  C10 UNL     1      26.014  -0.318  53.427  1.00  0.00     0.059 A 
HETATM   12  C11 UNL     1      26.918   0.050  52.453  1.00  0.00     0.122 A 
HETATM   13  N3  UNL     1      26.594   0.932  51.492  1.00  0.00    -0.241 NA
HETATM   14  C12 UNL     1      25.382   1.508  51.416  1.00  0.00     0.157 A 
HETATM   15  O1  UNL     1      23.815  -0.141  54.400  1.00  0.00    -0.308 OA
HETATM   16  H8  UNL     1      23.120   2.401  51.298  1.00  0.00     0.160 HD
ENDROOT
BRANCH  14  17
HETATM   17  N4  UNL     1      25.095   2.435  50.380  1.00  0.00    -0.339 N 
HETATM   18  H11 UNL     1      24.392   1.915  49.777  1.00  0.00     0.167 HD
BRANCH  17  19
HETATM   19  C13 UNL     1      25.499   3.744  50.015  1.00  0.00     0.035 A 
HETATM   20  C14 UNL     1      24.647   4.793  50.283  1.00  0.00     0.032 A 
HETATM   21  C15 UNL     1      25.112   6.031  49.862  1.00  0.00     0.046 A 
HETATM   22  C16 UNL     1      26.333   6.179  49.226  1.00  0.00     0.138 A 
HETATM   23  F1  UNL     1      26.762   7.394  48.822  1.00  0.00    -0.204 F 
HETATM   24  C17 UNL     1      27.153   5.072  48.982  1.00  0.00     0.074 A 
HETATM   25 CL1  UNL     1      28.691   5.269  48.178  1.00  0.00    -0.081 Cl
HETATM   26  C18 UNL     1      26.729   3.815  49.387  1.00  0.00     0.056 A 
ENDBRANCH  17  19
ENDBRANCH  14  17
BRANCH   1  27
HETATM   27  N1  UNL     1      18.413  -1.062  53.196  1.00  0.00    -0.399 N 
HETATM   28  H1  UNL     1      17.876  -1.408  54.023  1.00  0.00     0.156 HD
HETATM   29  H2  UNL     1      17.976  -0.883  52.246  1.00  0.00     0.156 HD
ENDBRANCH   1  27
TORSDOF 3
ENDMDL
