MODEL 1
REMARK VINA RESULT:      -7.7      0.000      0.000
REMARK  6 active torsions:
REMARK  status: ('A' for Active; 'I' for Inactive)
REMARK    1  A    between atoms: C2_2  and  C3_3 
REMARK    2  A    between atoms: C2_2  and  C17_24 
REMARK    3  A    between atoms: N2_10  and  C8_11 
REMARK    4  A    between atoms: C8_11  and  N3_12 
REMARK    5  A    between atoms: N3_12  and  C9_13 
REMARK    6  A    between atoms: C15_20  and  P1_21 
ROOT
HETATM    1  C3  UNL     1      18.574  -0.538  52.889  1.00  0.00     0.005 C 
HETATM    2  C4  UNL     1      19.774  -0.229  53.350  1.00  0.00     0.030 C 
HETATM    3  C5  UNL     1      20.505  -1.211  54.227  1.00  0.00     0.233 C 
HETATM    4  O1  UNL     1      21.810  -0.821  54.537  1.00  0.00    -0.339 OA
HETATM    5  C6  UNL     1      23.095  -0.743  54.076  1.00  0.00     0.254 C 
HETATM    6  N1  UNL     1      23.473   0.147  53.227  1.00  0.00    -0.216 NA
HETATM    7  C7  UNL     1      22.849   1.237  52.521  1.00  0.00     0.174 C 
HETATM    8  N2  UNL     1      23.523   1.947  51.651  1.00  0.00    -0.249 NA
HETATM    9  C14 UNL     1      21.485   1.747  52.599  1.00  0.00     0.081 C 
HETATM   10  C15 UNL     1      21.327   3.012  52.333  1.00  0.00     0.037 C 
HETATM   11  N4  UNL     1      20.243   1.074  52.925  1.00  0.00    -0.355 N 
HETATM   12  H19 UNL     1      19.402   1.717  52.825  1.00  0.00     0.166 HD
ENDROOT
BRANCH   8  13
HETATM   13  C8  UNL     1      24.905   1.560  51.461  1.00  0.00     0.272 C 
BRANCH  13  14
HETATM   14  N3  UNL     1      25.632   1.958  52.651  1.00  0.00    -0.375 N 
HETATM   15  H9  UNL     1      25.247   2.568  53.399  1.00  0.00     0.161 HD
BRANCH  14  16
HETATM   16  C9  UNL     1      26.950   1.613  53.016  1.00  0.00     0.011 A 
HETATM   17  C10 UNL     1      28.065   2.297  53.318  1.00  0.00     0.026 A 
HETATM   18  C11 UNL     1      29.100   1.293  53.610  1.00  0.00     0.021 A 
HETATM   19  C12 UNL     1      28.620   0.083  53.487  1.00  0.00     0.017 A 
HETATM   20 CL1  UNL     1      29.630  -1.317  53.774  1.00  0.00    -0.089 Cl
HETATM   21  C13 UNL     1      27.191   0.130  53.094  1.00  0.00     0.108 A 
ENDBRANCH  14  16
ENDBRANCH  13  14
ENDBRANCH   8  13
BRANCH  10  22
HETATM   22  P1  UNL     1      22.838   3.912  51.915  1.00  0.00    -0.107 P 
HETATM   23  C16 UNL     1      22.422   5.637  51.377  1.00  0.00     0.045 C 
HETATM   24  H15 UNL     1      23.533   3.256  50.807  1.00  0.00     0.061 HD
ENDBRANCH  10  22
BRANCH   1  25
HETATM   25  C2  UNL     1      17.683  -1.689  53.014  1.00  0.00    -0.031 C 
HETATM   26  C1  UNL     1      16.492  -1.600  52.399  1.00  0.00     0.049 C 
BRANCH  25  27
HETATM   27  C17 UNL     1      17.913  -2.978  53.746  1.00  0.00     0.004 C 
HETATM   28  C18 UNL     1      16.764  -3.915  53.354  1.00  0.00     0.006 C 
ENDBRANCH  25  27
ENDBRANCH   1  25
TORSDOF 6
ENDMDL
MODEL 2
REMARK VINA RESULT:      -7.4      2.850      6.870
REMARK  6 active torsions:
REMARK  status: ('A' for Active; 'I' for Inactive)
REMARK    1  A    between atoms: C2_2  and  C3_3 
REMARK    2  A    between atoms: C2_2  and  C17_24 
REMARK    3  A    between atoms: N2_10  and  C8_11 
REMARK    4  A    between atoms: C8_11  and  N3_12 
REMARK    5  A    between atoms: N3_12  and  C9_13 
REMARK    6  A    between atoms: C15_20  and  P1_21 
ROOT
HETATM    1  C3  UNL     1      26.230  -0.969  53.075  1.00  0.00     0.005 C 
HETATM    2  C4  UNL     1      25.444   0.063  53.332  1.00  0.00     0.030 C 
HETATM    3  C5  UNL     1      26.054   1.362  53.788  1.00  0.00     0.233 C 
HETATM    4  O1  UNL     1      25.131   2.406  53.897  1.00  0.00    -0.339 OA
HETATM    5  C6  UNL     1      24.410   3.340  53.206  1.00  0.00     0.254 C 
HETATM    6  N1  UNL     1      23.362   3.038  52.523  1.00  0.00    -0.216 NA
HETATM    7  C7  UNL     1      22.626   1.835  52.232  1.00  0.00     0.174 C 
HETATM    8  N2  UNL     1      21.595   1.857  51.425  1.00  0.00    -0.249 NA
HETATM    9  C14 UNL     1      22.828   0.472  52.709  1.00  0.00     0.081 C 
HETATM   10  C15 UNL     1      21.766  -0.278  52.778  1.00  0.00     0.037 C 
HETATM   11  N4  UNL     1      24.037  -0.212  53.126  1.00  0.00    -0.355 N 
HETATM   12  H19 UNL     1      23.857  -1.235  53.355  1.00  0.00     0.166 HD
ENDROOT
BRANCH   8  13
HETATM   13  C8  UNL     1      21.263   3.151  50.865  1.00  0.00     0.272 C 
BRANCH  13  14
HETATM   14  N3  UNL     1      22.021   3.298  49.638  1.00  0.00    -0.375 N 
HETATM   15  H9  UNL     1      21.886   2.711  48.790  1.00  0.00     0.161 HD
BRANCH  14  16
HETATM   16  C9  UNL     1      23.045   4.225  49.359  1.00  0.00     0.011 A 
HETATM   17  C10 UNL     1      23.094   5.541  49.095  1.00  0.00     0.026 A 
HETATM   18  C11 UNL     1      24.514   5.871  48.896  1.00  0.00     0.021 A 
HETATM   19  C12 UNL     1      25.261   4.808  49.035  1.00  0.00     0.017 A 
HETATM   20 CL1  UNL     1      26.999   4.900  48.853  1.00  0.00    -0.089 Cl
HETATM   21  C13 UNL     1      24.424   3.624  49.349  1.00  0.00     0.108 A 
ENDBRANCH  14  16
ENDBRANCH  13  14
ENDBRANCH   8  13
BRANCH  10  22
HETATM   22  P1  UNL     1      20.222   0.513  52.267  1.00  0.00    -0.107 P 
HETATM   23  C16 UNL     1      18.777  -0.538  52.761  1.00  0.00     0.045 C 
HETATM   24  H15 UNL     1      20.184   0.669  50.814  1.00  0.00     0.061 HD
ENDBRANCH  10  22
BRANCH   1  25
HETATM   25  C2  UNL     1      27.671  -1.207  53.119  1.00  0.00    -0.031 C 
HETATM   26  C1  UNL     1      28.083  -2.462  52.871  1.00  0.00     0.049 C 
BRANCH  25  27
HETATM   27  C17 UNL     1      28.774  -0.234  53.409  1.00  0.00     0.004 C 
HETATM   28  C18 UNL     1      30.016  -1.068  53.746  1.00  0.00     0.006 C 
ENDBRANCH  25  27
ENDBRANCH   1  25
TORSDOF 6
ENDMDL
MODEL 3
REMARK VINA RESULT:      -7.4      2.878      7.959
REMARK  6 active torsions:
REMARK  status: ('A' for Active; 'I' for Inactive)
REMARK    1  A    between atoms: C2_2  and  C3_3 
REMARK    2  A    between atoms: C2_2  and  C17_24 
REMARK    3  A    between atoms: N2_10  and  C8_11 
REMARK    4  A    between atoms: C8_11  and  N3_12 
REMARK    5  A    between atoms: N3_12  and  C9_13 
REMARK    6  A    between atoms: C15_20  and  P1_21 
ROOT
HETATM    1  C3  UNL     1      27.157   1.405  52.888  1.00  0.00     0.005 C 
HETATM    2  C4  UNL     1      25.983   0.827  52.697  1.00  0.00     0.030 C 
HETATM    3  C5  UNL     1      25.633  -0.412  53.477  1.00  0.00     0.233 C 
HETATM    4  O1  UNL     1      24.319  -0.845  53.281  1.00  0.00    -0.339 OA
HETATM    5  C6  UNL     1      23.009  -0.636  53.613  1.00  0.00     0.254 C 
HETATM    6  N1  UNL     1      22.321   0.339  53.133  1.00  0.00    -0.216 NA
HETATM    7  C7  UNL     1      22.562   1.427  52.220  1.00  0.00     0.174 C 
HETATM    8  N2  UNL     1      21.631   2.315  51.972  1.00  0.00    -0.249 NA
HETATM    9  C14 UNL     1      23.754   1.758  51.447  1.00  0.00     0.081 C 
HETATM   10  C15 UNL     1      23.557   2.391  50.326  1.00  0.00     0.037 C 
HETATM   11  N4  UNL     1      25.155   1.501  51.718  1.00  0.00    -0.355 N 
HETATM   12  H19 UNL     1      25.789   1.936  50.984  1.00  0.00     0.166 HD
ENDROOT
BRANCH   8  13
HETATM   13  C8  UNL     1      20.377   2.121  52.669  1.00  0.00     0.272 C 
BRANCH  13  14
HETATM   14  N3  UNL     1      19.459   1.492  51.741  1.00  0.00    -0.375 N 
HETATM   15  H9  UNL     1      19.376   1.743  50.735  1.00  0.00     0.161 HD
BRANCH  14  16
HETATM   16  C9  UNL     1      18.536   0.458  52.002  1.00  0.00     0.011 A 
HETATM   17  C10 UNL     1      17.288   0.170  51.598  1.00  0.00     0.026 A 
HETATM   18  C11 UNL     1      16.914  -1.082  52.271  1.00  0.00     0.021 A 
HETATM   19  C12 UNL     1      17.888  -1.510  53.031  1.00  0.00     0.017 A 
HETATM   20 CL1  UNL     1      17.724  -2.985  53.958  1.00  0.00    -0.089 Cl
HETATM   21  C13 UNL     1      19.046  -0.586  52.957  1.00  0.00     0.108 A 
ENDBRANCH  14  16
ENDBRANCH  13  14
ENDBRANCH   8  13
BRANCH  10  22
HETATM   22  P1  UNL     1      21.829   2.747  49.929  1.00  0.00    -0.107 P 
HETATM   23  C16 UNL     1      21.336   1.851  48.382  1.00  0.00     0.045 C 
HETATM   24  H15 UNL     1      21.642   4.178  49.694  1.00  0.00     0.061 HD
ENDBRANCH  10  22
BRANCH   1  25
HETATM   25  C2  UNL     1      28.316   1.137  53.736  1.00  0.00    -0.031 C 
HETATM   26  C1  UNL     1      29.093   2.188  54.047  1.00  0.00     0.049 C 
BRANCH  25  27
HETATM   27  C17 UNL     1      28.771  -0.168  54.316  1.00  0.00     0.004 C 
HETATM   28  C18 UNL     1      29.987  -0.613  53.494  1.00  0.00     0.006 C 
ENDBRANCH  25  27
ENDBRANCH   1  25
TORSDOF 6
ENDMDL
MODEL 4
REMARK VINA RESULT:      -7.3      3.893      8.148
REMARK  6 active torsions:
REMARK  status: ('A' for Active; 'I' for Inactive)
REMARK    1  A    between atoms: C2_2  and  C3_3 
REMARK    2  A    between atoms: C2_2  and  C17_24 
REMARK    3  A    between atoms: N2_10  and  C8_11 
REMARK    4  A    between atoms: C8_11  and  N3_12 
REMARK    5  A    between atoms: N3_12  and  C9_13 
REMARK    6  A    between atoms: C15_20  and  P1_21 
ROOT
HETATM    1  C3  UNL     1      25.634   8.026  49.816  1.00  0.00     0.005 C 
HETATM    2  C4  UNL     1      25.522   6.714  49.689  1.00  0.00     0.030 C 
HETATM    3  C5  UNL     1      26.587   5.950  48.948  1.00  0.00     0.233 C 
HETATM    4  O1  UNL     1      26.419   4.563  48.999  1.00  0.00    -0.339 OA
HETATM    5  C6  UNL     1      26.578   3.443  49.767  1.00  0.00     0.254 C 
HETATM    6  N1  UNL     1      25.794   3.158  50.747  1.00  0.00    -0.216 NA
HETATM    7  C7  UNL     1      24.636   3.760  51.356  1.00  0.00     0.174 C 
HETATM    8  N2  UNL     1      24.081   3.227  52.416  1.00  0.00    -0.249 NA
HETATM    9  C14 UNL     1      23.896   4.960  50.983  1.00  0.00     0.081 C 
HETATM   10  C15 UNL     1      22.632   4.978  51.295  1.00  0.00     0.037 C 
HETATM   11  N4  UNL     1      24.334   6.168  50.312  1.00  0.00    -0.355 N 
HETATM   12  H19 UNL     1      23.559   6.894  50.250  1.00  0.00     0.166 HD
ENDROOT
BRANCH   8  13
HETATM   13  C8  UNL     1      24.707   2.019  52.911  1.00  0.00     0.272 C 
BRANCH  13  14
HETATM   14  N3  UNL     1      25.898   2.414  53.635  1.00  0.00    -0.375 N 
HETATM   15  H9  UNL     1      25.948   3.222  54.288  1.00  0.00     0.161 HD
BRANCH  14  16
HETATM   16  C9  UNL     1      27.172   1.810  53.604  1.00  0.00     0.011 A 
HETATM   17  C10 UNL     1      28.439   2.255  53.600  1.00  0.00     0.026 A 
HETATM   18  C11 UNL     1      29.297   1.062  53.558  1.00  0.00     0.021 A 
HETATM   19  C12 UNL     1      28.576  -0.028  53.538  1.00  0.00     0.017 A 
HETATM   20 CL1  UNL     1      29.332  -1.606  53.486  1.00  0.00    -0.089 Cl
HETATM   21  C13 UNL     1      27.131   0.306  53.565  1.00  0.00     0.108 A 
ENDBRANCH  14  16
ENDBRANCH  13  14
ENDBRANCH   8  13
BRANCH  10  22
HETATM   22  P1  UNL     1      22.020   3.500  52.139  1.00  0.00    -0.107 P 
HETATM   23  C16 UNL     1      20.681   2.704  51.134  1.00  0.00     0.045 C 
HETATM   24  H15 UNL     1      21.451   3.852  53.439  1.00  0.00     0.061 HD
ENDBRANCH  10  22
BRANCH   1  25
HETATM   25  C2  UNL     1      26.610   9.027  49.390  1.00  0.00    -0.031 C 
HETATM   26  C1  UNL     1      27.506   9.425  50.308  1.00  0.00     0.049 C 
BRANCH  25  27
HETATM   27  C17 UNL     1      26.753   9.686  48.051  1.00  0.00     0.004 C 
HETATM   28  C18 UNL     1      25.978  11.007  48.129  1.00  0.00     0.006 C 
ENDBRANCH  25  27
ENDBRANCH   1  25
TORSDOF 6
ENDMDL
MODEL 5
REMARK VINA RESULT:      -7.2      4.097      8.854
REMARK  6 active torsions:
REMARK  status: ('A' for Active; 'I' for Inactive)
REMARK    1  A    between atoms: C2_2  and  C3_3 
REMARK    2  A    between atoms: C2_2  and  C17_24 
REMARK    3  A    between atoms: N2_10  and  C8_11 
REMARK    4  A    between atoms: C8_11  and  N3_12 
REMARK    5  A    between atoms: N3_12  and  C9_13 
REMARK    6  A    between atoms: C15_20  and  P1_21 
ROOT
HETATM    1  C3  UNL     1      25.949   5.897  48.920  1.00  0.00     0.005 C 
HETATM    2  C4  UNL     1      25.464   5.468  50.073  1.00  0.00     0.030 C 
HETATM    3  C5  UNL     1      24.442   6.299  50.801  1.00  0.00     0.233 C 
HETATM    4  O1  UNL     1      23.915   5.673  51.935  1.00  0.00    -0.339 OA
HETATM    5  C6  UNL     1      23.028   4.736  52.387  1.00  0.00     0.254 C 
HETATM    6  N1  UNL     1      23.254   3.472  52.302  1.00  0.00    -0.216 NA
HETATM    7  C7  UNL     1      24.317   2.640  51.800  1.00  0.00     0.174 C 
HETATM    8  N2  UNL     1      24.212   1.335  51.812  1.00  0.00    -0.249 NA
HETATM    9  C14 UNL     1      25.606   3.009  51.227  1.00  0.00     0.081 C 
HETATM   10  C15 UNL     1      26.572   2.149  51.381  1.00  0.00     0.037 C 
HETATM   11  N4  UNL     1      26.010   4.194  50.495  1.00  0.00    -0.355 N 
HETATM   12  H19 UNL     1      27.013   4.127  50.149  1.00  0.00     0.166 HD
ENDROOT
BRANCH   8  13
HETATM   13  C8  UNL     1      22.977   0.810  52.357  1.00  0.00     0.272 C 
BRANCH  13  14
HETATM   14  N3  UNL     1      21.939   1.036  51.371  1.00  0.00    -0.375 N 
HETATM   15  H9  UNL     1      22.080   1.544  50.474  1.00  0.00     0.161 HD
BRANCH  14  16
HETATM   16  C9  UNL     1      20.590   0.629  51.425  1.00  0.00     0.011 A 
HETATM   17  C10 UNL     1      19.524   0.751  50.617  1.00  0.00     0.026 A 
HETATM   18  C11 UNL     1      18.407   0.082  51.301  1.00  0.00     0.021 A 
HETATM   19  C12 UNL     1      18.793  -0.408  52.450  1.00  0.00     0.017 A 
HETATM   20 CL1  UNL     1      17.671  -1.261  53.486  1.00  0.00    -0.089 Cl
HETATM   21  C13 UNL     1      20.231  -0.124  52.677  1.00  0.00     0.108 A 
ENDBRANCH  14  16
ENDBRANCH  13  14
ENDBRANCH   8  13
BRANCH  10  22
HETATM   22  P1  UNL     1      26.135   0.644  52.283  1.00  0.00    -0.107 P 
HETATM   23  C16 UNL     1      27.644  -0.075  53.087  1.00  0.00     0.045 C 
HETATM   24  H15 UNL     1      25.595  -0.362  51.369  1.00  0.00     0.061 HD
ENDBRANCH  10  22
BRANCH   1  25
HETATM   25  C2  UNL     1      25.735   7.076  48.083  1.00  0.00    -0.031 C 
HETATM   26  C1  UNL     1      26.769   7.925  47.960  1.00  0.00     0.049 C 
BRANCH  25  27
HETATM   27  C17 UNL     1      24.502   7.481  47.332  1.00  0.00     0.004 C 
HETATM   28  C18 UNL     1      24.978   8.214  46.071  1.00  0.00     0.006 C 
ENDBRANCH  25  27
ENDBRANCH   1  25
TORSDOF 6
ENDMDL
MODEL 6
REMARK VINA RESULT:      -7.2      3.955      7.588
REMARK  6 active torsions:
REMARK  status: ('A' for Active; 'I' for Inactive)
REMARK    1  A    between atoms: C2_2  and  C3_3 
REMARK    2  A    between atoms: C2_2  and  C17_24 
REMARK    3  A    between atoms: N2_10  and  C8_11 
REMARK    4  A    between atoms: C8_11  and  N3_12 
REMARK    5  A    between atoms: N3_12  and  C9_13 
REMARK    6  A    between atoms: C15_20  and  P1_21 
ROOT
HETATM    1  C3  UNL     1      25.386  -0.843  53.512  1.00  0.00     0.005 C 
HETATM    2  C4  UNL     1      24.474   0.112  53.437  1.00  0.00     0.030 C 
HETATM    3  C5  UNL     1      24.909   1.533  53.196  1.00  0.00     0.233 C 
HETATM    4  O1  UNL     1      23.846   2.420  53.006  1.00  0.00    -0.339 OA
HETATM    5  C6  UNL     1      22.914   2.877  52.116  1.00  0.00     0.254 C 
HETATM    6  N1  UNL     1      21.864   2.201  51.806  1.00  0.00    -0.216 NA
HETATM    7  C7  UNL     1      21.306   0.925  52.174  1.00  0.00     0.174 C 
HETATM    8  N2  UNL     1      20.207   0.486  51.615  1.00  0.00    -0.249 NA
HETATM    9  C14 UNL     1      21.777  -0.061  53.140  1.00  0.00     0.081 C 
HETATM   10  C15 UNL     1      20.863  -0.807  53.693  1.00  0.00     0.037 C 
HETATM   11  N4  UNL     1      23.117  -0.366  53.601  1.00  0.00    -0.355 N 
HETATM   12  H19 UNL     1      23.131  -1.197  54.265  1.00  0.00     0.166 HD
ENDROOT
BRANCH   8  13
HETATM   13  C8  UNL     1      19.613   1.361  50.626  1.00  0.00     0.272 C 
BRANCH  13  14
HETATM   14  N3  UNL     1      20.171   0.999  49.338  1.00  0.00    -0.375 N 
HETATM   15  H9  UNL     1      20.092   0.056  48.907  1.00  0.00     0.161 HD
BRANCH  14  16
HETATM   16  C9  UNL     1      20.899   1.817  48.449  1.00  0.00     0.011 A 
HETATM   17  C10 UNL     1      22.183   1.896  48.062  1.00  0.00     0.026 A 
HETATM   18  C11 UNL     1      22.255   2.997  47.091  1.00  0.00     0.021 A 
HETATM   19  C12 UNL     1      21.078   3.538  46.914  1.00  0.00     0.017 A 
HETATM   20 CL1  UNL     1      20.861   4.877  45.809  1.00  0.00    -0.089 Cl
HETATM   21  C13 UNL     1      20.064   2.856  47.755  1.00  0.00     0.108 A 
ENDBRANCH  14  16
ENDBRANCH  13  14
ENDBRANCH   8  13
BRANCH  10  22
HETATM   22  P1  UNL     1      19.167  -0.481  53.158  1.00  0.00    -0.107 P 
HETATM   23  C16 UNL     1      18.099  -1.959  53.498  1.00  0.00     0.045 C 
HETATM   24  H15 UNL     1      19.125  -0.223  51.719  1.00  0.00     0.061 HD
ENDBRANCH  10  22
BRANCH   1  25
HETATM   25  C2  UNL     1      26.843  -0.891  53.414  1.00  0.00    -0.031 C 
HETATM   26  C1  UNL     1      27.364  -1.856  52.638  1.00  0.00     0.049 C 
BRANCH  25  27
HETATM   27  C17 UNL     1      27.857  -0.003  54.070  1.00  0.00     0.004 C 
HETATM   28  C18 UNL     1      29.234  -0.604  53.759  1.00  0.00     0.006 C 
ENDBRANCH  25  27
ENDBRANCH   1  25
TORSDOF 6
ENDMDL
MODEL 7
REMARK VINA RESULT:      -7.0      5.264      7.248
REMARK  6 active torsions:
REMARK  status: ('A' for Active; 'I' for Inactive)
REMARK    1  A    between atoms: C2_2  and  C3_3 
REMARK    2  A    between atoms: C2_2  and  C17_24 
REMARK    3  A    between atoms: N2_10  and  C8_11 
REMARK    4  A    between atoms: C8_11  and  N3_12 
REMARK    5  A    between atoms: N3_12  and  C9_13 
REMARK    6  A    between atoms: C15_20  and  P1_21 
ROOT
HETATM    1  C3  UNL     1      26.059   0.915  51.673  1.00  0.00     0.005 C 
HETATM    2  C4  UNL     1      25.141   1.845  51.876  1.00  0.00     0.030 C 
HETATM    3  C5  UNL     1      24.823   2.275  53.284  1.00  0.00     0.233 C 
HETATM    4  O1  UNL     1      23.935   3.352  53.354  1.00  0.00    -0.339 OA
HETATM    5  C6  UNL     1      23.809   4.708  53.236  1.00  0.00     0.254 C 
HETATM    6  N1  UNL     1      23.795   5.306  52.097  1.00  0.00    -0.216 NA
HETATM    7  C7  UNL     1      23.887   4.906  50.716  1.00  0.00     0.174 C 
HETATM    8  N2  UNL     1      23.897   5.799  49.758  1.00  0.00    -0.249 NA
HETATM    9  C14 UNL     1      23.981   3.575  50.128  1.00  0.00     0.081 C 
HETATM   10  C15 UNL     1      23.492   3.439  48.929  1.00  0.00     0.037 C 
HETATM   11  N4  UNL     1      24.541   2.347  50.657  1.00  0.00    -0.355 N 
HETATM   12  H19 UNL     1      24.517   1.558  49.945  1.00  0.00     0.166 HD
ENDROOT
BRANCH   8  13
HETATM   13  C8  UNL     1      23.808   7.180  50.185  1.00  0.00     0.272 C 
BRANCH  13  14
HETATM   14  N3  UNL     1      25.089   7.536  50.764  1.00  0.00    -0.375 N 
HETATM   15  H9  UNL     1      25.302   7.509  51.782  1.00  0.00     0.161 HD
BRANCH  14  16
HETATM   16  C9  UNL     1      26.251   7.971  50.094  1.00  0.00     0.011 A 
HETATM   17  C10 UNL     1      27.058   9.040  50.183  1.00  0.00     0.026 A 
HETATM   18  C11 UNL     1      28.103   8.855  49.165  1.00  0.00     0.021 A 
HETATM   19  C12 UNL     1      27.922   7.737  48.512  1.00  0.00     0.017 A 
HETATM   20 CL1  UNL     1      29.018   7.254  47.236  1.00  0.00    -0.089 Cl
HETATM   21  C13 UNL     1      26.721   7.030  49.019  1.00  0.00     0.108 A 
ENDBRANCH  14  16
ENDBRANCH  13  14
ENDBRANCH   8  13
BRANCH  10  22
HETATM   22  P1  UNL     1      22.779   4.936  48.207  1.00  0.00    -0.107 P 
HETATM   23  C16 UNL     1      22.030   4.550  46.555  1.00  0.00     0.045 C 
HETATM   24  H15 UNL     1      23.816   5.947  48.000  1.00  0.00     0.061 HD
ENDBRANCH  10  22
BRANCH   1  25
HETATM   25  C2  UNL     1      26.932   0.118  52.532  1.00  0.00    -0.031 C 
HETATM   26  C1  UNL     1      26.591  -1.169  52.711  1.00  0.00     0.049 C 
BRANCH  25  27
HETATM   27  C17 UNL     1      28.174   0.541  53.257  1.00  0.00     0.004 C 
HETATM   28  C18 UNL     1      27.980   0.144  54.726  1.00  0.00     0.006 C 
ENDBRANCH  25  27
ENDBRANCH   1  25
TORSDOF 6
ENDMDL
MODEL 8
REMARK VINA RESULT:      -7.0      4.362      5.677
REMARK  6 active torsions:
REMARK  status: ('A' for Active; 'I' for Inactive)
REMARK    1  A    between atoms: C2_2  and  C3_3 
REMARK    2  A    between atoms: C2_2  and  C17_24 
REMARK    3  A    between atoms: N2_10  and  C8_11 
REMARK    4  A    between atoms: C8_11  and  N3_12 
REMARK    5  A    between atoms: N3_12  and  C9_13 
REMARK    6  A    between atoms: C15_20  and  P1_21 
ROOT
HETATM    1  C3  UNL     1      21.422   0.570  51.601  1.00  0.00     0.005 C 
HETATM    2  C4  UNL     1      21.292   1.861  51.346  1.00  0.00     0.030 C 
HETATM    3  C5  UNL     1      21.154   2.830  52.490  1.00  0.00     0.233 C 
HETATM    4  O1  UNL     1      21.158   4.170  52.093  1.00  0.00    -0.339 OA
HETATM    5  C6  UNL     1      21.941   5.219  51.698  1.00  0.00     0.254 C 
HETATM    6  N1  UNL     1      22.449   5.298  50.519  1.00  0.00    -0.216 NA
HETATM    7  C7  UNL     1      22.432   4.490  49.327  1.00  0.00     0.174 C 
HETATM    8  N2  UNL     1      23.124   4.836  48.270  1.00  0.00    -0.249 NA
HETATM    9  C14 UNL     1      21.725   3.246  49.046  1.00  0.00     0.081 C 
HETATM   10  C15 UNL     1      21.411   3.030  47.801  1.00  0.00     0.037 C 
HETATM   11  N4  UNL     1      21.304   2.179  49.933  1.00  0.00    -0.355 N 
HETATM   12  H19 UNL     1      20.868   1.368  49.402  1.00  0.00     0.166 HD
ENDROOT
BRANCH   8  13
HETATM   13  C8  UNL     1      23.886   6.062  48.393  1.00  0.00     0.272 C 
BRANCH  13  14
HETATM   14  N3  UNL     1      25.137   5.730  49.047  1.00  0.00    -0.375 N 
HETATM   15  H9  UNL     1      25.218   5.118  49.885  1.00  0.00     0.161 HD
BRANCH  14  16
HETATM   16  C9  UNL     1      26.436   6.149  48.695  1.00  0.00     0.011 A 
HETATM   17  C10 UNL     1      27.016   7.331  48.426  1.00  0.00     0.026 A 
HETATM   18  C11 UNL     1      28.426   7.040  48.128  1.00  0.00     0.021 A 
HETATM   19  C12 UNL     1      28.665   5.758  48.216  1.00  0.00     0.017 A 
HETATM   20 CL1  UNL     1      30.266   5.119  47.912  1.00  0.00    -0.089 Cl
HETATM   21  C13 UNL     1      27.430   5.026  48.589  1.00  0.00     0.108 A 
ENDBRANCH  14  16
ENDBRANCH  13  14
ENDBRANCH   8  13
BRANCH  10  22
HETATM   22  P1  UNL     1      21.912   4.321  46.639  1.00  0.00    -0.107 P 
HETATM   23  C16 UNL     1      21.331   3.897  44.929  1.00  0.00     0.045 C 
HETATM   24  H15 UNL     1      23.369   4.436  46.598  1.00  0.00     0.061 HD
ENDBRANCH  10  22
BRANCH   1  25
HETATM   25  C2  UNL     1      21.473  -0.245  52.813  1.00  0.00    -0.031 C 
HETATM   26  C1  UNL     1      20.300  -0.515  53.409  1.00  0.00     0.049 C 
BRANCH  25  27
HETATM   27  C17 UNL     1      22.671  -0.831  53.499  1.00  0.00     0.004 C 
HETATM   28  C18 UNL     1      22.254  -1.106  54.949  1.00  0.00     0.006 C 
ENDBRANCH  25  27
ENDBRANCH   1  25
TORSDOF 6
ENDMDL
MODEL 9
REMARK VINA RESULT:      -6.9     10.018     13.301
REMARK  6 active torsions:
REMARK  status: ('A' for Active; 'I' for Inactive)
REMARK    1  A    between atoms: C2_2  and  C3_3 
REMARK    2  A    between atoms: C2_2  and  C17_24 
REMARK    3  A    between atoms: N2_10  and  C8_11 
REMARK    4  A    between atoms: C8_11  and  N3_12 
REMARK    5  A    between atoms: N3_12  and  C9_13 
REMARK    6  A    between atoms: C15_20  and  P1_21 
ROOT
HETATM    1  C3  UNL     1      31.551   4.158  46.978  1.00  0.00     0.005 C 
HETATM    2  C4  UNL     1      31.301   5.069  47.903  1.00  0.00     0.030 C 
HETATM    3  C5  UNL     1      32.429   5.589  48.754  1.00  0.00     0.233 C 
HETATM    4  O1  UNL     1      32.057   6.638  49.598  1.00  0.00    -0.339 OA
HETATM    5  C6  UNL     1      31.791   7.978  49.670  1.00  0.00     0.254 C 
HETATM    6  N1  UNL     1      30.696   8.491  49.232  1.00  0.00    -0.216 NA
HETATM    7  C7  UNL     1      29.500   7.996  48.599  1.00  0.00     0.174 C 
HETATM    8  N2  UNL     1      28.556   8.817  48.211  1.00  0.00    -0.249 NA
HETATM    9  C14 UNL     1      29.105   6.629  48.277  1.00  0.00     0.081 C 
HETATM   10  C15 UNL     1      27.825   6.391  48.251  1.00  0.00     0.037 C 
HETATM   11  N4  UNL     1      29.908   5.462  47.971  1.00  0.00    -0.355 N 
HETATM   12  H19 UNL     1      29.309   4.623  47.710  1.00  0.00     0.166 HD
ENDROOT
BRANCH   8  13
HETATM   13  C8  UNL     1      28.803  10.221  48.464  1.00  0.00     0.272 C 
BRANCH  13  14
HETATM   14  N3  UNL     1      29.366  10.786  47.254  1.00  0.00    -0.375 N 
HETATM   15  H9  UNL     1      28.811  11.048  46.414  1.00  0.00     0.161 HD
BRANCH  14  16
HETATM   16  C9  UNL     1      30.718  11.080  46.984  1.00  0.00     0.011 A 
HETATM   17  C10 UNL     1      31.779  11.448  47.720  1.00  0.00     0.026 A 
HETATM   18  C11 UNL     1      32.904  11.590  46.783  1.00  0.00     0.021 A 
HETATM   19  C12 UNL     1      32.527  11.321  45.561  1.00  0.00     0.017 A 
HETATM   20 CL1  UNL     1      33.660  11.409  44.231  1.00  0.00    -0.089 Cl
HETATM   21  C13 UNL     1      31.088  10.961  45.531  1.00  0.00     0.108 A 
ENDBRANCH  14  16
ENDBRANCH  13  14
ENDBRANCH   8  13
BRANCH  10  22
HETATM   22  P1  UNL     1      26.764   7.807  48.621  1.00  0.00    -0.107 P 
HETATM   23  C16 UNL     1      25.834   7.509  50.197  1.00  0.00     0.045 C 
HETATM   24  H15 UNL     1      25.782   8.003  47.555  1.00  0.00     0.061 HD
ENDBRANCH  10  22
BRANCH   1  25
HETATM   25  C2  UNL     1      32.746   3.454  46.516  1.00  0.00    -0.031 C 
HETATM   26  C1  UNL     1      32.918   2.200  46.964  1.00  0.00     0.049 C 
BRANCH  25  27
HETATM   27  C17 UNL     1      33.826   3.944  45.599  1.00  0.00     0.004 C 
HETATM   28  C18 UNL     1      35.134   3.303  46.082  1.00  0.00     0.006 C 
ENDBRANCH  25  27
ENDBRANCH   1  25
TORSDOF 6
ENDMDL
