MODEL 1
REMARK VINA RESULT:      -9.0      0.000      0.000
REMARK  6 active torsions:
REMARK  status: ('A' for Active; 'I' for Inactive)
REMARK    1  A    between atoms: C5_8  and  C6_9 
REMARK    2  A    between atoms: C8_13  and  C9_14 
REMARK    3  A    between atoms: C9_14  and  C10_15 
REMARK    4  A    between atoms: C10_15  and  N4_16 
REMARK    5  A    between atoms: C10_15  and  C11_17 
REMARK    6  A    between atoms: C11_17  and  C12_18 
ROOT
HETATM    1  C6  UNL     1      24.342   0.771  52.985  1.00  0.00    -0.010 A 
HETATM    2  C7  UNL     1      23.693  -0.320  53.232  1.00  0.00     0.099 A 
HETATM    3  N3  UNL     1      22.331  -0.653  53.086  1.00  0.00    -0.372 N 
HETATM    4  P2  UNL     1      21.228   0.615  52.462  1.00  0.00    -0.000 P 
HETATM    5  C8  UNL     1      22.318   2.057  52.177  1.00  0.00    -0.033 A 
HETATM    6  C18 UNL     1      23.591   1.893  52.468  1.00  0.00     0.023 A 
HETATM    7  H9  UNL     1      21.816  -1.521  53.273  1.00  0.00     0.164 HD
HETATM    8  H10 UNL     1      20.756   0.149  51.152  1.00  0.00     0.085 HD
ENDROOT
BRANCH   1   9
HETATM    9  C5  UNL     1      25.776   0.861  53.228  1.00  0.00    -0.024 C 
HETATM   10  C4  UNL     1      26.318   1.986  53.668  1.00  0.00     0.014 C 
HETATM   11  C3  UNL     1      27.763   2.191  53.940  1.00  0.00     0.026 C 
HETATM   12  P1  UNL     1      28.640   0.936  54.224  1.00  0.00     0.005 P 
HETATM   13  N2  UNL     1      30.124   0.690  53.364  1.00  0.00    -0.289 N 
HETATM   14  C20 UNL     1      27.828  -0.434  53.306  1.00  0.00     0.013 C 
HETATM   15  H5  UNL     1      28.740   0.569  55.578  1.00  0.00     0.085 HD
HETATM   16  N1  UNL     1      30.129  -0.708  53.323  1.00  0.00    -0.180 NA
HETATM   17  H4  UNL     1      30.916   1.234  52.923  1.00  0.00     0.187 HD
HETATM   18  C2  UNL     1      29.020  -1.301  53.303  1.00  0.00     0.063 C 
HETATM   19  C1  UNL     1      28.856  -2.804  53.255  1.00  0.00     0.073 C 
HETATM   20  C19 UNL     1      26.562  -0.323  53.053  1.00  0.00     0.028 C 
ENDBRANCH   1   9
BRANCH   5  21
HETATM   21  C9  UNL     1      21.752   3.308  51.639  1.00  0.00     0.076 C 
BRANCH  21  22
HETATM   22  C10 UNL     1      22.752   4.415  51.437  1.00  0.00     0.226 C 
BRANCH  22  23
HETATM   23  N4  UNL     1      22.226   5.633  51.972  1.00  0.00     0.083 N 
HETATM   24  H14 UNL     1      21.798   6.236  51.246  1.00  0.00     0.313 HD
HETATM   25  H15 UNL     1      21.582   5.427  52.753  1.00  0.00     0.313 HD
ENDBRANCH  22  23
BRANCH  22  26
HETATM   26  C11 UNL     1      23.020   4.517  49.941  1.00  0.00     0.074 C 
BRANCH  26  27
HETATM   27  C12 UNL     1      24.453   4.420  49.642  1.00  0.00    -0.056 A 
HETATM   28  C13 UNL     1      25.300   3.325  49.809  1.00  0.00     0.007 A 
HETATM   29  C14 UNL     1      26.636   3.394  49.478  1.00  0.00     0.001 A 
HETATM   30  C15 UNL     1      27.208   4.539  48.967  1.00  0.00     0.000 A 
HETATM   31  C16 UNL     1      26.420   5.653  48.781  1.00  0.00     0.001 A 
HETATM   32  C17 UNL     1      25.090   5.548  49.123  1.00  0.00     0.007 A 
ENDBRANCH  26  27
ENDBRANCH  22  26
ENDBRANCH  21  22
ENDBRANCH   5  21
TORSDOF 6
ENDMDL
MODEL 2
REMARK VINA RESULT:      -8.8      2.287      3.241
REMARK  6 active torsions:
REMARK  status: ('A' for Active; 'I' for Inactive)
REMARK    1  A    between atoms: C5_8  and  C6_9 
REMARK    2  A    between atoms: C8_13  and  C9_14 
REMARK    3  A    between atoms: C9_14  and  C10_15 
REMARK    4  A    between atoms: C10_15  and  N4_16 
REMARK    5  A    between atoms: C10_15  and  C11_17 
REMARK    6  A    between atoms: C11_17  and  C12_18 
ROOT
HETATM    1  C6  UNL     1      23.006   2.223  51.336  1.00  0.00    -0.010 A 
HETATM    2  C7  UNL     1      22.258   1.638  50.458  1.00  0.00     0.099 A 
HETATM    3  N3  UNL     1      21.396   2.152  49.469  1.00  0.00    -0.372 N 
HETATM    4  P2  UNL     1      21.241   3.934  49.348  1.00  0.00    -0.000 P 
HETATM    5  C8  UNL     1      22.357   4.571  50.650  1.00  0.00    -0.033 A 
HETATM    6  C18 UNL     1      22.997   3.669  51.363  1.00  0.00     0.023 A 
HETATM    7  H9  UNL     1      20.809   1.689  48.767  1.00  0.00     0.164 HD
HETATM    8  H10 UNL     1      21.811   4.314  48.049  1.00  0.00     0.085 HD
ENDROOT
BRANCH   1   9
HETATM    9  C5  UNL     1      23.820   1.448  52.264  1.00  0.00    -0.024 C 
HETATM   10  C4  UNL     1      23.393   0.284  52.728  1.00  0.00     0.014 C 
HETATM   11  C3  UNL     1      24.134  -0.582  53.680  1.00  0.00     0.026 C 
HETATM   12  P1  UNL     1      25.679  -0.413  53.773  1.00  0.00     0.005 P 
HETATM   13  N2  UNL     1      26.448  -0.211  55.312  1.00  0.00    -0.289 N 
HETATM   14  C20 UNL     1      25.997   1.342  53.331  1.00  0.00     0.013 C 
HETATM   15  H5  UNL     1      26.423  -1.235  52.907  1.00  0.00     0.085 HD
HETATM   16  N1  UNL     1      27.513   0.609  54.923  1.00  0.00    -0.180 NA
HETATM   17  H4  UNL     1      26.345  -0.497  56.324  1.00  0.00     0.187 HD
HETATM   18  C2  UNL     1      27.336   1.381  53.946  1.00  0.00     0.063 C 
HETATM   19  C1  UNL     1      28.384   2.328  53.406  1.00  0.00     0.073 C 
HETATM   20  C19 UNL     1      25.121   1.946  52.593  1.00  0.00     0.028 C 
ENDBRANCH   1   9
BRANCH   5  21
HETATM   21  C9  UNL     1      22.505   6.026  50.840  1.00  0.00     0.076 C 
BRANCH  21  22
HETATM   22  C10 UNL     1      23.923   6.529  50.766  1.00  0.00     0.226 C 
BRANCH  22  23
HETATM   23  N4  UNL     1      24.030   7.756  51.494  1.00  0.00     0.083 N 
HETATM   24  H14 UNL     1      24.232   8.567  50.882  1.00  0.00     0.313 HD
HETATM   25  H15 UNL     1      23.190   7.894  52.078  1.00  0.00     0.313 HD
ENDBRANCH  22  23
BRANCH  22  26
HETATM   26  C11 UNL     1      24.263   6.708  49.291  1.00  0.00     0.074 C 
BRANCH  26  27
HETATM   27  C12 UNL     1      25.606   6.204  48.983  1.00  0.00    -0.056 A 
HETATM   28  C13 UNL     1      26.669   6.883  48.389  1.00  0.00     0.007 A 
HETATM   29  C14 UNL     1      27.880   6.263  48.165  1.00  0.00     0.001 A 
HETATM   30  C15 UNL     1      28.109   4.949  48.511  1.00  0.00     0.000 A 
HETATM   31  C16 UNL     1      27.094   4.228  49.100  1.00  0.00     0.001 A 
HETATM   32  C17 UNL     1      25.898   4.879  49.310  1.00  0.00     0.007 A 
ENDBRANCH  26  27
ENDBRANCH  22  26
ENDBRANCH  21  22
ENDBRANCH   5  21
TORSDOF 6
ENDMDL
MODEL 3
REMARK VINA RESULT:      -8.5      2.373      3.597
REMARK  6 active torsions:
REMARK  status: ('A' for Active; 'I' for Inactive)
REMARK    1  A    between atoms: C5_8  and  C6_9 
REMARK    2  A    between atoms: C8_13  and  C9_14 
REMARK    3  A    between atoms: C9_14  and  C10_15 
REMARK    4  A    between atoms: C10_15  and  N4_16 
REMARK    5  A    between atoms: C10_15  and  C11_17 
REMARK    6  A    between atoms: C11_17  and  C12_18 
ROOT
HETATM    1  C6  UNL     1      23.193   2.741  51.578  1.00  0.00    -0.010 A 
HETATM    2  C7  UNL     1      22.059   2.386  51.068  1.00  0.00     0.099 A 
HETATM    3  N3  UNL     1      21.136   3.082  50.262  1.00  0.00    -0.372 N 
HETATM    4  P2  UNL     1      21.524   4.777  49.828  1.00  0.00    -0.000 P 
HETATM    5  C8  UNL     1      23.140   5.086  50.628  1.00  0.00    -0.033 A 
HETATM    6  C18 UNL     1      23.653   4.086  51.312  1.00  0.00     0.023 A 
HETATM    7  H9  UNL     1      20.239   2.799  49.850  1.00  0.00     0.164 HD
HETATM    8  H10 UNL     1      21.737   4.797  48.375  1.00  0.00     0.085 HD
ENDROOT
BRANCH   1   9
HETATM    9  C5  UNL     1      23.971   1.816  52.392  1.00  0.00    -0.024 C 
HETATM   10  C4  UNL     1      23.492   0.622  52.704  1.00  0.00     0.014 C 
HETATM   11  C3  UNL     1      24.193  -0.392  53.532  1.00  0.00     0.026 C 
HETATM   12  P1  UNL     1      25.745  -0.307  53.635  1.00  0.00     0.005 P 
HETATM   13  N2  UNL     1      26.523  -0.341  55.182  1.00  0.00    -0.289 N 
HETATM   14  C20 UNL     1      26.143   1.474  53.422  1.00  0.00     0.013 C 
HETATM   15  H5  UNL     1      26.449  -1.043  52.665  1.00  0.00     0.085 HD
HETATM   16  N1  UNL     1      27.625   0.472  54.895  1.00  0.00    -0.180 NA
HETATM   17  H4  UNL     1      26.408  -0.752  56.149  1.00  0.00     0.187 HD
HETATM   18  C2  UNL     1      27.482   1.372  54.028  1.00  0.00     0.063 C 
HETATM   19  C1  UNL     1      28.573   2.332  53.607  1.00  0.00     0.073 C 
HETATM   20  C19 UNL     1      25.294   2.208  52.774  1.00  0.00     0.028 C 
ENDBRANCH   1   9
BRANCH   5  21
HETATM   21  C9  UNL     1      23.795   6.398  50.473  1.00  0.00     0.076 C 
BRANCH  21  22
HETATM   22  C10 UNL     1      25.278   6.335  50.223  1.00  0.00     0.226 C 
BRANCH  22  23
HETATM   23  N4  UNL     1      25.918   7.432  50.881  1.00  0.00     0.083 N 
HETATM   24  H14 UNL     1      26.175   7.216  51.861  1.00  0.00     0.313 HD
HETATM   25  H15 UNL     1      26.721   7.760  50.320  1.00  0.00     0.313 HD
ENDBRANCH  22  23
BRANCH  22  26
HETATM   26  C11 UNL     1      25.485   6.375  48.714  1.00  0.00     0.074 C 
BRANCH  26  27
HETATM   27  C12 UNL     1      26.908   6.311  48.362  1.00  0.00    -0.056 A 
HETATM   28  C13 UNL     1      27.811   5.274  48.596  1.00  0.00     0.007 A 
HETATM   29  C14 UNL     1      29.128   5.368  48.200  1.00  0.00     0.001 A 
HETATM   30  C15 UNL     1      29.625   6.481  47.558  1.00  0.00     0.000 A 
HETATM   31  C16 UNL     1      28.779   7.537  47.302  1.00  0.00     0.001 A 
HETATM   32  C17 UNL     1      27.470   7.409  47.710  1.00  0.00     0.007 A 
ENDBRANCH  26  27
ENDBRANCH  22  26
ENDBRANCH  21  22
ENDBRANCH   5  21
TORSDOF 6
ENDMDL
MODEL 4
REMARK VINA RESULT:      -8.3      3.149      5.717
REMARK  6 active torsions:
REMARK  status: ('A' for Active; 'I' for Inactive)
REMARK    1  A    between atoms: C5_8  and  C6_9 
REMARK    2  A    between atoms: C8_13  and  C9_14 
REMARK    3  A    between atoms: C9_14  and  C10_15 
REMARK    4  A    between atoms: C10_15  and  N4_16 
REMARK    5  A    between atoms: C10_15  and  C11_17 
REMARK    6  A    between atoms: C11_17  and  C12_18 
ROOT
HETATM    1  C6  UNL     1      23.181   3.277  52.264  1.00  0.00    -0.010 A 
HETATM    2  C7  UNL     1      23.514   4.521  52.391  1.00  0.00     0.099 A 
HETATM    3  N3  UNL     1      22.920   5.704  51.909  1.00  0.00    -0.372 N 
HETATM    4  P2  UNL     1      21.433   5.543  50.921  1.00  0.00    -0.000 P 
HETATM    5  C8  UNL     1      21.128   3.741  50.858  1.00  0.00    -0.033 A 
HETATM    6  C18 UNL     1      21.993   2.980  51.494  1.00  0.00     0.023 A 
HETATM    7  H9  UNL     1      23.179   6.691  52.016  1.00  0.00     0.164 HD
HETATM    8  H10 UNL     1      20.347   6.151  51.700  1.00  0.00     0.085 HD
ENDROOT
BRANCH   1   9
HETATM    9  C5  UNL     1      23.980   2.221  52.871  1.00  0.00    -0.024 C 
HETATM   10  C4  UNL     1      23.469   1.015  53.067  1.00  0.00     0.014 C 
HETATM   11  C3  UNL     1      24.189  -0.129  53.682  1.00  0.00     0.026 C 
HETATM   12  P1  UNL     1      25.745  -0.121  53.646  1.00  0.00     0.005 P 
HETATM   13  N2  UNL     1      26.657  -0.396  55.093  1.00  0.00    -0.289 N 
HETATM   14  C20 UNL     1      26.214   1.657  53.633  1.00  0.00     0.013 C 
HETATM   15  H5  UNL     1      26.321  -0.744  52.525  1.00  0.00     0.085 HD
HETATM   16  N1  UNL     1      27.768   0.406  54.812  1.00  0.00    -0.180 NA
HETATM   17  H4  UNL     1      26.608  -0.929  56.004  1.00  0.00     0.187 HD
HETATM   18  C2  UNL     1      27.596   1.420  54.089  1.00  0.00     0.063 C 
HETATM   19  C1  UNL     1      28.692   2.386  53.697  1.00  0.00     0.073 C 
HETATM   20  C19 UNL     1      25.350   2.504  53.172  1.00  0.00     0.028 C 
ENDBRANCH   1   9
BRANCH   5  21
HETATM   21  C9  UNL     1      19.956   3.221  50.130  1.00  0.00     0.076 C 
BRANCH  21  22
HETATM   22  C10 UNL     1      20.025   1.756  49.790  1.00  0.00     0.226 C 
BRANCH  22  23
HETATM   23  N4  UNL     1      20.441   1.603  48.430  1.00  0.00     0.083 N 
HETATM   24  H14 UNL     1      20.684   2.505  47.982  1.00  0.00     0.313 HD
HETATM   25  H15 UNL     1      21.202   0.907  48.370  1.00  0.00     0.313 HD
ENDBRANCH  22  23
BRANCH  22  26
HETATM   26  C11 UNL     1      18.641   1.168  50.034  1.00  0.00     0.074 C 
BRANCH  26  27
HETATM   27  C12 UNL     1      18.624   0.301  51.217  1.00  0.00    -0.056 A 
HETATM   28  C13 UNL     1      17.580  -0.492  51.694  1.00  0.00     0.007 A 
HETATM   29  C14 UNL     1      17.723  -1.257  52.831  1.00  0.00     0.001 A 
HETATM   30  C15 UNL     1      18.894  -1.283  53.558  1.00  0.00     0.000 A 
HETATM   31  C16 UNL     1      19.958  -0.518  53.136  1.00  0.00     0.001 A 
HETATM   32  C17 UNL     1      19.780   0.233  51.995  1.00  0.00     0.007 A 
ENDBRANCH  26  27
ENDBRANCH  22  26
ENDBRANCH  21  22
ENDBRANCH   5  21
TORSDOF 6
ENDMDL
MODEL 5
REMARK VINA RESULT:      -8.3      3.948      7.448
REMARK  6 active torsions:
REMARK  status: ('A' for Active; 'I' for Inactive)
REMARK    1  A    between atoms: C5_8  and  C6_9 
REMARK    2  A    between atoms: C8_13  and  C9_14 
REMARK    3  A    between atoms: C9_14  and  C10_15 
REMARK    4  A    between atoms: C10_15  and  N4_16 
REMARK    5  A    between atoms: C10_15  and  C11_17 
REMARK    6  A    between atoms: C11_17  and  C12_18 
ROOT
HETATM    1  C6  UNL     1      26.219   4.888  49.196  1.00  0.00    -0.010 A 
HETATM    2  C7  UNL     1      24.951   5.094  49.044  1.00  0.00     0.099 A 
HETATM    3  N3  UNL     1      23.824   4.426  49.564  1.00  0.00    -0.372 N 
HETATM    4  P2  UNL     1      24.114   3.014  50.629  1.00  0.00    -0.000 P 
HETATM    5  C8  UNL     1      25.936   2.887  50.720  1.00  0.00    -0.033 A 
HETATM    6  C18 UNL     1      26.619   3.781  50.038  1.00  0.00     0.023 A 
HETATM    7  H9  UNL     1      22.818   4.594  49.450  1.00  0.00     0.164 HD
HETATM    8  H10 UNL     1      23.627   3.390  51.962  1.00  0.00     0.085 HD
ENDROOT
BRANCH   1   9
HETATM    9  C5  UNL     1      27.201   5.738  48.537  1.00  0.00    -0.024 C 
HETATM   10  C4  UNL     1      26.881   6.961  48.143  1.00  0.00     0.014 C 
HETATM   11  C3  UNL     1      27.798   7.907  47.457  1.00  0.00     0.026 C 
HETATM   12  P1  UNL     1      29.331   7.702  47.639  1.00  0.00     0.005 P 
HETATM   13  N2  UNL     1      30.378   7.654  46.260  1.00  0.00    -0.289 N 
HETATM   14  C20 UNL     1      29.544   5.899  47.922  1.00  0.00     0.013 C 
HETATM   15  H5  UNL     1      29.903   8.395  48.721  1.00  0.00     0.085 HD
HETATM   16  N1  UNL     1      31.342   6.763  46.744  1.00  0.00    -0.180 NA
HETATM   17  H4  UNL     1      30.473   8.058  45.288  1.00  0.00     0.187 HD
HETATM   18  C2  UNL     1      30.975   5.890  47.570  1.00  0.00     0.063 C 
HETATM   19  C1  UNL     1      31.893   4.854  48.183  1.00  0.00     0.073 C 
HETATM   20  C19 UNL     1      28.537   5.241  48.404  1.00  0.00     0.028 C 
ENDBRANCH   1   9
BRANCH   5  21
HETATM   21  C9  UNL     1      26.557   1.828  51.538  1.00  0.00     0.076 C 
BRANCH  21  22
HETATM   22  C10 UNL     1      25.971   1.674  52.917  1.00  0.00     0.226 C 
BRANCH  22  23
HETATM   23  N4  UNL     1      26.723   2.463  53.843  1.00  0.00     0.083 N 
HETATM   24  H14 UNL     1      27.339   1.890  54.448  1.00  0.00     0.313 HD
HETATM   25  H15 UNL     1      27.234   3.206  53.340  1.00  0.00     0.313 HD
ENDBRANCH  22  23
BRANCH  22  26
HETATM   26  C11 UNL     1      26.012   0.191  53.264  1.00  0.00     0.074 C 
BRANCH  26  27
HETATM   27  C12 UNL     1      24.760  -0.252  53.886  1.00  0.00    -0.056 A 
HETATM   28  C13 UNL     1      24.591  -1.043  55.022  1.00  0.00     0.007 A 
HETATM   29  C14 UNL     1      23.336  -1.375  55.485  1.00  0.00     0.001 A 
HETATM   30  C15 UNL     1      22.185  -0.949  54.858  1.00  0.00     0.000 A 
HETATM   31  C16 UNL     1      22.290  -0.166  53.730  1.00  0.00     0.001 A 
HETATM   32  C17 UNL     1      23.560   0.147  53.297  1.00  0.00     0.007 A 
ENDBRANCH  26  27
ENDBRANCH  22  26
ENDBRANCH  21  22
ENDBRANCH   5  21
TORSDOF 6
ENDMDL
MODEL 6
REMARK VINA RESULT:      -8.0      2.182      3.553
REMARK  6 active torsions:
REMARK  status: ('A' for Active; 'I' for Inactive)
REMARK    1  A    between atoms: C5_8  and  C6_9 
REMARK    2  A    between atoms: C8_13  and  C9_14 
REMARK    3  A    between atoms: C9_14  and  C10_15 
REMARK    4  A    between atoms: C10_15  and  N4_16 
REMARK    5  A    between atoms: C10_15  and  C11_17 
REMARK    6  A    between atoms: C11_17  and  C12_18 
ROOT
HETATM    1  C6  UNL     1      22.622  -0.163  53.425  1.00  0.00    -0.010 A 
HETATM    2  C7  UNL     1      22.122  -0.987  54.287  1.00  0.00     0.099 A 
HETATM    3  N3  UNL     1      20.804  -1.444  54.490  1.00  0.00    -0.372 N 
HETATM    4  P2  UNL     1      19.526  -0.805  53.408  1.00  0.00    -0.000 P 
HETATM    5  C8  UNL     1      20.419   0.324  52.278  1.00  0.00    -0.033 A 
HETATM    6  C18 UNL     1      21.716   0.438  52.471  1.00  0.00     0.023 A 
HETATM    7  H9  UNL     1      20.407  -2.104  55.169  1.00  0.00     0.164 HD
HETATM    8  H10 UNL     1      19.047  -1.942  52.613  1.00  0.00     0.085 HD
ENDROOT
BRANCH   1   9
HETATM    9  C5  UNL     1      24.046   0.148  53.424  1.00  0.00    -0.024 C 
HETATM   10  C4  UNL     1      24.885  -0.522  54.198  1.00  0.00     0.014 C 
HETATM   11  C3  UNL     1      26.348  -0.284  54.282  1.00  0.00     0.026 C 
HETATM   12  P1  UNL     1      27.047   0.412  53.077  1.00  0.00     0.005 P 
HETATM   13  N2  UNL     1      28.081   1.778  53.332  1.00  0.00    -0.289 N 
HETATM   14  C20 UNL     1      25.753   1.475  52.320  1.00  0.00     0.013 C 
HETATM   15  H5  UNL     1      27.545  -0.459  52.091  1.00  0.00     0.085 HD
HETATM   16  N1  UNL     1      27.839   2.467  52.139  1.00  0.00    -0.180 NA
HETATM   17  H4  UNL     1      28.751   2.177  54.045  1.00  0.00     0.187 HD
HETATM   18  C2  UNL     1      26.709   2.337  51.603  1.00  0.00     0.063 C 
HETATM   19  C1  UNL     1      26.291   3.015  50.316  1.00  0.00     0.073 C 
HETATM   20  C19 UNL     1      24.515   1.141  52.505  1.00  0.00     0.028 C 
ENDBRANCH   1   9
BRANCH   5  21
HETATM   21  C9  UNL     1      19.680   1.034  51.218  1.00  0.00     0.076 C 
BRANCH  21  22
HETATM   22  C10 UNL     1      19.548   2.519  51.429  1.00  0.00     0.226 C 
BRANCH  22  23
HETATM   23  N4  UNL     1      18.165   2.859  51.560  1.00  0.00     0.083 N 
HETATM   24  H14 UNL     1      17.901   3.092  52.534  1.00  0.00     0.313 HD
HETATM   25  H15 UNL     1      17.921   3.606  50.889  1.00  0.00     0.313 HD
ENDBRANCH  22  23
BRANCH  22  26
HETATM   26  C11 UNL     1      20.196   3.207  50.233  1.00  0.00     0.074 C 
BRANCH  26  27
HETATM   27  C12 UNL     1      21.398   3.951  50.624  1.00  0.00    -0.056 A 
HETATM   28  C13 UNL     1      22.312   4.611  49.803  1.00  0.00     0.007 A 
HETATM   29  C14 UNL     1      23.401   5.271  50.329  1.00  0.00     0.001 A 
HETATM   30  C15 UNL     1      23.650   5.316  51.684  1.00  0.00     0.000 A 
HETATM   31  C16 UNL     1      22.782   4.680  52.543  1.00  0.00     0.001 A 
HETATM   32  C17 UNL     1      21.704   4.032  51.983  1.00  0.00     0.007 A 
ENDBRANCH  26  27
ENDBRANCH  22  26
ENDBRANCH  21  22
ENDBRANCH   5  21
TORSDOF 6
ENDMDL
MODEL 7
REMARK VINA RESULT:      -8.0      2.678      5.976
REMARK  6 active torsions:
REMARK  status: ('A' for Active; 'I' for Inactive)
REMARK    1  A    between atoms: C5_8  and  C6_9 
REMARK    2  A    between atoms: C8_13  and  C9_14 
REMARK    3  A    between atoms: C9_14  and  C10_15 
REMARK    4  A    between atoms: C10_15  and  N4_16 
REMARK    5  A    between atoms: C10_15  and  C11_17 
REMARK    6  A    between atoms: C11_17  and  C12_18 
ROOT
HETATM    1  C6  UNL     1      25.136   1.905  51.956  1.00  0.00    -0.010 A 
HETATM    2  C7  UNL     1      26.314   1.374  52.017  1.00  0.00     0.099 A 
HETATM    3  N3  UNL     1      26.773   0.179  52.606  1.00  0.00    -0.372 N 
HETATM    4  P2  UNL     1      25.572  -0.843  53.457  1.00  0.00    -0.000 P 
HETATM    5  C8  UNL     1      23.994   0.062  53.262  1.00  0.00    -0.033 A 
HETATM    6  C18 UNL     1      24.050   1.194  52.594  1.00  0.00     0.023 A 
HETATM    7  H9  UNL     1      27.706  -0.247  52.647  1.00  0.00     0.164 HD
HETATM    8  H10 UNL     1      25.467  -2.090  52.689  1.00  0.00     0.085 HD
ENDROOT
BRANCH   1   9
HETATM    9  C5  UNL     1      24.920   3.174  51.274  1.00  0.00    -0.024 C 
HETATM   10  C4  UNL     1      23.863   3.920  51.554  1.00  0.00     0.014 C 
HETATM   11  C3  UNL     1      23.541   5.222  50.916  1.00  0.00     0.026 C 
HETATM   12  P1  UNL     1      24.705   6.027  50.266  1.00  0.00     0.005 P 
HETATM   13  N2  UNL     1      24.559   6.627  48.648  1.00  0.00    -0.289 N 
HETATM   14  C20 UNL     1      25.926   4.759  49.735  1.00  0.00     0.013 C 
HETATM   15  H5  UNL     1      25.350   6.940  51.119  1.00  0.00     0.085 HD
HETATM   16  N1  UNL     1      25.900   6.544  48.258  1.00  0.00    -0.180 NA
HETATM   17  H4  UNL     1      23.833   6.988  47.970  1.00  0.00     0.187 HD
HETATM   18  C2  UNL     1      26.610   5.645  48.776  1.00  0.00     0.063 C 
HETATM   19  C1  UNL     1      28.072   5.422  48.459  1.00  0.00     0.073 C 
HETATM   20  C19 UNL     1      25.923   3.623  50.357  1.00  0.00     0.028 C 
ENDBRANCH   1   9
BRANCH   5  21
HETATM   21  C9  UNL     1      22.754  -0.497  53.831  1.00  0.00     0.076 C 
BRANCH  21  22
HETATM   22  C10 UNL     1      21.546   0.392  53.700  1.00  0.00     0.226 C 
BRANCH  22  23
HETATM   23  N4  UNL     1      20.749   0.287  54.884  1.00  0.00     0.083 N 
HETATM   24  H14 UNL     1      20.823   1.123  55.491  1.00  0.00     0.313 HD
HETATM   25  H15 UNL     1      19.773   0.059  54.633  1.00  0.00     0.313 HD
ENDBRANCH  22  23
BRANCH  22  26
HETATM   26  C11 UNL     1      20.785  -0.056  52.459  1.00  0.00     0.074 C 
BRANCH  26  27
HETATM   27  C12 UNL     1      20.857   0.946  51.391  1.00  0.00    -0.056 A 
HETATM   28  C13 UNL     1      20.367   2.252  51.395  1.00  0.00     0.007 A 
HETATM   29  C14 UNL     1      20.516   3.078  50.302  1.00  0.00     0.001 A 
HETATM   30  C15 UNL     1      21.152   2.666  49.150  1.00  0.00     0.000 A 
HETATM   31  C16 UNL     1      21.655   1.385  49.088  1.00  0.00     0.001 A 
HETATM   32  C17 UNL     1      21.488   0.588  50.199  1.00  0.00     0.007 A 
ENDBRANCH  26  27
ENDBRANCH  22  26
ENDBRANCH  21  22
ENDBRANCH   5  21
TORSDOF 6
ENDMDL
MODEL 8
REMARK VINA RESULT:      -8.0      2.958      6.694
REMARK  6 active torsions:
REMARK  status: ('A' for Active; 'I' for Inactive)
REMARK    1  A    between atoms: C5_8  and  C6_9 
REMARK    2  A    between atoms: C8_13  and  C9_14 
REMARK    3  A    between atoms: C9_14  and  C10_15 
REMARK    4  A    between atoms: C10_15  and  N4_16 
REMARK    5  A    between atoms: C10_15  and  C11_17 
REMARK    6  A    between atoms: C11_17  and  C12_18 
ROOT
HETATM    1  C6  UNL     1      21.233   0.168  52.751  1.00  0.00    -0.010 A 
HETATM    2  C7  UNL     1      20.548  -0.562  53.570  1.00  0.00     0.099 A 
HETATM    3  N3  UNL     1      20.938  -1.368  54.658  1.00  0.00    -0.372 N 
HETATM    4  P2  UNL     1      22.688  -1.465  55.034  1.00  0.00    -0.000 P 
HETATM    5  C8  UNL     1      23.476  -0.383  53.788  1.00  0.00    -0.033 A 
HETATM    6  C18 UNL     1      22.669   0.201  52.928  1.00  0.00     0.023 A 
HETATM    7  H9  UNL     1      20.394  -1.942  55.313  1.00  0.00     0.164 HD
HETATM    8  H10 UNL     1      22.866  -0.834  56.348  1.00  0.00     0.085 HD
ENDROOT
BRANCH   1   9
HETATM    9  C5  UNL     1      20.579   0.921  51.689  1.00  0.00    -0.024 C 
HETATM   10  C4  UNL     1      19.410   1.508  51.899  1.00  0.00     0.014 C 
HETATM   11  C3  UNL     1      18.653   2.291  50.889  1.00  0.00     0.026 C 
HETATM   12  P1  UNL     1      19.442   2.902  49.694  1.00  0.00     0.005 P 
HETATM   13  N2  UNL     1      18.900   2.656  48.067  1.00  0.00    -0.289 N 
HETATM   14  C20 UNL     1      20.872   1.776  49.437  1.00  0.00     0.013 C 
HETATM   15  H5  UNL     1      19.931   4.205  49.904  1.00  0.00     0.085 HD
HETATM   16  N1  UNL     1      20.139   2.647  47.418  1.00  0.00    -0.180 NA
HETATM   17  H4  UNL     1      18.011   2.529  47.510  1.00  0.00     0.187 HD
HETATM   18  C2  UNL     1      21.137   2.230  48.060  1.00  0.00     0.063 C 
HETATM   19  C1  UNL     1      22.541   2.154  47.501  1.00  0.00     0.073 C 
HETATM   20  C19 UNL     1      21.273   1.071  50.447  1.00  0.00     0.028 C 
ENDBRANCH   1   9
BRANCH   5  21
HETATM   21  C9  UNL     1      24.939  -0.199  53.797  1.00  0.00     0.076 C 
BRANCH  21  22
HETATM   22  C10 UNL     1      25.520   0.290  52.497  1.00  0.00     0.226 C 
BRANCH  22  23
HETATM   23  N4  UNL     1      26.605  -0.558  52.113  1.00  0.00     0.083 N 
HETATM   24  H14 UNL     1      26.316  -1.306  51.457  1.00  0.00     0.313 HD
HETATM   25  H15 UNL     1      27.387   0.011  51.751  1.00  0.00     0.313 HD
ENDBRANCH  22  23
BRANCH  22  26
HETATM   26  C11 UNL     1      25.969   1.730  52.715  1.00  0.00     0.074 C 
BRANCH  26  27
HETATM   27  C12 UNL     1      24.949   2.686  52.271  1.00  0.00    -0.056 A 
HETATM   28  C13 UNL     1      24.062   3.429  53.051  1.00  0.00     0.007 A 
HETATM   29  C14 UNL     1      23.155   4.293  52.477  1.00  0.00     0.001 A 
HETATM   30  C15 UNL     1      23.071   4.473  51.113  1.00  0.00     0.000 A 
HETATM   31  C16 UNL     1      23.921   3.765  50.294  1.00  0.00     0.001 A 
HETATM   32  C17 UNL     1      24.815   2.911  50.901  1.00  0.00     0.007 A 
ENDBRANCH  26  27
ENDBRANCH  22  26
ENDBRANCH  21  22
ENDBRANCH   5  21
TORSDOF 6
ENDMDL
MODEL 9
REMARK VINA RESULT:      -7.9      2.595      4.569
REMARK  6 active torsions:
REMARK  status: ('A' for Active; 'I' for Inactive)
REMARK    1  A    between atoms: C5_8  and  C6_9 
REMARK    2  A    between atoms: C8_13  and  C9_14 
REMARK    3  A    between atoms: C9_14  and  C10_15 
REMARK    4  A    between atoms: C10_15  and  N4_16 
REMARK    5  A    between atoms: C10_15  and  C11_17 
REMARK    6  A    between atoms: C11_17  and  C12_18 
ROOT
HETATM    1  C6  UNL     1      25.422   3.330  51.021  1.00  0.00    -0.010 A 
HETATM    2  C7  UNL     1      26.388   3.618  50.211  1.00  0.00     0.099 A 
HETATM    3  N3  UNL     1      26.508   4.598  49.206  1.00  0.00    -0.372 N 
HETATM    4  P2  UNL     1      25.104   5.676  48.926  1.00  0.00    -0.000 P 
HETATM    5  C8  UNL     1      23.861   5.122  50.148  1.00  0.00    -0.033 A 
HETATM    6  C18 UNL     1      24.213   4.119  50.925  1.00  0.00     0.023 A 
HETATM    7  H9  UNL     1      27.278   4.832  48.568  1.00  0.00     0.164 HD
HETATM    8  H10 UNL     1      25.533   7.027  49.310  1.00  0.00     0.085 HD
ENDROOT
BRANCH   1   9
HETATM    9  C5  UNL     1      25.550   2.248  51.988  1.00  0.00    -0.024 C 
HETATM   10  C4  UNL     1      24.495   1.533  52.346  1.00  0.00     0.014 C 
HETATM   11  C3  UNL     1      24.510   0.416  53.325  1.00  0.00     0.026 C 
HETATM   12  P1  UNL     1      25.861  -0.312  53.584  1.00  0.00     0.005 P 
HETATM   13  N2  UNL     1      26.432  -0.553  55.202  1.00  0.00    -0.289 N 
HETATM   14  C20 UNL     1      27.157   0.952  53.266  1.00  0.00     0.013 C 
HETATM   15  H5  UNL     1      26.109  -1.425  52.759  1.00  0.00     0.085 HD
HETATM   16  N1  UNL     1      27.809  -0.481  54.966  1.00  0.00    -0.180 NA
HETATM   17  H4  UNL     1      26.072  -0.715  56.183  1.00  0.00     0.187 HD
HETATM   18  C2  UNL     1      28.207   0.241  54.016  1.00  0.00     0.063 C 
HETATM   19  C1  UNL     1      29.659   0.425  53.634  1.00  0.00     0.073 C 
HETATM   20  C19 UNL     1      26.860   1.932  52.473  1.00  0.00     0.028 C 
ENDBRANCH   1   9
BRANCH   5  21
HETATM   21  C9  UNL     1      22.556   5.803  50.227  1.00  0.00     0.076 C 
BRANCH  21  22
HETATM   22  C10 UNL     1      21.391   4.990  49.726  1.00  0.00     0.226 C 
BRANCH  22  23
HETATM   23  N4  UNL     1      20.588   5.796  48.858  1.00  0.00     0.083 N 
HETATM   24  H14 UNL     1      20.712   5.552  47.858  1.00  0.00     0.313 HD
HETATM   25  H15 UNL     1      19.601   5.763  49.159  1.00  0.00     0.313 HD
ENDBRANCH  22  23
BRANCH  22  26
HETATM   26  C11 UNL     1      20.612   4.514  50.945  1.00  0.00     0.074 C 
BRANCH  26  27
HETATM   27  C12 UNL     1      20.780   3.073  51.164  1.00  0.00    -0.056 A 
HETATM   28  C13 UNL     1      21.141   2.094  50.239  1.00  0.00     0.007 A 
HETATM   29  C14 UNL     1      21.258   0.770  50.604  1.00  0.00     0.001 A 
HETATM   30  C15 UNL     1      21.027   0.341  51.894  1.00  0.00     0.000 A 
HETATM   31  C16 UNL     1      20.667   1.264  52.850  1.00  0.00     0.001 A 
HETATM   32  C17 UNL     1      20.560   2.577  52.449  1.00  0.00     0.007 A 
ENDBRANCH  26  27
ENDBRANCH  22  26
ENDBRANCH  21  22
ENDBRANCH   5  21
TORSDOF 6
ENDMDL
