MODEL 1
REMARK VINA RESULT:      -9.1      0.000      0.000
REMARK  2 active torsions:
REMARK  status: ('A' for Active; 'I' for Inactive)
REMARK    1  A    between atoms: N2_15  and  C12_16 
REMARK    2  A    between atoms: C12_16  and  C13_17 
ROOT
HETATM    1  C1  UNL     1      22.331  -1.086  54.946  1.00  0.00     0.048 C 
HETATM    2  C2  UNL     1      22.730  -0.381  53.647  1.00  0.00    -0.061 C 
HETATM    3  C3  UNL     1      23.911   0.260  53.704  1.00  0.00     0.023 C 
HETATM    4  C4  UNL     1      24.822   1.064  52.856  1.00  0.00     0.027 A 
HETATM    5  C5  UNL     1      26.082   0.943  53.307  1.00  0.00     0.091 A 
HETATM    6  O1  UNL     1      26.426   0.174  54.409  1.00  0.00    -0.349 OA
HETATM    7  C6  UNL     1      27.799  -0.116  54.719  1.00  0.00     0.201 C 
HETATM    8  C7  UNL     1      28.617   1.159  54.702  1.00  0.00     0.195 C 
HETATM    9  O2  UNL     1      27.961   2.146  53.931  1.00  0.00    -0.373 OA
HETATM   10  C8  UNL     1      27.384   1.483  52.880  1.00  0.00     0.202 A 
HETATM   11  C9  UNL     1      27.258   2.314  51.658  1.00  0.00     0.014 A 
HETATM   12  C10 UNL     1      26.003   2.426  51.202  1.00  0.00     0.033 A 
HETATM   13  C11 UNL     1      24.743   1.880  51.683  1.00  0.00     0.089 A 
HETATM   14  N1  UNL     1      24.005   2.409  50.789  1.00  0.00    -0.172 NA
HETATM   15  N2  UNL     1      22.654   2.246  50.762  1.00  0.00    -0.277 N 
HETATM   16  C20 UNL     1      21.453   1.746  50.204  1.00  0.00     0.112 C 
HETATM   17  C21 UNL     1      20.720   0.769  50.667  1.00  0.00     0.019 C 
HETATM   18  C22 UNL     1      20.805  -0.122  51.793  1.00  0.00     0.002 C 
HETATM   19  C23 UNL     1      21.500  -0.504  52.817  1.00  0.00     0.007 C 
ENDROOT
BRANCH  15  20
HETATM   20  C12 UNL     1      22.052   2.968  51.868  1.00  0.00     0.184 C 
BRANCH  20  21
HETATM   21  C13 UNL     1      22.246   4.453  51.636  1.00  0.00    -0.055 C 
HETATM   22  C14 UNL     1      21.201   5.009  51.052  1.00  0.00     0.006 C 
HETATM   23  C15 UNL     1      21.003   6.401  50.666  1.00  0.00     0.017 C 
HETATM   24  C16 UNL     1      21.942   7.340  50.705  1.00  0.00     0.083 C 
HETATM   25  N3  UNL     1      23.304   7.241  51.108  1.00  0.00    -0.398 N 
HETATM   26  C17 UNL     1      24.117   6.054  51.208  1.00  0.00     0.127 C 
HETATM   27  H17 UNL     1      23.755   8.169  51.362  1.00  0.00     0.158 HD
HETATM   28  C18 UNL     1      23.523   4.992  52.087  1.00  0.00     0.030 C 
HETATM   29  C19 UNL     1      23.459   5.407  53.535  1.00  0.00     0.016 C 
ENDBRANCH  20  21
ENDBRANCH  15  20
TORSDOF 2
ENDMDL
MODEL 2
REMARK VINA RESULT:      -8.9      2.845      5.413
REMARK  2 active torsions:
REMARK  status: ('A' for Active; 'I' for Inactive)
REMARK    1  A    between atoms: N2_15  and  C12_16 
REMARK    2  A    between atoms: C12_16  and  C13_17 
ROOT
HETATM    1  C1  UNL     1      27.979   5.031  48.487  1.00  0.00     0.048 C 
HETATM    2  C2  UNL     1      26.615   5.028  49.181  1.00  0.00    -0.061 C 
HETATM    3  C3  UNL     1      26.371   3.932  49.922  1.00  0.00     0.023 C 
HETATM    4  C4  UNL     1      25.330   3.350  50.800  1.00  0.00     0.027 A 
HETATM    5  C5  UNL     1      25.900   2.504  51.675  1.00  0.00     0.091 A 
HETATM    6  O1  UNL     1      27.263   2.245  51.706  1.00  0.00    -0.349 OA
HETATM    7  C6  UNL     1      27.861   1.522  52.795  1.00  0.00     0.201 C 
HETATM    8  C7  UNL     1      27.084   0.248  53.062  1.00  0.00     0.195 C 
HETATM    9  O2  UNL     1      25.772   0.363  52.550  1.00  0.00    -0.373 OA
HETATM   10  C8  UNL     1      25.392   1.661  52.771  1.00  0.00     0.202 A 
HETATM   11  C9  UNL     1      23.930   1.823  52.954  1.00  0.00     0.014 A 
HETATM   12  C10 UNL     1      23.363   2.675  52.088  1.00  0.00     0.033 A 
HETATM   13  C11 UNL     1      23.919   3.470  51.005  1.00  0.00     0.089 A 
HETATM   14  N1  UNL     1      22.819   3.995  50.630  1.00  0.00    -0.172 NA
HETATM   15  N2  UNL     1      22.736   4.855  49.579  1.00  0.00    -0.277 N 
HETATM   16  C20 UNL     1      22.520   6.131  49.006  1.00  0.00     0.112 C 
HETATM   17  C21 UNL     1      23.425   6.930  48.506  1.00  0.00     0.019 C 
HETATM   18  C22 UNL     1      24.854   6.879  48.353  1.00  0.00     0.002 C 
HETATM   19  C23 UNL     1      25.942   6.215  48.584  1.00  0.00     0.007 C 
ENDROOT
BRANCH  15  20
HETATM   20  C12 UNL     1      22.963   4.135  48.340  1.00  0.00     0.184 C 
BRANCH  20  21
HETATM   21  C13 UNL     1      21.628   3.651  47.812  1.00  0.00    -0.055 C 
HETATM   22  C14 UNL     1      21.383   4.090  46.591  1.00  0.00     0.006 C 
HETATM   23  C15 UNL     1      20.217   3.848  45.749  1.00  0.00     0.017 C 
HETATM   24  C16 UNL     1      19.104   3.245  46.151  1.00  0.00     0.083 C 
HETATM   25  N3  UNL     1      18.774   2.711  47.429  1.00  0.00    -0.398 N 
HETATM   26  C17 UNL     1      19.380   3.016  48.702  1.00  0.00     0.127 C 
HETATM   27  H17 UNL     1      17.982   2.004  47.418  1.00  0.00     0.158 HD
HETATM   28  C18 UNL     1      20.866   2.807  48.725  1.00  0.00     0.030 C 
HETATM   29  C19 UNL     1      21.251   1.356  48.574  1.00  0.00     0.016 C 
ENDBRANCH  20  21
ENDBRANCH  15  20
TORSDOF 2
ENDMDL
MODEL 3
REMARK VINA RESULT:      -8.7      1.672      2.363
REMARK  2 active torsions:
REMARK  status: ('A' for Active; 'I' for Inactive)
REMARK    1  A    between atoms: N2_15  and  C12_16 
REMARK    2  A    between atoms: C12_16  and  C13_17 
ROOT
HETATM    1  C1  UNL     1      20.530   0.013  51.970  1.00  0.00     0.048 C 
HETATM    2  C2  UNL     1      21.623   0.725  51.169  1.00  0.00    -0.061 C 
HETATM    3  C3  UNL     1      22.740   0.991  51.869  1.00  0.00     0.023 C 
HETATM    4  C4  UNL     1      24.081   1.597  51.701  1.00  0.00     0.027 A 
HETATM    5  C5  UNL     1      24.930   1.068  52.600  1.00  0.00     0.091 A 
HETATM    6  O1  UNL     1      24.556   0.108  53.528  1.00  0.00    -0.349 OA
HETATM    7  C6  UNL     1      25.534  -0.597  54.310  1.00  0.00     0.201 C 
HETATM    8  C7  UNL     1      26.500   0.385  54.942  1.00  0.00     0.195 C 
HETATM    9  O2  UNL     1      26.494   1.603  54.223  1.00  0.00    -0.373 OA
HETATM   10  C8  UNL     1      26.358   1.262  52.903  1.00  0.00     0.202 A 
HETATM   11  C9  UNL     1      26.988   2.233  51.977  1.00  0.00     0.014 A 
HETATM   12  C10 UNL     1      26.145   2.752  51.074  1.00  0.00     0.033 A 
HETATM   13  C11 UNL     1      24.726   2.535  50.835  1.00  0.00     0.089 A 
HETATM   14  N1  UNL     1      24.615   3.355  49.865  1.00  0.00    -0.172 NA
HETATM   15  N2  UNL     1      23.433   3.589  49.232  1.00  0.00    -0.277 N 
HETATM   16  C20 UNL     1      22.563   3.522  48.119  1.00  0.00     0.112 C 
HETATM   17  C21 UNL     1      21.520   2.748  47.984  1.00  0.00     0.019 C 
HETATM   18  C22 UNL     1      20.888   1.742  48.794  1.00  0.00     0.002 C 
HETATM   19  C23 UNL     1      20.929   1.058  49.894  1.00  0.00     0.007 C 
ENDROOT
BRANCH  15  20
HETATM   20  C12 UNL     1      22.541   4.316  50.117  1.00  0.00     0.184 C 
BRANCH  20  21
HETATM   21  C13 UNL     1      22.664   5.796  49.817  1.00  0.00    -0.055 C 
HETATM   22  C14 UNL     1      21.487   6.384  49.711  1.00  0.00     0.006 C 
HETATM   23  C15 UNL     1      21.187   7.783  49.431  1.00  0.00     0.017 C 
HETATM   24  C16 UNL     1      22.085   8.695  49.074  1.00  0.00     0.083 C 
HETATM   25  N3  UNL     1      23.489   8.556  48.882  1.00  0.00    -0.398 N 
HETATM   26  C17 UNL     1      24.237   7.346  48.647  1.00  0.00     0.127 C 
HETATM   27  H17 UNL     1      24.030   9.469  48.922  1.00  0.00     0.158 HD
HETATM   28  C18 UNL     1      24.028   6.296  49.700  1.00  0.00     0.030 C 
HETATM   29  C19 UNL     1      24.576   6.705  51.044  1.00  0.00     0.016 C 
ENDBRANCH  20  21
ENDBRANCH  15  20
TORSDOF 2
ENDMDL
MODEL 4
REMARK VINA RESULT:      -8.6      2.731      6.092
REMARK  2 active torsions:
REMARK  status: ('A' for Active; 'I' for Inactive)
REMARK    1  A    between atoms: N2_15  and  C12_16 
REMARK    2  A    between atoms: C12_16  and  C13_17 
ROOT
HETATM    1  C1  UNL     1      22.303   2.680  46.692  1.00  0.00     0.048 C 
HETATM    2  C2  UNL     1      22.155   2.848  48.206  1.00  0.00    -0.061 C 
HETATM    3  C3  UNL     1      22.953   3.789  48.741  1.00  0.00     0.023 C 
HETATM    4  C4  UNL     1      23.270   4.419  50.043  1.00  0.00     0.027 A 
HETATM    5  C5  UNL     1      23.739   5.662  49.840  1.00  0.00     0.091 A 
HETATM    6  O1  UNL     1      23.892   6.222  48.581  1.00  0.00    -0.349 OA
HETATM    7  C6  UNL     1      24.173   7.622  48.414  1.00  0.00     0.201 C 
HETATM    8  C7  UNL     1      25.328   8.030  49.306  1.00  0.00     0.195 C 
HETATM    9  O2  UNL     1      25.469   7.109  50.370  1.00  0.00    -0.373 OA
HETATM   10  C8  UNL     1      24.196   6.746  50.727  1.00  0.00     0.202 A 
HETATM   11  C9  UNL     1      24.070   6.375  52.156  1.00  0.00     0.014 A 
HETATM   12  C10 UNL     1      23.591   5.140  52.359  1.00  0.00     0.033 A 
HETATM   13  C11 UNL     1      23.172   4.098  51.434  1.00  0.00     0.089 A 
HETATM   14  N1  UNL     1      22.869   3.232  52.319  1.00  0.00    -0.172 NA
HETATM   15  N2  UNL     1      22.415   1.988  52.004  1.00  0.00    -0.277 N 
HETATM   16  C20 UNL     1      21.420   0.984  51.947  1.00  0.00     0.112 C 
HETATM   17  C21 UNL     1      20.781   0.571  50.885  1.00  0.00     0.019 C 
HETATM   18  C22 UNL     1      20.795   0.920  49.490  1.00  0.00     0.002 C 
HETATM   19  C23 UNL     1      21.278   1.703  48.578  1.00  0.00     0.007 C 
ENDROOT
BRANCH  15  20
HETATM   20  C12 UNL     1      23.494   1.208  51.425  1.00  0.00     0.184 C 
BRANCH  20  21
HETATM   21  C13 UNL     1      24.525   0.938  52.501  1.00  0.00    -0.055 C 
HETATM   22  C14 UNL     1      24.199  -0.093  53.260  1.00  0.00     0.006 C 
HETATM   23  C15 UNL     1      24.924  -0.661  54.390  1.00  0.00     0.017 C 
HETATM   24  C16 UNL     1      25.997  -0.118  54.954  1.00  0.00     0.083 C 
HETATM   25  N3  UNL     1      26.679   1.088  54.625  1.00  0.00    -0.398 N 
HETATM   26  C17 UNL     1      26.182   2.213  53.871  1.00  0.00     0.127 C 
HETATM   27  H17 UNL     1      27.675   1.143  54.991  1.00  0.00     0.158 HD
HETATM   28  C18 UNL     1      25.668   1.843  52.510  1.00  0.00     0.030 C 
HETATM   29  C19 UNL     1      26.758   1.352  51.591  1.00  0.00     0.016 C 
ENDBRANCH  20  21
ENDBRANCH  15  20
TORSDOF 2
ENDMDL
MODEL 5
REMARK VINA RESULT:      -8.2      2.911      6.531
REMARK  2 active torsions:
REMARK  status: ('A' for Active; 'I' for Inactive)
REMARK    1  A    between atoms: N2_15  and  C12_16 
REMARK    2  A    between atoms: C12_16  and  C13_17 
ROOT
HETATM    1  C1  UNL     1      21.418   1.549  47.997  1.00  0.00     0.048 C 
HETATM    2  C2  UNL     1      21.883   2.045  49.369  1.00  0.00    -0.061 C 
HETATM    3  C3  UNL     1      22.514   3.233  49.345  1.00  0.00     0.023 C 
HETATM    4  C4  UNL     1      23.150   4.212  50.257  1.00  0.00     0.027 A 
HETATM    5  C5  UNL     1      23.097   5.438  49.709  1.00  0.00     0.091 A 
HETATM    6  O1  UNL     1      22.528   5.695  48.470  1.00  0.00    -0.349 OA
HETATM    7  C6  UNL     1      22.283   7.039  48.025  1.00  0.00     0.201 C 
HETATM    8  C7  UNL     1      23.529   7.883  48.208  1.00  0.00     0.195 C 
HETATM    9  O2  UNL     1      24.373   7.297  49.179  1.00  0.00    -0.373 OA
HETATM   10  C8  UNL     1      23.543   6.775  50.136  1.00  0.00     0.202 A 
HETATM   11  C9  UNL     1      24.150   6.744  51.489  1.00  0.00     0.014 A 
HETATM   12  C10 UNL     1      24.192   5.524  52.040  1.00  0.00     0.033 A 
HETATM   13  C11 UNL     1      23.750   4.225  51.556  1.00  0.00     0.089 A 
HETATM   14  N1  UNL     1      24.123   3.556  52.575  1.00  0.00    -0.172 NA
HETATM   15  N2  UNL     1      23.970   2.206  52.663  1.00  0.00    -0.277 N 
HETATM   16  C20 UNL     1      23.391   1.034  53.205  1.00  0.00     0.112 C 
HETATM   17  C21 UNL     1      22.517   0.252  52.630  1.00  0.00     0.019 C 
HETATM   18  C22 UNL     1      21.835   0.247  51.364  1.00  0.00     0.002 C 
HETATM   19  C23 UNL     1      21.629   0.868  50.245  1.00  0.00     0.007 C 
ENDROOT
BRANCH  15  20
HETATM   20  C12 UNL     1      24.879   1.551  51.740  1.00  0.00     0.184 C 
BRANCH  20  21
HETATM   21  C13 UNL     1      25.945   0.832  52.543  1.00  0.00    -0.055 C 
HETATM   22  C14 UNL     1      26.244  -0.348  52.032  1.00  0.00     0.006 C 
HETATM   23  C15 UNL     1      27.210  -1.332  52.509  1.00  0.00     0.017 C 
HETATM   24  C16 UNL     1      27.859  -1.258  53.665  1.00  0.00     0.083 C 
HETATM   25  N3  UNL     1      27.788  -0.263  54.681  1.00  0.00    -0.398 N 
HETATM   26  C17 UNL     1      26.741   0.701  54.908  1.00  0.00     0.127 C 
HETATM   27  H17 UNL     1      28.621  -0.249  55.340  1.00  0.00     0.158 HD
HETATM   28  C18 UNL     1      26.438   1.553  53.709  1.00  0.00     0.030 C 
HETATM   29  C19 UNL     1      27.581   2.465  53.343  1.00  0.00     0.016 C 
ENDBRANCH  20  21
ENDBRANCH  15  20
TORSDOF 2
ENDMDL
MODEL 6
REMARK VINA RESULT:      -8.1      1.249      1.988
REMARK  2 active torsions:
REMARK  status: ('A' for Active; 'I' for Inactive)
REMARK    1  A    between atoms: N2_15  and  C12_16 
REMARK    2  A    between atoms: C12_16  and  C13_17 
ROOT
HETATM    1  C1  UNL     1      21.535  -0.039  54.233  1.00  0.00     0.048 C 
HETATM    2  C2  UNL     1      21.964   0.521  52.874  1.00  0.00    -0.061 C 
HETATM    3  C3  UNL     1      23.209   1.031  52.853  1.00  0.00     0.023 C 
HETATM    4  C4  UNL     1      24.172   1.666  51.923  1.00  0.00     0.027 A 
HETATM    5  C5  UNL     1      25.426   1.441  52.351  1.00  0.00     0.091 A 
HETATM    6  O1  UNL     1      25.721   0.722  53.499  1.00  0.00    -0.349 OA
HETATM    7  C6  UNL     1      27.065   0.306  53.796  1.00  0.00     0.201 C 
HETATM    8  C7  UNL     1      28.014   1.479  53.660  1.00  0.00     0.195 C 
HETATM    9  O2  UNL     1      27.443   2.473  52.833  1.00  0.00    -0.373 OA
HETATM   10  C8  UNL     1      26.763   1.802  51.850  1.00  0.00     0.202 A 
HETATM   11  C9  UNL     1      26.687   2.549  50.572  1.00  0.00     0.014 A 
HETATM   12  C10 UNL     1      25.437   2.765  50.140  1.00  0.00     0.033 A 
HETATM   13  C11 UNL     1      24.142   2.397  50.694  1.00  0.00     0.089 A 
HETATM   14  N1  UNL     1      23.435   2.937  49.780  1.00  0.00    -0.172 NA
HETATM   15  N2  UNL     1      22.075   2.922  49.799  1.00  0.00    -0.277 N 
HETATM   16  C20 UNL     1      20.810   2.517  49.311  1.00  0.00     0.112 C 
HETATM   17  C21 UNL     1      19.991   1.663  49.866  1.00  0.00     0.019 C 
HETATM   18  C22 UNL     1      20.018   0.853  51.054  1.00  0.00     0.002 C 
HETATM   19  C23 UNL     1      20.701   0.473  52.087  1.00  0.00     0.007 C 
ENDROOT
BRANCH  15  20
HETATM   20  C12 UNL     1      21.592   3.785  50.862  1.00  0.00     0.184 C 
BRANCH  20  21
HETATM   21  C13 UNL     1      22.101   5.189  50.610  1.00  0.00    -0.055 C 
HETATM   22  C14 UNL     1      23.187   5.461  51.311  1.00  0.00     0.006 C 
HETATM   23  C15 UNL     1      23.968   6.692  51.346  1.00  0.00     0.017 C 
HETATM   24  C16 UNL     1      23.610   7.834  50.769  1.00  0.00     0.083 C 
HETATM   25  N3  UNL     1      22.443   8.139  50.012  1.00  0.00    -0.398 N 
HETATM   26  C17 UNL     1      21.186   7.433  49.996  1.00  0.00     0.127 C 
HETATM   27  H17 UNL     1      22.534   8.996  49.391  1.00  0.00     0.158 HD
HETATM   28  C18 UNL     1      21.320   5.975  49.663  1.00  0.00     0.030 C 
HETATM   29  C19 UNL     1      21.787   5.744  48.248  1.00  0.00     0.016 C 
ENDBRANCH  20  21
ENDBRANCH  15  20
TORSDOF 2
ENDMDL
MODEL 7
REMARK VINA RESULT:      -7.8      6.260      8.287
REMARK  2 active torsions:
REMARK  status: ('A' for Active; 'I' for Inactive)
REMARK    1  A    between atoms: N2_15  and  C12_16 
REMARK    2  A    between atoms: C12_16  and  C13_17 
ROOT
HETATM    1  C1  UNL     1      16.694  -4.631  54.149  1.00  0.00     0.048 C 
HETATM    2  C2  UNL     1      16.680  -3.420  53.212  1.00  0.00    -0.061 C 
HETATM    3  C3  UNL     1      17.601  -2.484  53.502  1.00  0.00     0.023 C 
HETATM    4  C4  UNL     1      18.097  -1.175  53.018  1.00  0.00     0.027 A 
HETATM    5  C5  UNL     1      19.381  -1.016  53.384  1.00  0.00     0.091 A 
HETATM    6  O1  UNL     1      20.088  -1.963  54.110  1.00  0.00    -0.349 OA
HETATM    7  C6  UNL     1      21.512  -1.864  54.280  1.00  0.00     0.201 C 
HETATM    8  C7  UNL     1      21.885  -0.470  54.744  1.00  0.00     0.195 C 
HETATM    9  O2  UNL     1      20.859   0.444  54.408  1.00  0.00    -0.373 OA
HETATM   10  C8  UNL     1      20.383   0.045  53.186  1.00  0.00     0.202 A 
HETATM   11  C9  UNL     1      19.846   1.161  52.371  1.00  0.00     0.014 A 
HETATM   12  C10 UNL     1      18.570   0.998  51.998  1.00  0.00     0.033 A 
HETATM   13  C11 UNL     1      17.616  -0.073  52.243  1.00  0.00     0.089 A 
HETATM   14  N1  UNL     1      16.639   0.457  51.619  1.00  0.00    -0.172 NA
HETATM   15  N2  UNL     1      15.414  -0.130  51.538  1.00  0.00    -0.277 N 
HETATM   16  C20 UNL     1      14.365  -0.772  50.838  1.00  0.00     0.112 C 
HETATM   17  C21 UNL     1      14.038  -2.035  50.900  1.00  0.00     0.019 C 
HETATM   18  C22 UNL     1      14.543  -3.183  51.604  1.00  0.00     0.002 C 
HETATM   19  C23 UNL     1      15.451  -3.647  52.403  1.00  0.00     0.007 C 
ENDROOT
BRANCH  15  20
HETATM   20  C12 UNL     1      14.769  -0.096  52.839  1.00  0.00     0.184 C 
BRANCH  20  21
HETATM   21  C13 UNL     1      14.005   1.206  52.964  1.00  0.00    -0.055 C 
HETATM   22  C14 UNL     1      14.743   2.253  52.644  1.00  0.00     0.006 C 
HETATM   23  C15 UNL     1      14.375   3.664  52.637  1.00  0.00     0.017 C 
HETATM   24  C16 UNL     1      13.236   4.152  53.115  1.00  0.00     0.083 C 
HETATM   25  N3  UNL     1      12.144   3.471  53.724  1.00  0.00    -0.398 N 
HETATM   26  C17 UNL     1      12.138   2.161  54.325  1.00  0.00     0.127 C 
HETATM   27  H17 UNL     1      11.232   4.016  53.723  1.00  0.00     0.158 HD
HETATM   28  C18 UNL     1      12.622   1.077  53.406  1.00  0.00     0.030 C 
HETATM   29  C19 UNL     1      11.695   0.850  52.238  1.00  0.00     0.016 C 
ENDBRANCH  20  21
ENDBRANCH  15  20
TORSDOF 2
ENDMDL
MODEL 8
REMARK VINA RESULT:      -7.8      2.900      5.297
REMARK  2 active torsions:
REMARK  status: ('A' for Active; 'I' for Inactive)
REMARK    1  A    between atoms: N2_15  and  C12_16 
REMARK    2  A    between atoms: C12_16  and  C13_17 
ROOT
HETATM    1  C1  UNL     1      26.660   1.217  51.421  1.00  0.00     0.048 C 
HETATM    2  C2  UNL     1      25.374   2.045  51.487  1.00  0.00    -0.061 C 
HETATM    3  C3  UNL     1      24.297   1.365  51.919  1.00  0.00     0.023 C 
HETATM    4  C4  UNL     1      22.858   1.561  52.212  1.00  0.00     0.027 A 
HETATM    5  C5  UNL     1      22.459   0.665  53.132  1.00  0.00     0.091 A 
HETATM    6  O1  UNL     1      23.305  -0.283  53.687  1.00  0.00    -0.349 OA
HETATM    7  C6  UNL     1      22.906  -1.064  54.826  1.00  0.00     0.201 C 
HETATM    8  C7  UNL     1      21.535  -1.666  54.590  1.00  0.00     0.195 C 
HETATM    9  O2  UNL     1      20.844  -0.927  53.602  1.00  0.00    -0.373 OA
HETATM   10  C8  UNL     1      21.181   0.386  53.807  1.00  0.00     0.202 A 
HETATM   11  C9  UNL     1      20.122   1.337  53.392  1.00  0.00     0.014 A 
HETATM   12  C10 UNL     1      20.523   2.236  52.483  1.00  0.00     0.033 A 
HETATM   13  C11 UNL     1      21.805   2.452  51.832  1.00  0.00     0.089 A 
HETATM   14  N1  UNL     1      21.437   3.434  51.108  1.00  0.00    -0.172 NA
HETATM   15  N2  UNL     1      22.273   4.055  50.231  1.00  0.00    -0.277 N 
HETATM   16  C20 UNL     1      23.042   5.155  49.783  1.00  0.00     0.112 C 
HETATM   17  C21 UNL     1      24.344   5.262  49.803  1.00  0.00     0.019 C 
HETATM   18  C22 UNL     1      25.427   4.426  50.245  1.00  0.00     0.002 C 
HETATM   19  C23 UNL     1      25.769   3.316  50.819  1.00  0.00     0.007 C 
ENDROOT
BRANCH  15  20
HETATM   20  C12 UNL     1      22.554   3.170  49.115  1.00  0.00     0.184 C 
BRANCH  20  21
HETATM   21  C13 UNL     1      21.608   3.509  47.981  1.00  0.00    -0.055 C 
HETATM   22  C14 UNL     1      22.222   3.544  46.812  1.00  0.00     0.006 C 
HETATM   23  C15 UNL     1      21.664   3.832  45.495  1.00  0.00     0.017 C 
HETATM   24  C16 UNL     1      20.430   4.270  45.274  1.00  0.00     0.083 C 
HETATM   25  N3  UNL     1      19.391   4.558  46.204  1.00  0.00    -0.398 N 
HETATM   26  C17 UNL     1      19.512   4.821  47.617  1.00  0.00     0.127 C 
HETATM   27  H17 UNL     1      18.416   4.576  45.782  1.00  0.00     0.158 HD
HETATM   28  C18 UNL     1      20.222   3.734  48.371  1.00  0.00     0.030 C 
HETATM   29  C19 UNL     1      19.447   2.441  48.394  1.00  0.00     0.016 C 
ENDBRANCH  20  21
ENDBRANCH  15  20
TORSDOF 2
ENDMDL
MODEL 9
REMARK VINA RESULT:      -7.7      2.170      3.766
REMARK  2 active torsions:
REMARK  status: ('A' for Active; 'I' for Inactive)
REMARK    1  A    between atoms: N2_15  and  C12_16 
REMARK    2  A    between atoms: C12_16  and  C13_17 
ROOT
HETATM    1  C1  UNL     1      17.944   0.798  50.759  1.00  0.00     0.048 C 
HETATM    2  C2  UNL     1      19.404   1.077  50.391  1.00  0.00    -0.061 C 
HETATM    3  C3  UNL     1      20.281   0.837  51.382  1.00  0.00     0.023 C 
HETATM    4  C4  UNL     1      21.736   0.880  51.661  1.00  0.00     0.027 A 
HETATM    5  C5  UNL     1      22.033   0.003  52.635  1.00  0.00     0.091 A 
HETATM    6  O1  UNL     1      21.085  -0.794  53.258  1.00  0.00    -0.349 OA
HETATM    7  C6  UNL     1      21.469  -1.876  54.122  1.00  0.00     0.201 C 
HETATM    8  C7  UNL     1      22.488  -1.395  55.136  1.00  0.00     0.195 C 
HETATM    9  O2  UNL     1      23.129  -0.227  54.663  1.00  0.00    -0.373 OA
HETATM   10  C8  UNL     1      23.279  -0.398  53.312  1.00  0.00     0.202 A 
HETATM   11  C9  UNL     1      24.457   0.309  52.756  1.00  0.00     0.014 A 
HETATM   12  C10 UNL     1      24.161   1.176  51.777  1.00  0.00     0.033 A 
HETATM   13  C11 UNL     1      22.898   1.548  51.159  1.00  0.00     0.089 A 
HETATM   14  N1  UNL     1      23.379   2.408  50.352  1.00  0.00    -0.172 NA
HETATM   15  N2  UNL     1      22.602   3.127  49.496  1.00  0.00    -0.277 N 
HETATM   16  C20 UNL     1      22.136   3.481  48.208  1.00  0.00     0.112 C 
HETATM   17  C21 UNL     1      20.975   3.187  47.685  1.00  0.00     0.019 C 
HETATM   18  C22 UNL     1      19.817   2.457  48.125  1.00  0.00     0.002 C 
HETATM   19  C23 UNL     1      19.285   1.739  49.063  1.00  0.00     0.007 C 
ENDROOT
BRANCH  15  20
HETATM   20  C12 UNL     1      21.807   4.084  50.246  1.00  0.00     0.184 C 
BRANCH  20  21
HETATM   21  C13 UNL     1      22.667   5.296  50.543  1.00  0.00    -0.055 C 
HETATM   22  C14 UNL     1      22.122   6.416  50.103  1.00  0.00     0.006 C 
HETATM   23  C15 UNL     1      22.633   7.778  50.194  1.00  0.00     0.017 C 
HETATM   24  C16 UNL     1      23.849   8.106  50.617  1.00  0.00     0.083 C 
HETATM   25  N3  UNL     1      24.908   7.265  51.065  1.00  0.00    -0.398 N 
HETATM   26  C17 UNL     1      25.087   5.856  50.821  1.00  0.00     0.127 C 
HETATM   27  H17 UNL     1      25.644   7.761  51.649  1.00  0.00     0.158 HD
HETATM   28  C18 UNL     1      23.914   5.019  51.244  1.00  0.00     0.030 C 
HETATM   29  C19 UNL     1      23.711   5.019  52.738  1.00  0.00     0.016 C 
ENDBRANCH  20  21
ENDBRANCH  15  20
TORSDOF 2
ENDMDL
