MODEL 1
REMARK VINA RESULT:      -8.8      0.000      0.000
REMARK  5 active torsions:
REMARK  status: ('A' for Active; 'I' for Inactive)
REMARK    1  A    between atoms: C2_2  and  C3_3 
REMARK    2  A    between atoms: C3_3  and  N1_4 
REMARK    3  A    between atoms: C3_3  and  C16_21 
REMARK    4  A    between atoms: N1_4  and  C4_5 
REMARK    5  A    between atoms: C11_15  and  O1_16 
ROOT
HETATM    1  C4  UNL     1      27.071   1.648  51.777  1.00  0.00     0.105 C 
HETATM    2  N2  UNL     1      27.536   2.316  52.823  1.00  0.00    -0.229 NA
HETATM    3  C5  UNL     1      27.862   1.593  54.031  1.00  0.00     0.230 C 
HETATM    4  N3  UNL     1      26.700   1.165  54.193  1.00  0.00    -0.263 NA
HETATM    5  C6  UNL     1      26.053   0.348  55.137  1.00  0.00     0.272 C 
HETATM    6  N4  UNL     1      25.710  -0.940  54.519  1.00  0.00    -0.371 N 
HETATM    7  C7  UNL     1      24.916  -0.476  53.407  1.00  0.00     0.036 C 
HETATM    8  C8  UNL     1      23.488  -0.551  53.550  1.00  0.00    -0.010 A 
HETATM    9  C9  UNL     1      22.558  -0.163  52.615  1.00  0.00     0.016 A 
HETATM   10  C10 UNL     1      21.190  -0.244  52.772  1.00  0.00     0.037 A 
HETATM   11  C11 UNL     1      20.674  -0.739  53.925  1.00  0.00     0.065 A 
HETATM   12  C12 UNL     1      21.556  -1.145  54.903  1.00  0.00     0.037 A 
HETATM   13  C13 UNL     1      22.900  -1.049  54.707  1.00  0.00     0.016 A 
HETATM   14  C14 UNL     1      25.451   0.002  52.296  1.00  0.00     0.011 C 
HETATM   15  C15 UNL     1      26.878   0.167  51.940  1.00  0.00     0.107 C 
HETATM   16  H11 UNL     1      25.637  -1.959  54.321  1.00  0.00     0.161 HD
ENDROOT
BRANCH   1  17
HETATM   17  N1  UNL     1      26.784   2.437  50.653  1.00  0.00    -0.369 N 
HETATM   18  H7  UNL     1      27.321   2.100  49.790  1.00  0.00     0.161 HD
BRANCH  17  19
HETATM   19  C3  UNL     1      25.920   3.560  50.589  1.00  0.00     0.115 C 
BRANCH  19  20
HETATM   20  C2  UNL     1      26.295   4.410  49.395  1.00  0.00     0.025 C 
HETATM   21  C1  UNL     1      25.808   5.836  49.540  1.00  0.00     0.007 C 
ENDBRANCH  19  20
BRANCH  19  22
HETATM   22  C16 UNL     1      24.500   3.363  50.801  1.00  0.00    -0.036 A 
HETATM   23  C17 UNL     1      23.608   2.857  49.880  1.00  0.00     0.009 A 
HETATM   24  C18 UNL     1      22.256   2.691  50.088  1.00  0.00     0.001 A 
HETATM   25  C19 UNL     1      21.726   3.048  51.293  1.00  0.00     0.000 A 
HETATM   26  C20 UNL     1      22.559   3.562  52.266  1.00  0.00     0.001 A 
HETATM   27  C21 UNL     1      23.905   3.706  52.004  1.00  0.00     0.009 A 
ENDBRANCH  19  22
ENDBRANCH  17  19
ENDBRANCH   1  17
BRANCH  11  28
HETATM   28  O1  UNL     1      19.317  -0.843  54.137  1.00  0.00    -0.361 OA
HETATM   29  H14 UNL     1      18.735  -1.209  53.407  1.00  0.00     0.217 HD
ENDBRANCH  11  28
TORSDOF 5
ENDMDL
MODEL 2
REMARK VINA RESULT:      -8.6      3.375      7.022
REMARK  5 active torsions:
REMARK  status: ('A' for Active; 'I' for Inactive)
REMARK    1  A    between atoms: C2_2  and  C3_3 
REMARK    2  A    between atoms: C3_3  and  N1_4 
REMARK    3  A    between atoms: C3_3  and  C16_21 
REMARK    4  A    between atoms: N1_4  and  C4_5 
REMARK    5  A    between atoms: C11_15  and  O1_16 
ROOT
HETATM    1  C4  UNL     1      21.412   1.296  51.763  1.00  0.00     0.105 C 
HETATM    2  N2  UNL     1      20.828   2.184  52.553  1.00  0.00    -0.229 NA
HETATM    3  C5  UNL     1      20.228   3.361  51.966  1.00  0.00     0.230 C 
HETATM    4  N3  UNL     1      21.299   3.768  51.470  1.00  0.00    -0.263 NA
HETATM    5  C6  UNL     1      21.691   4.874  50.695  1.00  0.00     0.272 C 
HETATM    6  N4  UNL     1      22.025   4.427  49.336  1.00  0.00    -0.371 N 
HETATM    7  C7  UNL     1      23.044   3.452  49.640  1.00  0.00     0.036 C 
HETATM    8  C8  UNL     1      24.410   3.864  49.474  1.00  0.00    -0.010 A 
HETATM    9  C9  UNL     1      25.523   3.093  49.708  1.00  0.00     0.016 A 
HETATM   10  C10 UNL     1      26.829   3.507  49.542  1.00  0.00     0.037 A 
HETATM   11  C11 UNL     1      27.083   4.771  49.115  1.00  0.00     0.065 A 
HETATM   12  C12 UNL     1      26.007   5.594  48.863  1.00  0.00     0.037 A 
HETATM   13  C13 UNL     1      24.735   5.144  49.039  1.00  0.00     0.016 A 
HETATM   14  C14 UNL     1      22.762   2.229  50.055  1.00  0.00     0.011 C 
HETATM   15  C15 UNL     1      21.442   1.601  50.291  1.00  0.00     0.107 C 
HETATM   16  H11 UNL     1      22.042   4.322  48.301  1.00  0.00     0.161 HD
ENDROOT
BRANCH   1  17
HETATM   17  N1  UNL     1      21.965   0.190  52.426  1.00  0.00    -0.369 N 
HETATM   18  H7  UNL     1      21.564  -0.730  52.054  1.00  0.00     0.161 HD
BRANCH  17  19
HETATM   19  C3  UNL     1      22.923   0.206  53.471  1.00  0.00     0.115 C 
BRANCH  19  20
HETATM   20  C2  UNL     1      22.700  -0.991  54.370  1.00  0.00     0.025 C 
HETATM   21  C1  UNL     1      21.252  -1.430  54.379  1.00  0.00     0.007 C 
ENDBRANCH  19  20
BRANCH  19  22
HETATM   22  C16 UNL     1      24.305   0.502  53.150  1.00  0.00    -0.036 A 
HETATM   23  C17 UNL     1      25.251  -0.409  52.731  1.00  0.00     0.009 A 
HETATM   24  C18 UNL     1      26.567  -0.117  52.445  1.00  0.00     0.001 A 
HETATM   25  C19 UNL     1      27.001   1.170  52.579  1.00  0.00     0.000 A 
HETATM   26  C20 UNL     1      26.109   2.138  52.994  1.00  0.00     0.001 A 
HETATM   27  C21 UNL     1      24.803   1.790  53.266  1.00  0.00     0.009 A 
ENDBRANCH  19  22
ENDBRANCH  17  19
ENDBRANCH   1  17
BRANCH  11  28
HETATM   28  O1  UNL     1      28.365   5.239  48.931  1.00  0.00    -0.361 OA
HETATM   29  H14 UNL     1      28.917   5.479  49.734  1.00  0.00     0.217 HD
ENDBRANCH  11  28
TORSDOF 5
ENDMDL
MODEL 3
REMARK VINA RESULT:      -8.5      3.531      7.654
REMARK  5 active torsions:
REMARK  status: ('A' for Active; 'I' for Inactive)
REMARK    1  A    between atoms: C2_2  and  C3_3 
REMARK    2  A    between atoms: C3_3  and  N1_4 
REMARK    3  A    between atoms: C3_3  and  C16_21 
REMARK    4  A    between atoms: N1_4  and  C4_5 
REMARK    5  A    between atoms: C11_15  and  O1_16 
ROOT
HETATM    1  C4  UNL     1      23.963   2.238  51.614  1.00  0.00     0.105 C 
HETATM    2  N2  UNL     1      23.516   3.006  52.597  1.00  0.00    -0.229 NA
HETATM    3  C5  UNL     1      22.707   4.159  52.276  1.00  0.00     0.230 C 
HETATM    4  N3  UNL     1      23.595   4.702  51.587  1.00  0.00    -0.263 NA
HETATM    5  C6  UNL     1      23.707   5.894  50.850  1.00  0.00     0.272 C 
HETATM    6  N4  UNL     1      23.741   5.582  49.414  1.00  0.00    -0.371 N 
HETATM    7  C7  UNL     1      24.874   4.689  49.383  1.00  0.00     0.036 C 
HETATM    8  C8  UNL     1      26.127   5.241  48.946  1.00  0.00    -0.010 A 
HETATM    9  C9  UNL     1      27.319   4.566  48.845  1.00  0.00     0.016 A 
HETATM   10  C10 UNL     1      28.512   5.114  48.422  1.00  0.00     0.037 A 
HETATM   11  C11 UNL     1      28.560   6.424  48.067  1.00  0.00     0.065 A 
HETATM   12  C12 UNL     1      27.396   7.156  48.147  1.00  0.00     0.037 A 
HETATM   13  C13 UNL     1      26.240   6.574  48.570  1.00  0.00     0.016 A 
HETATM   14  C14 UNL     1      24.793   3.417  49.736  1.00  0.00     0.011 C 
HETATM   15  C15 UNL     1      23.619   2.650  50.210  1.00  0.00     0.107 C 
HETATM   16  H11 UNL     1      23.520   5.554  48.398  1.00  0.00     0.161 HD
ENDROOT
BRANCH   1  17
HETATM   17  N1  UNL     1      24.740   1.145  52.026  1.00  0.00    -0.369 N 
HETATM   18  H7  UNL     1      24.985   0.507  51.202  1.00  0.00     0.161 HD
BRANCH  17  19
HETATM   19  C3  UNL     1      25.173   0.845  53.342  1.00  0.00     0.115 C 
BRANCH  19  20
HETATM   20  C2  UNL     1      24.598  -0.489  53.765  1.00  0.00     0.025 C 
HETATM   21  C1  UNL     1      23.085  -0.469  53.798  1.00  0.00     0.007 C 
ENDBRANCH  19  20
BRANCH  19  22
HETATM   22  C16 UNL     1      26.561   1.071  53.691  1.00  0.00    -0.036 A 
HETATM   23  C17 UNL     1      27.331   2.144  53.292  1.00  0.00     0.009 A 
HETATM   24  C18 UNL     1      28.656   2.337  53.616  1.00  0.00     0.001 A 
HETATM   25  C19 UNL     1      29.287   1.410  54.393  1.00  0.00     0.000 A 
HETATM   26  C20 UNL     1      28.580   0.309  54.831  1.00  0.00     0.001 A 
HETATM   27  C21 UNL     1      27.255   0.165  54.477  1.00  0.00     0.009 A 
ENDBRANCH  19  22
ENDBRANCH  17  19
ENDBRANCH   1  17
BRANCH  11  28
HETATM   28  O1  UNL     1      29.723   7.025  47.638  1.00  0.00    -0.361 OA
HETATM   29  H14 UNL     1      29.686   7.665  46.867  1.00  0.00     0.217 HD
ENDBRANCH  11  28
TORSDOF 5
ENDMDL
MODEL 4
REMARK VINA RESULT:      -8.2      3.537      7.428
REMARK  5 active torsions:
REMARK  status: ('A' for Active; 'I' for Inactive)
REMARK    1  A    between atoms: C2_2  and  C3_3 
REMARK    2  A    between atoms: C3_3  and  N1_4 
REMARK    3  A    between atoms: C3_3  and  C16_21 
REMARK    4  A    between atoms: N1_4  and  C4_5 
REMARK    5  A    between atoms: C11_15  and  O1_16 
ROOT
HETATM    1  C4  UNL     1      24.412   2.679  52.107  1.00  0.00     0.105 C 
HETATM    2  N2  UNL     1      23.943   3.553  52.985  1.00  0.00    -0.229 NA
HETATM    3  C5  UNL     1      23.038   4.586  52.535  1.00  0.00     0.230 C 
HETATM    4  N3  UNL     1      23.859   5.080  51.735  1.00  0.00    -0.263 NA
HETATM    5  C6  UNL     1      23.855   6.152  50.825  1.00  0.00     0.272 C 
HETATM    6  N4  UNL     1      23.864   5.632  49.452  1.00  0.00    -0.371 N 
HETATM    7  C7  UNL     1      25.059   4.826  49.502  1.00  0.00     0.036 C 
HETATM    8  C8  UNL     1      26.251   5.392  48.932  1.00  0.00    -0.010 A 
HETATM    9  C9  UNL     1      27.486   4.793  48.877  1.00  0.00     0.016 A 
HETATM   10  C10 UNL     1      28.619   5.354  48.325  1.00  0.00     0.037 A 
HETATM   11  C11 UNL     1      28.557   6.596  47.780  1.00  0.00     0.065 A 
HETATM   12  C12 UNL     1      27.344   7.249  47.804  1.00  0.00     0.037 A 
HETATM   13  C13 UNL     1      26.250   6.658  48.359  1.00  0.00     0.016 A 
HETATM   14  C14 UNL     1      25.086   3.618  50.041  1.00  0.00     0.011 C 
HETATM   15  C15 UNL     1      23.991   2.852  50.675  1.00  0.00     0.107 C 
HETATM   16  H11 UNL     1      23.610   5.436  48.461  1.00  0.00     0.161 HD
ENDROOT
BRANCH   1  17
HETATM   17  N1  UNL     1      25.284   1.717  52.640  1.00  0.00    -0.369 N 
HETATM   18  H7  UNL     1      26.187   2.164  53.001  1.00  0.00     0.161 HD
BRANCH  17  19
HETATM   19  C3  UNL     1      25.075   0.316  52.715  1.00  0.00     0.115 C 
BRANCH  19  20
HETATM   20  C2  UNL     1      26.346  -0.352  53.191  1.00  0.00     0.025 C 
HETATM   21  C1  UNL     1      26.716  -1.542  52.333  1.00  0.00     0.007 C 
ENDBRANCH  19  20
BRANCH  19  22
HETATM   22  C16 UNL     1      23.846  -0.178  53.302  1.00  0.00    -0.036 A 
HETATM   23  C17 UNL     1      22.591  -0.098  52.736  1.00  0.00     0.009 A 
HETATM   24  C18 UNL     1      21.426  -0.556  53.313  1.00  0.00     0.001 A 
HETATM   25  C19 UNL     1      21.486  -1.141  54.545  1.00  0.00     0.000 A 
HETATM   26  C20 UNL     1      22.709  -1.257  55.172  1.00  0.00     0.001 A 
HETATM   27  C21 UNL     1      23.844  -0.781  54.549  1.00  0.00     0.009 A 
ENDBRANCH  19  22
ENDBRANCH  17  19
ENDBRANCH   1  17
BRANCH  11  28
HETATM   28  O1  UNL     1      29.655   7.205  47.215  1.00  0.00    -0.361 OA
HETATM   29  H14 UNL     1      30.406   7.505  47.808  1.00  0.00     0.217 HD
ENDBRANCH  11  28
TORSDOF 5
ENDMDL
MODEL 5
REMARK VINA RESULT:      -8.0      3.005      6.146
REMARK  5 active torsions:
REMARK  status: ('A' for Active; 'I' for Inactive)
REMARK    1  A    between atoms: C2_2  and  C3_3 
REMARK    2  A    between atoms: C3_3  and  N1_4 
REMARK    3  A    between atoms: C3_3  and  C16_21 
REMARK    4  A    between atoms: N1_4  and  C4_5 
REMARK    5  A    between atoms: C11_15  and  O1_16 
ROOT
HETATM    1  C4  UNL     1      21.098   2.554  50.719  1.00  0.00     0.105 C 
HETATM    2  N2  UNL     1      20.671   3.557  51.472  1.00  0.00    -0.229 NA
HETATM    3  C5  UNL     1      21.473   4.756  51.567  1.00  0.00     0.230 C 
HETATM    4  N3  UNL     1      22.462   4.163  52.045  1.00  0.00    -0.263 NA
HETATM    5  C6  UNL     1      23.751   4.537  52.464  1.00  0.00     0.272 C 
HETATM    6  N4  UNL     1      24.747   4.006  51.523  1.00  0.00    -0.371 N 
HETATM    7  C7  UNL     1      24.423   2.602  51.588  1.00  0.00     0.036 C 
HETATM    8  C8  UNL     1      25.263   1.777  52.412  1.00  0.00    -0.010 A 
HETATM    9  C9  UNL     1      25.128   0.424  52.610  1.00  0.00     0.016 A 
HETATM   10  C10 UNL     1      25.945  -0.351  53.405  1.00  0.00     0.037 A 
HETATM   11  C11 UNL     1      26.981   0.226  54.067  1.00  0.00     0.065 A 
HETATM   12  C12 UNL     1      27.170   1.582  53.910  1.00  0.00     0.037 A 
HETATM   13  C13 UNL     1      26.338   2.309  53.114  1.00  0.00     0.016 A 
HETATM   14  C14 UNL     1      23.406   2.070  50.930  1.00  0.00     0.011 C 
HETATM   15  C15 UNL     1      22.426   2.725  50.036  1.00  0.00     0.107 C 
HETATM   16  H11 UNL     1      25.528   3.933  50.839  1.00  0.00     0.161 HD
ENDROOT
BRANCH   1  17
HETATM   17  N1  UNL     1      20.252   1.435  50.691  1.00  0.00    -0.369 N 
HETATM   18  H7  UNL     1      20.057   1.116  49.688  1.00  0.00     0.161 HD
BRANCH  17  19
HETATM   19  C3  UNL     1      19.678   0.764  51.801  1.00  0.00     0.115 C 
BRANCH  19  20
HETATM   20  C2  UNL     1      18.531  -0.099  51.323  1.00  0.00     0.025 C 
HETATM   21  C1  UNL     1      17.813  -0.775  52.472  1.00  0.00     0.007 C 
ENDBRANCH  19  20
BRANCH  19  22
HETATM   22  C16 UNL     1      20.554   0.160  52.784  1.00  0.00    -0.036 A 
HETATM   23  C17 UNL     1      20.588   0.458  54.130  1.00  0.00     0.009 A 
HETATM   24  C18 UNL     1      21.440  -0.112  55.051  1.00  0.00     0.001 A 
HETATM   25  C19 UNL     1      22.335  -1.052  54.628  1.00  0.00     0.000 A 
HETATM   26  C20 UNL     1      22.359  -1.402  53.294  1.00  0.00     0.001 A 
HETATM   27  C21 UNL     1      21.484  -0.800  52.415  1.00  0.00     0.009 A 
ENDBRANCH  19  22
ENDBRANCH  17  19
ENDBRANCH   1  17
BRANCH  11  28
HETATM   28  O1  UNL     1      27.830  -0.497  54.875  1.00  0.00    -0.361 OA
HETATM   29  H14 UNL     1      28.481  -1.133  54.455  1.00  0.00     0.217 HD
ENDBRANCH  11  28
TORSDOF 5
ENDMDL
MODEL 6
REMARK VINA RESULT:      -8.0      2.835      5.371
REMARK  5 active torsions:
REMARK  status: ('A' for Active; 'I' for Inactive)
REMARK    1  A    between atoms: C2_2  and  C3_3 
REMARK    2  A    between atoms: C3_3  and  N1_4 
REMARK    3  A    between atoms: C3_3  and  C16_21 
REMARK    4  A    between atoms: N1_4  and  C4_5 
REMARK    5  A    between atoms: C11_15  and  O1_16 
ROOT
HETATM    1  C4  UNL     1      23.188   2.664  51.291  1.00  0.00     0.105 C 
HETATM    2  N2  UNL     1      22.914   3.267  52.439  1.00  0.00    -0.229 NA
HETATM    3  C5  UNL     1      23.946   4.039  53.092  1.00  0.00     0.230 C 
HETATM    4  N3  UNL     1      24.718   3.065  53.217  1.00  0.00    -0.263 NA
HETATM    5  C6  UNL     1      26.003   2.865  53.752  1.00  0.00     0.272 C 
HETATM    6  N4  UNL     1      26.955   2.608  52.663  1.00  0.00    -0.371 N 
HETATM    7  C7  UNL     1      26.321   1.468  52.046  1.00  0.00     0.036 C 
HETATM    8  C8  UNL     1      26.858   0.173  52.363  1.00  0.00    -0.010 A 
HETATM    9  C9  UNL     1      26.404  -1.032  51.885  1.00  0.00     0.016 A 
HETATM   10  C10 UNL     1      26.934  -2.266  52.201  1.00  0.00     0.037 A 
HETATM   11  C11 UNL     1      27.991  -2.345  53.049  1.00  0.00     0.065 A 
HETATM   12  C12 UNL     1      28.493  -1.169  53.564  1.00  0.00     0.037 A 
HETATM   13  C13 UNL     1      27.939   0.027  53.224  1.00  0.00     0.016 A 
HETATM   14  C14 UNL     1      25.292   1.579  51.223  1.00  0.00     0.011 C 
HETATM   15  C15 UNL     1      24.589   2.798  50.763  1.00  0.00     0.107 C 
HETATM   16  H11 UNL     1      27.771   2.672  52.021  1.00  0.00     0.161 HD
ENDROOT
BRANCH   1  17
HETATM   17  N1  UNL     1      22.123   1.939  50.736  1.00  0.00    -0.369 N 
HETATM   18  H7  UNL     1      22.192   1.898  49.668  1.00  0.00     0.161 HD
BRANCH  17  19
HETATM   19  C3  UNL     1      21.049   1.323  51.428  1.00  0.00     0.115 C 
BRANCH  19  20
HETATM   20  C2  UNL     1      20.066   0.761  50.424  1.00  0.00     0.025 C 
HETATM   21  C1  UNL     1      18.790   0.287  51.086  1.00  0.00     0.007 C 
ENDBRANCH  19  20
BRANCH  19  22
HETATM   22  C16 UNL     1      21.345   0.473  52.564  1.00  0.00    -0.036 A 
HETATM   23  C17 UNL     1      22.161  -0.638  52.552  1.00  0.00     0.009 A 
HETATM   24  C18 UNL     1      22.420  -1.448  53.636  1.00  0.00     0.001 A 
HETATM   25  C19 UNL     1      21.835  -1.154  54.834  1.00  0.00     0.000 A 
HETATM   26  C20 UNL     1      21.005  -0.056  54.922  1.00  0.00     0.001 A 
HETATM   27  C21 UNL     1      20.781   0.722  53.805  1.00  0.00     0.009 A 
ENDBRANCH  19  22
ENDBRANCH  17  19
ENDBRANCH   1  17
BRANCH  11  28
HETATM   28  O1  UNL     1      28.561  -3.548  53.401  1.00  0.00    -0.361 OA
HETATM   29  H14 UNL     1      28.687  -3.763  54.372  1.00  0.00     0.217 HD
ENDBRANCH  11  28
TORSDOF 5
ENDMDL
MODEL 7
REMARK VINA RESULT:      -8.0      3.071      5.340
REMARK  5 active torsions:
REMARK  status: ('A' for Active; 'I' for Inactive)
REMARK    1  A    between atoms: C2_2  and  C3_3 
REMARK    2  A    between atoms: C3_3  and  N1_4 
REMARK    3  A    between atoms: C3_3  and  C16_21 
REMARK    4  A    between atoms: N1_4  and  C4_5 
REMARK    5  A    between atoms: C11_15  and  O1_16 
ROOT
HETATM    1  C4  UNL     1      23.596   4.891  51.727  1.00  0.00     0.105 C 
HETATM    2  N2  UNL     1      22.890   4.504  50.675  1.00  0.00    -0.229 NA
HETATM    3  C5  UNL     1      21.943   3.423  50.824  1.00  0.00     0.230 C 
HETATM    4  N3  UNL     1      22.809   2.593  51.171  1.00  0.00    -0.263 NA
HETATM    5  C6  UNL     1      22.811   1.236  51.536  1.00  0.00     0.272 C 
HETATM    6  N4  UNL     1      23.099   1.114  52.972  1.00  0.00    -0.371 N 
HETATM    7  C7  UNL     1      24.364   1.804  53.029  1.00  0.00     0.036 C 
HETATM    8  C8  UNL     1      25.549   0.992  53.070  1.00  0.00    -0.010 A 
HETATM    9  C9  UNL     1      26.843   1.449  53.126  1.00  0.00     0.016 A 
HETATM   10  C10 UNL     1      27.968   0.652  53.165  1.00  0.00     0.037 A 
HETATM   11  C11 UNL     1      27.835  -0.699  53.147  1.00  0.00     0.065 A 
HETATM   12  C12 UNL     1      26.561  -1.220  53.091  1.00  0.00     0.037 A 
HETATM   13  C13 UNL     1      25.477  -0.396  53.055  1.00  0.00     0.016 A 
HETATM   14  C14 UNL     1      24.459   3.123  53.045  1.00  0.00     0.011 C 
HETATM   15  C15 UNL     1      23.384   4.140  53.011  1.00  0.00     0.107 C 
HETATM   16  H11 UNL     1      23.029   0.875  53.983  1.00  0.00     0.161 HD
ENDROOT
BRANCH   1  17
HETATM   17  N1  UNL     1      24.489   5.946  51.483  1.00  0.00    -0.369 N 
HETATM   18  H7  UNL     1      24.987   6.253  52.379  1.00  0.00     0.161 HD
BRANCH  17  19
HETATM   19  C3  UNL     1      24.744   6.587  50.244  1.00  0.00     0.115 C 
BRANCH  19  20
HETATM   20  C2  UNL     1      24.384   8.052  50.356  1.00  0.00     0.025 C 
HETATM   21  C1  UNL     1      23.177   8.406  49.514  1.00  0.00     0.007 C 
ENDBRANCH  19  20
BRANCH  19  22
HETATM   22  C16 UNL     1      25.979   6.294  49.546  1.00  0.00    -0.036 A 
HETATM   23  C17 UNL     1      26.475   5.037  49.273  1.00  0.00     0.009 A 
HETATM   24  C18 UNL     1      27.661   4.772  48.624  1.00  0.00     0.001 A 
HETATM   25  C19 UNL     1      28.432   5.818  48.204  1.00  0.00     0.000 A 
HETATM   26  C20 UNL     1      27.998   7.106  48.441  1.00  0.00     0.001 A 
HETATM   27  C21 UNL     1      26.802   7.314  49.096  1.00  0.00     0.009 A 
ENDBRANCH  19  22
ENDBRANCH  17  19
ENDBRANCH   1  17
BRANCH  11  28
HETATM   28  O1  UNL     1      28.922  -1.544  53.184  1.00  0.00    -0.361 OA
HETATM   29  H14 UNL     1      29.817  -1.202  52.887  1.00  0.00     0.217 HD
ENDBRANCH  11  28
TORSDOF 5
ENDMDL
MODEL 8
REMARK VINA RESULT:      -7.9      2.633      5.024
REMARK  5 active torsions:
REMARK  status: ('A' for Active; 'I' for Inactive)
REMARK    1  A    between atoms: C2_2  and  C3_3 
REMARK    2  A    between atoms: C3_3  and  N1_4 
REMARK    3  A    between atoms: C3_3  and  C16_21 
REMARK    4  A    between atoms: N1_4  and  C4_5 
REMARK    5  A    between atoms: C11_15  and  O1_16 
ROOT
HETATM    1  C4  UNL     1      23.130   3.478  49.484  1.00  0.00     0.105 C 
HETATM    2  N2  UNL     1      22.201   3.079  48.628  1.00  0.00    -0.229 NA
HETATM    3  C5  UNL     1      20.809   3.180  49.003  1.00  0.00     0.230 C 
HETATM    4  N3  UNL     1      20.929   2.425  49.991  1.00  0.00    -0.263 NA
HETATM    5  C6  UNL     1      20.070   1.932  50.989  1.00  0.00     0.272 C 
HETATM    6  N4  UNL     1      20.411   2.548  52.279  1.00  0.00    -0.371 N 
HETATM    7  C7  UNL     1      21.801   2.172  52.372  1.00  0.00     0.036 C 
HETATM    8  C8  UNL     1      22.117   1.049  53.211  1.00  0.00    -0.010 A 
HETATM    9  C9  UNL     1      23.370   0.533  53.436  1.00  0.00     0.016 A 
HETATM   10  C10 UNL     1      23.653  -0.547  54.247  1.00  0.00     0.037 A 
HETATM   11  C11 UNL     1      22.644  -1.182  54.896  1.00  0.00     0.065 A 
HETATM   12  C12 UNL     1      21.362  -0.711  54.711  1.00  0.00     0.037 A 
HETATM   13  C13 UNL     1      21.128   0.359  53.902  1.00  0.00     0.016 A 
HETATM   14  C14 UNL     1      22.760   2.813  51.726  1.00  0.00     0.011 C 
HETATM   15  C15 UNL     1      22.662   3.980  50.821  1.00  0.00     0.107 C 
HETATM   16  H11 UNL     1      20.351   3.068  53.178  1.00  0.00     0.161 HD
ENDROOT
BRANCH   1  17
HETATM   17  N1  UNL     1      24.450   3.340  49.028  1.00  0.00    -0.369 N 
HETATM   18  H7  UNL     1      24.489   2.817  48.095  1.00  0.00     0.161 HD
BRANCH  17  19
HETATM   19  C3  UNL     1      25.632   3.792  49.668  1.00  0.00     0.115 C 
BRANCH  19  20
HETATM   20  C2  UNL     1      26.468   2.598  50.073  1.00  0.00     0.025 C 
HETATM   21  C1  UNL     1      26.493   2.406  51.574  1.00  0.00     0.007 C 
ENDBRANCH  19  20
BRANCH  19  22
HETATM   22  C16 UNL     1      26.360   4.903  49.089  1.00  0.00    -0.036 A 
HETATM   23  C17 UNL     1      25.840   6.147  48.798  1.00  0.00     0.009 A 
HETATM   24  C18 UNL     1      26.539   7.190  48.230  1.00  0.00     0.001 A 
HETATM   25  C19 UNL     1      27.855   7.009  47.919  1.00  0.00     0.000 A 
HETATM   26  C20 UNL     1      28.445   5.790  48.183  1.00  0.00     0.001 A 
HETATM   27  C21 UNL     1      27.698   4.780  48.753  1.00  0.00     0.009 A 
ENDBRANCH  19  22
ENDBRANCH  17  19
ENDBRANCH   1  17
BRANCH  11  28
HETATM   28  O1  UNL     1      22.867  -2.265  55.717  1.00  0.00    -0.361 OA
HETATM   29  H14 UNL     1      23.675  -2.269  56.310  1.00  0.00     0.217 HD
ENDBRANCH  11  28
TORSDOF 5
ENDMDL
MODEL 9
REMARK VINA RESULT:      -7.6      2.003      5.323
REMARK  5 active torsions:
REMARK  status: ('A' for Active; 'I' for Inactive)
REMARK    1  A    between atoms: C2_2  and  C3_3 
REMARK    2  A    between atoms: C3_3  and  N1_4 
REMARK    3  A    between atoms: C3_3  and  C16_21 
REMARK    4  A    between atoms: N1_4  and  C4_5 
REMARK    5  A    between atoms: C11_15  and  O1_16 
ROOT
HETATM    1  C4  UNL     1      25.089   2.924  52.049  1.00  0.00     0.105 C 
HETATM    2  N2  UNL     1      25.376   2.647  50.786  1.00  0.00    -0.229 NA
HETATM    3  C5  UNL     1      24.490   3.115  49.744  1.00  0.00     0.230 C 
HETATM    4  N3  UNL     1      23.504   2.485  50.178  1.00  0.00    -0.263 NA
HETATM    5  C6  UNL     1      22.159   2.336  49.794  1.00  0.00     0.272 C 
HETATM    6  N4  UNL     1      21.292   3.014  50.767  1.00  0.00    -0.371 N 
HETATM    7  C7  UNL     1      21.703   2.341  51.975  1.00  0.00     0.036 C 
HETATM    8  C8  UNL     1      20.848   1.291  52.458  1.00  0.00    -0.010 A 
HETATM    9  C9  UNL     1      21.056   0.530  53.583  1.00  0.00     0.016 A 
HETATM   10  C10 UNL     1      20.222  -0.474  54.030  1.00  0.00     0.037 A 
HETATM   11  C11 UNL     1      19.094  -0.770  53.336  1.00  0.00     0.065 A 
HETATM   12  C12 UNL     1      18.829  -0.040  52.197  1.00  0.00     0.037 A 
HETATM   13  C13 UNL     1      19.679   0.943  51.791  1.00  0.00     0.016 A 
HETATM   14  C14 UNL     1      22.809   2.653  52.628  1.00  0.00     0.011 C 
HETATM   15  C15 UNL     1      23.822   3.686  52.314  1.00  0.00     0.107 C 
HETATM   16  H11 UNL     1      20.585   3.644  51.198  1.00  0.00     0.161 HD
ENDROOT
BRANCH   1  17
HETATM   17  N1  UNL     1      26.008   2.426  52.986  1.00  0.00    -0.369 N 
HETATM   18  H7  UNL     1      26.674   3.192  53.326  1.00  0.00     0.161 HD
BRANCH  17  19
HETATM   19  C3  UNL     1      26.114   1.094  53.461  1.00  0.00     0.115 C 
BRANCH  19  20
HETATM   20  C2  UNL     1      25.003   0.260  52.862  1.00  0.00     0.025 C 
HETATM   21  C1  UNL     1      24.283  -0.562  53.909  1.00  0.00     0.007 C 
ENDBRANCH  19  20
BRANCH  19  22
HETATM   22  C16 UNL     1      27.420   0.467  53.501  1.00  0.00    -0.036 A 
HETATM   23  C17 UNL     1      28.601   1.082  53.861  1.00  0.00     0.009 A 
HETATM   24  C18 UNL     1      29.840   0.479  53.877  1.00  0.00     0.001 A 
HETATM   25  C19 UNL     1      29.941  -0.832  53.511  1.00  0.00     0.000 A 
HETATM   26  C20 UNL     1      28.800  -1.513  53.139  1.00  0.00     0.001 A 
HETATM   27  C21 UNL     1      27.585  -0.861  53.141  1.00  0.00     0.009 A 
ENDBRANCH  19  22
ENDBRANCH  17  19
ENDBRANCH   1  17
BRANCH  11  28
HETATM   28  O1  UNL     1      18.225  -1.761  53.735  1.00  0.00    -0.361 OA
HETATM   29  H14 UNL     1      17.639  -1.605  54.533  1.00  0.00     0.217 HD
ENDBRANCH  11  28
TORSDOF 5
ENDMDL
