MODEL 1
REMARK VINA RESULT:      -8.0      0.000      0.000
REMARK  8 active torsions:
REMARK  status: ('A' for Active; 'I' for Inactive)
REMARK    1  A    between atoms: C2_2  and  C3_3 
REMARK    2  A    between atoms: C2_2  and  N2_10 
REMARK    3  A    between atoms: C3_3  and  C4_4 
REMARK    4  A    between atoms: C4_4  and  N1_5 
REMARK    5  A    between atoms: N1_5  and  C6_7 
REMARK    6  A    between atoms: N2_10  and  C9_11 
REMARK    7  A    between atoms: C16_20  and  N5_21 
REMARK    8  A    between atoms: N5_21  and  C17_22 
ROOT
HETATM    1  C9  UNL     1      24.446   5.487  50.262  1.00  0.00     0.264 C 
HETATM    2  C10 UNL     1      24.507   7.008  50.548  1.00  0.00     0.080 C 
HETATM    3  C11 UNL     1      23.585   4.994  51.383  1.00  0.00     0.039 C 
HETATM    4  C12 UNL     1      22.508   4.240  51.459  1.00  0.00     0.018 C 
HETATM    5  C13 UNL     1      21.754   3.598  50.404  1.00  0.00     0.040 A 
HETATM    6  C14 UNL     1      21.943   3.860  49.067  1.00  0.00     0.089 A 
HETATM    7  N3  UNL     1      21.172   3.253  48.136  1.00  0.00    -0.240 NA
HETATM    8  C15 UNL     1      20.236   2.394  48.622  1.00  0.00     0.236 A 
HETATM    9  N4  UNL     1      20.077   2.158  49.931  1.00  0.00    -0.224 NA
HETATM   10  C16 UNL     1      20.808   2.730  50.885  1.00  0.00     0.142 A 
HETATM   11  C23 UNL     1      22.921   4.741  48.405  1.00  0.00     0.146 C 
HETATM   12  N6  UNL     1      23.912   5.365  48.966  1.00  0.00    -0.254 NA
ENDROOT
BRANCH   1  13
HETATM   13  N2  UNL     1      25.802   5.042  50.467  1.00  0.00     0.122 N 
HETATM   14  H19 UNL     1      26.436   5.896  50.382  1.00  0.00     0.320 HD
BRANCH  13  15
HETATM   15  C2  UNL     1      26.306   4.144  49.430  1.00  0.00     0.222 C 
HETATM   16  C1  UNL     1      27.519   4.683  48.778  1.00  0.00     0.043 C 
BRANCH  15  17
HETATM   17  C3  UNL     1      26.393   2.790  50.053  1.00  0.00     0.065 C 
BRANCH  17  18
HETATM   18  C4  UNL     1      26.862   2.701  51.446  1.00  0.00     0.274 C 
BRANCH  18  19
HETATM   19  N1  UNL     1      26.239   1.808  52.351  1.00  0.00     0.088 N 
HETATM   20  C5  UNL     1      25.505   2.388  53.417  1.00  0.00     0.310 C 
BRANCH  19  21
HETATM   21  C6  UNL     1      27.137   0.744  52.679  1.00  0.00     0.214 C 
HETATM   22  C7  UNL     1      27.468   0.712  54.172  1.00  0.00     0.042 C 
HETATM   23  C8  UNL     1      26.785  -0.600  52.145  1.00  0.00     0.042 C 
ENDBRANCH  19  21
ENDBRANCH  18  19
ENDBRANCH  17  18
ENDBRANCH  15  17
ENDBRANCH  13  15
ENDBRANCH   1  13
BRANCH  10  24
HETATM   24  N5  UNL     1      20.651   2.430  52.257  1.00  0.00    -0.340 N 
HETATM   25  H26 UNL     1      20.344   3.057  53.022  1.00  0.00     0.167 HD
BRANCH  24  26
HETATM   26  C17 UNL     1      20.907   1.181  52.892  1.00  0.00     0.035 A 
HETATM   27  C18 UNL     1      19.988   0.200  53.155  1.00  0.00     0.032 A 
HETATM   28  C19 UNL     1      20.266  -1.001  53.760  1.00  0.00     0.046 A 
HETATM   29  C20 UNL     1      21.556  -1.275  54.145  1.00  0.00     0.138 A 
HETATM   30  F1  UNL     1      21.776  -2.470  54.736  1.00  0.00    -0.204 F 
HETATM   31  C21 UNL     1      22.522  -0.305  53.896  1.00  0.00     0.074 A 
HETATM   32 CL1  UNL     1      24.130  -0.791  54.439  1.00  0.00    -0.081 Cl
HETATM   33  C22 UNL     1      22.193   0.885  53.287  1.00  0.00     0.056 A 
ENDBRANCH  24  26
ENDBRANCH  10  24
TORSDOF 8
ENDMDL
MODEL 2
REMARK VINA RESULT:      -7.7      4.358      8.018
REMARK  8 active torsions:
REMARK  status: ('A' for Active; 'I' for Inactive)
REMARK    1  A    between atoms: C2_2  and  C3_3 
REMARK    2  A    between atoms: C2_2  and  N2_10 
REMARK    3  A    between atoms: C3_3  and  C4_4 
REMARK    4  A    between atoms: C4_4  and  N1_5 
REMARK    5  A    between atoms: N1_5  and  C6_7 
REMARK    6  A    between atoms: N2_10  and  C9_11 
REMARK    7  A    between atoms: C16_20  and  N5_21 
REMARK    8  A    between atoms: N5_21  and  C17_22 
ROOT
HETATM    1  C9  UNL     1      24.914   3.574  50.421  1.00  0.00     0.264 C 
HETATM    2  C10 UNL     1      23.836   2.757  49.666  1.00  0.00     0.080 C 
HETATM    3  C11 UNL     1      25.924   3.827  49.345  1.00  0.00     0.039 C 
HETATM    4  C12 UNL     1      26.538   4.897  48.886  1.00  0.00     0.018 C 
HETATM    5  C13 UNL     1      26.427   6.277  49.308  1.00  0.00     0.040 A 
HETATM    6  C14 UNL     1      25.454   6.734  50.166  1.00  0.00     0.089 A 
HETATM    7  N3  UNL     1      25.384   8.046  50.484  1.00  0.00    -0.240 NA
HETATM    8  C15 UNL     1      26.326   8.839  49.905  1.00  0.00     0.236 A 
HETATM    9  N4  UNL     1      27.263   8.364  49.074  1.00  0.00    -0.224 NA
HETATM   10  C16 UNL     1      27.373   7.083  48.729  1.00  0.00     0.142 A 
HETATM   11  C23 UNL     1      24.395   5.993  50.875  1.00  0.00     0.146 C 
HETATM   12  N6  UNL     1      24.248   4.704  50.928  1.00  0.00    -0.254 NA
ENDROOT
BRANCH   1  13
HETATM   13  N2  UNL     1      25.454   2.636  51.374  1.00  0.00     0.122 N 
HETATM   14  H19 UNL     1      25.350   1.659  50.957  1.00  0.00     0.320 HD
BRANCH  13  15
HETATM   15  C2  UNL     1      24.704   2.549  52.625  1.00  0.00     0.222 C 
HETATM   16  C1  UNL     1      23.718   1.447  52.600  1.00  0.00     0.043 C 
BRANCH  15  17
HETATM   17  C3  UNL     1      25.717   2.553  53.722  1.00  0.00     0.065 C 
BRANCH  17  18
HETATM   18  C4  UNL     1      26.380   1.280  54.051  1.00  0.00     0.274 C 
BRANCH  18  19
HETATM   19  N1  UNL     1      27.783   1.148  53.900  1.00  0.00     0.088 N 
HETATM   20  C5  UNL     1      28.501   2.322  53.559  1.00  0.00     0.310 C 
BRANCH  19  21
HETATM   21  C6  UNL     1      28.081  -0.039  53.160  1.00  0.00     0.214 C 
HETATM   22  C7  UNL     1      29.296  -0.778  53.726  1.00  0.00     0.042 C 
HETATM   23  C8  UNL     1      26.936  -0.951  52.891  1.00  0.00     0.042 C 
ENDBRANCH  19  21
ENDBRANCH  18  19
ENDBRANCH  17  18
ENDBRANCH  15  17
ENDBRANCH  13  15
ENDBRANCH   1  13
BRANCH  10  24
HETATM   24  N5  UNL     1      28.398   6.601  47.885  1.00  0.00    -0.340 N 
HETATM   25  H26 UNL     1      28.322   6.260  46.910  1.00  0.00     0.167 HD
BRANCH  24  26
HETATM   26  C17 UNL     1      29.777   6.458  48.213  1.00  0.00     0.035 A 
HETATM   27  C18 UNL     1      30.558   7.382  48.854  1.00  0.00     0.032 A 
HETATM   28  C19 UNL     1      31.885   7.213  49.168  1.00  0.00     0.046 A 
HETATM   29  C20 UNL     1      32.510   6.038  48.827  1.00  0.00     0.138 A 
HETATM   30  F1  UNL     1      33.815   5.923  49.157  1.00  0.00    -0.204 F 
HETATM   31  C21 UNL     1      31.752   5.072  48.174  1.00  0.00     0.074 A 
HETATM   32 CL1  UNL     1      32.679   3.617  47.800  1.00  0.00    -0.081 Cl
HETATM   33  C22 UNL     1      30.424   5.289  47.881  1.00  0.00     0.056 A 
ENDBRANCH  24  26
ENDBRANCH  10  24
TORSDOF 8
ENDMDL
MODEL 3
REMARK VINA RESULT:      -7.7      2.313      5.193
REMARK  8 active torsions:
REMARK  status: ('A' for Active; 'I' for Inactive)
REMARK    1  A    between atoms: C2_2  and  C3_3 
REMARK    2  A    between atoms: C2_2  and  N2_10 
REMARK    3  A    between atoms: C3_3  and  C4_4 
REMARK    4  A    between atoms: C4_4  and  N1_5 
REMARK    5  A    between atoms: N1_5  and  C6_7 
REMARK    6  A    between atoms: N2_10  and  C9_11 
REMARK    7  A    between atoms: C16_20  and  N5_21 
REMARK    8  A    between atoms: N5_21  and  C17_22 
ROOT
HETATM    1  C9  UNL     1      21.743   3.702  51.400  1.00  0.00     0.264 C 
HETATM    2  C10 UNL     1      22.160   5.075  51.984  1.00  0.00     0.080 C 
HETATM    3  C11 UNL     1      22.992   2.896  51.576  1.00  0.00     0.039 C 
HETATM    4  C12 UNL     1      23.268   1.721  52.103  1.00  0.00     0.018 C 
HETATM    5  C13 UNL     1      22.385   0.759  52.727  1.00  0.00     0.040 A 
HETATM    6  C14 UNL     1      21.080   1.032  53.065  1.00  0.00     0.089 A 
HETATM    7  N3  UNL     1      20.325   0.097  53.685  1.00  0.00    -0.240 NA
HETATM    8  C15 UNL     1      20.946  -1.088  53.930  1.00  0.00     0.236 A 
HETATM    9  N4  UNL     1      22.219  -1.325  53.586  1.00  0.00    -0.224 NA
HETATM   10  C16 UNL     1      23.003  -0.439  52.977  1.00  0.00     0.142 A 
HETATM   11  C23 UNL     1      20.281   2.250  52.844  1.00  0.00     0.146 C 
HETATM   12  N6  UNL     1      20.626   3.293  52.151  1.00  0.00    -0.254 NA
ENDROOT
BRANCH   1  13
HETATM   13  N2  UNL     1      21.539   3.970  49.998  1.00  0.00     0.122 N 
HETATM   14  H19 UNL     1      20.805   3.281  49.642  1.00  0.00     0.320 HD
BRANCH  13  15
HETATM   15  C2  UNL     1      22.699   3.690  49.155  1.00  0.00     0.222 C 
HETATM   16  C1  UNL     1      22.504   2.471  48.339  1.00  0.00     0.043 C 
BRANCH  15  17
HETATM   17  C3  UNL     1      23.017   4.961  48.442  1.00  0.00     0.065 C 
BRANCH  17  18
HETATM   18  C4  UNL     1      24.382   5.500  48.569  1.00  0.00     0.274 C 
BRANCH  18  19
HETATM   19  N1  UNL     1      25.054   5.450  49.815  1.00  0.00     0.088 N 
HETATM   20  C5  UNL     1      24.994   6.616  50.619  1.00  0.00     0.310 C 
BRANCH  19  21
HETATM   21  C6  UNL     1      26.334   4.834  49.651  1.00  0.00     0.214 C 
HETATM   22  C7  UNL     1      26.230   3.310  49.563  1.00  0.00     0.042 C 
HETATM   23  C8  UNL     1      27.208   5.406  48.591  1.00  0.00     0.042 C 
ENDBRANCH  19  21
ENDBRANCH  18  19
ENDBRANCH  17  18
ENDBRANCH  15  17
ENDBRANCH  13  15
ENDBRANCH   1  13
BRANCH  10  24
HETATM   24  N5  UNL     1      24.329  -0.729  52.585  1.00  0.00    -0.340 N 
HETATM   25  H26 UNL     1      24.656  -1.220  51.733  1.00  0.00     0.167 HD
BRANCH  24  26
HETATM   26  C17 UNL     1      25.519  -0.420  53.304  1.00  0.00     0.035 A 
HETATM   27  C18 UNL     1      25.614   0.388  54.406  1.00  0.00     0.032 A 
HETATM   28  C19 UNL     1      26.776   0.660  55.087  1.00  0.00     0.046 A 
HETATM   29  C20 UNL     1      27.953   0.095  54.658  1.00  0.00     0.138 A 
HETATM   30  F1  UNL     1      29.066   0.396  55.363  1.00  0.00    -0.204 F 
HETATM   31  C21 UNL     1      27.900  -0.732  53.542  1.00  0.00     0.074 A 
HETATM   32 CL1  UNL     1      29.480  -1.389  53.107  1.00  0.00    -0.081 Cl
HETATM   33  C22 UNL     1      26.710  -0.974  52.892  1.00  0.00     0.056 A 
ENDBRANCH  24  26
ENDBRANCH  10  24
TORSDOF 8
ENDMDL
MODEL 4
REMARK VINA RESULT:      -7.6      5.024      8.952
REMARK  8 active torsions:
REMARK  status: ('A' for Active; 'I' for Inactive)
REMARK    1  A    between atoms: C2_2  and  C3_3 
REMARK    2  A    between atoms: C2_2  and  N2_10 
REMARK    3  A    between atoms: C3_3  and  C4_4 
REMARK    4  A    between atoms: C4_4  and  N1_5 
REMARK    5  A    between atoms: N1_5  and  C6_7 
REMARK    6  A    between atoms: N2_10  and  C9_11 
REMARK    7  A    between atoms: C16_20  and  N5_21 
REMARK    8  A    between atoms: N5_21  and  C17_22 
ROOT
HETATM    1  C9  UNL     1      25.714   5.900  49.674  1.00  0.00     0.264 C 
HETATM    2  C10 UNL     1      24.395   5.709  48.885  1.00  0.00     0.080 C 
HETATM    3  C11 UNL     1      26.745   5.567  48.642  1.00  0.00     0.039 C 
HETATM    4  C12 UNL     1      27.831   6.162  48.192  1.00  0.00     0.018 C 
HETATM    5  C13 UNL     1      28.419   7.425  48.583  1.00  0.00     0.040 A 
HETATM    6  C14 UNL     1      27.785   8.343  49.386  1.00  0.00     0.089 A 
HETATM    7  N3  UNL     1      28.378   9.523  49.676  1.00  0.00    -0.240 NA
HETATM    8  C15 UNL     1      29.608   9.709  49.127  1.00  0.00     0.236 A 
HETATM    9  N4  UNL     1      30.202   8.795  48.349  1.00  0.00    -0.224 NA
HETATM   10  C16 UNL     1      29.660   7.621  48.033  1.00  0.00     0.142 A 
HETATM   11  C23 UNL     1      26.476   8.266  50.059  1.00  0.00     0.146 C 
HETATM   12  N6  UNL     1      25.695   7.231  50.129  1.00  0.00    -0.254 NA
ENDROOT
BRANCH   1  13
HETATM   13  N2  UNL     1      25.676   4.856  50.668  1.00  0.00     0.122 N 
HETATM   14  H19 UNL     1      26.666   4.739  51.049  1.00  0.00     0.320 HD
BRANCH  13  15
HETATM   15  C2  UNL     1      25.361   3.531  50.140  1.00  0.00     0.222 C 
HETATM   16  C1  UNL     1      26.563   2.674  50.052  1.00  0.00     0.043 C 
BRANCH  15  17
HETATM   17  C3  UNL     1      24.203   3.027  50.936  1.00  0.00     0.065 C 
BRANCH  17  18
HETATM   18  C4  UNL     1      24.253   3.181  52.399  1.00  0.00     0.274 C 
BRANCH  18  19
HETATM   19  N1  UNL     1      24.741   2.127  53.210  1.00  0.00     0.088 N 
HETATM   20  C5  UNL     1      26.031   2.300  53.773  1.00  0.00     0.310 C 
BRANCH  19  21
HETATM   21  C6  UNL     1      24.461   0.869  52.591  1.00  0.00     0.214 C 
HETATM   22  C7  UNL     1      25.690  -0.041  52.559  1.00  0.00     0.042 C 
HETATM   23  C8  UNL     1      23.241   0.159  53.067  1.00  0.00     0.042 C 
ENDBRANCH  19  21
ENDBRANCH  18  19
ENDBRANCH  17  18
ENDBRANCH  15  17
ENDBRANCH  13  15
ENDBRANCH   1  13
BRANCH  10  24
HETATM   24  N5  UNL     1      30.326   6.654  47.247  1.00  0.00    -0.340 N 
HETATM   25  H26 UNL     1      30.028   6.241  46.345  1.00  0.00     0.167 HD
BRANCH  24  26
HETATM   26  C17 UNL     1      31.563   6.015  47.547  1.00  0.00     0.035 A 
HETATM   27  C18 UNL     1      32.717   6.632  47.951  1.00  0.00     0.032 A 
HETATM   28  C19 UNL     1      33.895   5.988  48.244  1.00  0.00     0.046 A 
HETATM   29  C20 UNL     1      33.957   4.620  48.134  1.00  0.00     0.138 A 
HETATM   30  F1  UNL     1      35.138   4.036  48.434  1.00  0.00    -0.204 F 
HETATM   31  C21 UNL     1      32.806   3.954  47.726  1.00  0.00     0.074 A 
HETATM   32 CL1  UNL     1      33.028   2.205  47.632  1.00  0.00    -0.081 Cl
HETATM   33  C22 UNL     1      31.648   4.645  47.443  1.00  0.00     0.056 A 
ENDBRANCH  24  26
ENDBRANCH  10  24
TORSDOF 8
ENDMDL
MODEL 5
REMARK VINA RESULT:      -7.5      4.276      7.524
REMARK  8 active torsions:
REMARK  status: ('A' for Active; 'I' for Inactive)
REMARK    1  A    between atoms: C2_2  and  C3_3 
REMARK    2  A    between atoms: C2_2  and  N2_10 
REMARK    3  A    between atoms: C3_3  and  C4_4 
REMARK    4  A    between atoms: C4_4  and  N1_5 
REMARK    5  A    between atoms: N1_5  and  C6_7 
REMARK    6  A    between atoms: N2_10  and  C9_11 
REMARK    7  A    between atoms: C16_20  and  N5_21 
REMARK    8  A    between atoms: N5_21  and  C17_22 
ROOT
HETATM    1  C9  UNL     1      23.806   2.686  50.805  1.00  0.00     0.264 C 
HETATM    2  C10 UNL     1      22.721   1.831  50.105  1.00  0.00     0.080 C 
HETATM    3  C11 UNL     1      24.610   3.181  49.643  1.00  0.00     0.039 C 
HETATM    4  C12 UNL     1      25.030   4.364  49.246  1.00  0.00     0.018 C 
HETATM    5  C13 UNL     1      24.836   5.664  49.852  1.00  0.00     0.040 A 
HETATM    6  C14 UNL     1      23.960   5.897  50.886  1.00  0.00     0.089 A 
HETATM    7  N3  UNL     1      23.798   7.147  51.377  1.00  0.00    -0.240 NA
HETATM    8  C15 UNL     1      24.551   8.110  50.781  1.00  0.00     0.236 A 
HETATM    9  N4  UNL     1      25.398   7.852  49.776  1.00  0.00    -0.224 NA
HETATM   10  C16 UNL     1      25.592   6.641  49.258  1.00  0.00     0.142 A 
HETATM   11  C23 UNL     1      23.105   4.956  51.632  1.00  0.00     0.146 C 
HETATM   12  N6  UNL     1      23.106   3.661  51.539  1.00  0.00    -0.254 NA
ENDROOT
BRANCH   1  13
HETATM   13  N2  UNL     1      24.580   1.723  51.547  1.00  0.00     0.122 N 
HETATM   14  H19 UNL     1      24.244   0.751  51.261  1.00  0.00     0.320 HD
BRANCH  13  15
HETATM   15  C2  UNL     1      24.350   1.746  52.990  1.00  0.00     0.222 C 
HETATM   16  C1  UNL     1      23.645   0.531  53.454  1.00  0.00     0.043 C 
BRANCH  15  17
HETATM   17  C3  UNL     1      25.663   2.072  53.620  1.00  0.00     0.065 C 
BRANCH  17  18
HETATM   18  C4  UNL     1      26.886   1.625  52.934  1.00  0.00     0.274 C 
BRANCH  18  19
HETATM   19  N1  UNL     1      27.932   1.014  53.669  1.00  0.00     0.088 N 
HETATM   20  C5  UNL     1      29.008   1.850  54.062  1.00  0.00     0.310 C 
BRANCH  19  21
HETATM   21  C6  UNL     1      28.264  -0.247  53.083  1.00  0.00     0.214 C 
HETATM   22  C7  UNL     1      29.477  -0.892  53.757  1.00  0.00     0.042 C 
HETATM   23  C8  UNL     1      27.139  -1.205  52.903  1.00  0.00     0.042 C 
ENDBRANCH  19  21
ENDBRANCH  18  19
ENDBRANCH  17  18
ENDBRANCH  15  17
ENDBRANCH  13  15
ENDBRANCH   1  13
BRANCH  10  24
HETATM   24  N5  UNL     1      26.525   6.387  48.228  1.00  0.00    -0.340 N 
HETATM   25  H26 UNL     1      26.344   6.064  47.261  1.00  0.00     0.167 HD
BRANCH  24  26
HETATM   26  C17 UNL     1      27.942   6.504  48.312  1.00  0.00     0.035 A 
HETATM   27  C18 UNL     1      28.848   5.482  48.207  1.00  0.00     0.032 A 
HETATM   28  C19 UNL     1      30.212   5.626  48.281  1.00  0.00     0.046 A 
HETATM   29  C20 UNL     1      30.745   6.878  48.474  1.00  0.00     0.138 A 
HETATM   30  F1  UNL     1      32.091   6.964  48.539  1.00  0.00    -0.204 F 
HETATM   31  C21 UNL     1      29.859   7.944  48.585  1.00  0.00     0.074 A 
HETATM   32 CL1  UNL     1      30.680   9.488  48.825  1.00  0.00    -0.081 Cl
HETATM   33  C22 UNL     1      28.498   7.749  48.505  1.00  0.00     0.056 A 
ENDBRANCH  24  26
ENDBRANCH  10  24
TORSDOF 8
ENDMDL
MODEL 6
REMARK VINA RESULT:      -7.4      3.832      7.309
REMARK  8 active torsions:
REMARK  status: ('A' for Active; 'I' for Inactive)
REMARK    1  A    between atoms: C2_2  and  C3_3 
REMARK    2  A    between atoms: C2_2  and  N2_10 
REMARK    3  A    between atoms: C3_3  and  C4_4 
REMARK    4  A    between atoms: C4_4  and  N1_5 
REMARK    5  A    between atoms: N1_5  and  C6_7 
REMARK    6  A    between atoms: N2_10  and  C9_11 
REMARK    7  A    between atoms: C16_20  and  N5_21 
REMARK    8  A    between atoms: N5_21  and  C17_22 
ROOT
HETATM    1  C9  UNL     1      21.866   2.111  50.189  1.00  0.00     0.264 C 
HETATM    2  C10 UNL     1      20.833   1.703  49.108  1.00  0.00     0.080 C 
HETATM    3  C11 UNL     1      23.084   2.391  49.366  1.00  0.00     0.039 C 
HETATM    4  C12 UNL     1      23.931   3.395  49.279  1.00  0.00     0.018 C 
HETATM    5  C13 UNL     1      23.957   4.645  50.008  1.00  0.00     0.040 A 
HETATM    6  C14 UNL     1      22.925   5.084  50.803  1.00  0.00     0.089 A 
HETATM    7  N3  UNL     1      23.001   6.284  51.422  1.00  0.00    -0.240 NA
HETATM    8  C15 UNL     1      24.144   6.986  51.198  1.00  0.00     0.236 A 
HETATM    9  N4  UNL     1      25.135   6.531  50.419  1.00  0.00    -0.224 NA
HETATM   10  C16 UNL     1      25.107   5.359  49.788  1.00  0.00     0.142 A 
HETATM   11  C23 UNL     1      21.652   4.427  51.147  1.00  0.00     0.146 C 
HETATM   12  N6  UNL     1      21.300   3.211  50.859  1.00  0.00    -0.254 NA
ENDROOT
BRANCH   1  13
HETATM   13  N2  UNL     1      22.067   0.902  50.948  1.00  0.00     0.122 N 
HETATM   14  H19 UNL     1      21.495   0.131  50.483  1.00  0.00     0.320 HD
BRANCH  13  15
HETATM   15  C2  UNL     1      21.531   0.945  52.306  1.00  0.00     0.222 C 
HETATM   16  C1  UNL     1      20.276   0.171  52.427  1.00  0.00     0.043 C 
BRANCH  15  17
HETATM   17  C3  UNL     1      22.659   0.588  53.216  1.00  0.00     0.065 C 
BRANCH  17  18
HETATM   18  C4  UNL     1      24.025   0.622  52.666  1.00  0.00     0.274 C 
BRANCH  18  19
HETATM   19  N1  UNL     1      24.964   1.565  53.149  1.00  0.00     0.088 N 
HETATM   20  C5  UNL     1      24.535   2.915  53.219  1.00  0.00     0.310 C 
BRANCH  19  21
HETATM   21  C6  UNL     1      26.246   1.317  52.566  1.00  0.00     0.214 C 
HETATM   22  C7  UNL     1      26.408  -0.143  52.138  1.00  0.00     0.042 C 
HETATM   23  C8  UNL     1      26.683   2.270  51.509  1.00  0.00     0.042 C 
ENDBRANCH  19  21
ENDBRANCH  18  19
ENDBRANCH  17  18
ENDBRANCH  15  17
ENDBRANCH  13  15
ENDBRANCH   1  13
BRANCH  10  24
HETATM   24  N5  UNL     1      26.184   4.882  49.008  1.00  0.00    -0.340 N 
HETATM   25  H26 UNL     1      26.381   3.911  48.708  1.00  0.00     0.167 HD
BRANCH  24  26
HETATM   26  C17 UNL     1      27.260   5.650  48.477  1.00  0.00     0.035 A 
HETATM   27  C18 UNL     1      27.179   6.923  47.977  1.00  0.00     0.032 A 
HETATM   28  C19 UNL     1      28.238   7.645  47.481  1.00  0.00     0.046 A 
HETATM   29  C20 UNL     1      29.489   7.078  47.471  1.00  0.00     0.138 A 
HETATM   30  F1  UNL     1      30.495   7.830  46.972  1.00  0.00    -0.204 F 
HETATM   31  C21 UNL     1      29.616   5.786  47.970  1.00  0.00     0.074 A 
HETATM   32 CL1  UNL     1      31.275   5.188  47.898  1.00  0.00    -0.081 Cl
HETATM   33  C22 UNL     1      28.523   5.103  48.456  1.00  0.00     0.056 A 
ENDBRANCH  24  26
ENDBRANCH  10  24
TORSDOF 8
ENDMDL
MODEL 7
REMARK VINA RESULT:      -7.3      5.154      8.994
REMARK  8 active torsions:
REMARK  status: ('A' for Active; 'I' for Inactive)
REMARK    1  A    between atoms: C2_2  and  C3_3 
REMARK    2  A    between atoms: C2_2  and  N2_10 
REMARK    3  A    between atoms: C3_3  and  C4_4 
REMARK    4  A    between atoms: C4_4  and  N1_5 
REMARK    5  A    between atoms: N1_5  and  C6_7 
REMARK    6  A    between atoms: N2_10  and  C9_11 
REMARK    7  A    between atoms: C16_20  and  N5_21 
REMARK    8  A    between atoms: N5_21  and  C17_22 
ROOT
HETATM    1  C9  UNL     1      25.164   4.417  50.009  1.00  0.00     0.264 C 
HETATM    2  C10 UNL     1      24.147   3.426  49.390  1.00  0.00     0.080 C 
HETATM    3  C11 UNL     1      26.459   3.933  49.436  1.00  0.00     0.039 C 
HETATM    4  C12 UNL     1      27.460   4.505  48.800  1.00  0.00     0.018 C 
HETATM    5  C13 UNL     1      27.643   5.890  48.422  1.00  0.00     0.040 A 
HETATM    6  C14 UNL     1      26.648   6.836  48.496  1.00  0.00     0.089 A 
HETATM    7  N3  UNL     1      26.877   8.104  48.085  1.00  0.00    -0.240 NA
HETATM    8  C15 UNL     1      28.130   8.348  47.616  1.00  0.00     0.236 A 
HETATM    9  N4  UNL     1      29.080   7.405  47.557  1.00  0.00    -0.224 NA
HETATM   10  C16 UNL     1      28.904   6.145  47.947  1.00  0.00     0.142 A 
HETATM   11  C23 UNL     1      25.267   6.718  48.997  1.00  0.00     0.146 C 
HETATM   12  N6  UNL     1      24.742   5.696  49.603  1.00  0.00    -0.254 NA
ENDROOT
BRANCH   1  13
HETATM   13  N2  UNL     1      25.122   4.120  51.419  1.00  0.00     0.122 N 
HETATM   14  H19 UNL     1      26.050   4.434  51.841  1.00  0.00     0.320 HD
BRANCH  13  15
HETATM   15  C2  UNL     1      25.076   2.694  51.734  1.00  0.00     0.222 C 
HETATM   16  C1  UNL     1      26.385   2.192  52.204  1.00  0.00     0.043 C 
BRANCH  15  17
HETATM   17  C3  UNL     1      23.894   2.499  52.626  1.00  0.00     0.065 C 
BRANCH  17  18
HETATM   18  C4  UNL     1      23.125   1.252  52.486  1.00  0.00     0.274 C 
BRANCH  18  19
HETATM   19  N1  UNL     1      23.176   0.265  53.501  1.00  0.00     0.088 N 
HETATM   20  C5  UNL     1      24.318  -0.576  53.516  1.00  0.00     0.310 C 
BRANCH  19  21
HETATM   21  C6  UNL     1      21.899  -0.365  53.631  1.00  0.00     0.214 C 
HETATM   22  C7  UNL     1      21.940  -1.553  54.594  1.00  0.00     0.042 C 
HETATM   23  C8  UNL     1      20.744   0.539  53.892  1.00  0.00     0.042 C 
ENDBRANCH  19  21
ENDBRANCH  18  19
ENDBRANCH  17  18
ENDBRANCH  15  17
ENDBRANCH  13  15
ENDBRANCH   1  13
BRANCH  10  24
HETATM   24  N5  UNL     1      29.936   5.180  47.917  1.00  0.00    -0.340 N 
HETATM   25  H26 UNL     1      29.852   4.149  47.870  1.00  0.00     0.167 HD
BRANCH  24  26
HETATM   26  C17 UNL     1      31.337   5.428  47.969  1.00  0.00     0.035 A 
HETATM   27  C18 UNL     1      31.971   6.343  48.767  1.00  0.00     0.032 A 
HETATM   28  C19 UNL     1      33.328   6.553  48.804  1.00  0.00     0.046 A 
HETATM   29  C20 UNL     1      34.144   5.804  47.990  1.00  0.00     0.138 A 
HETATM   30  F1  UNL     1      35.471   6.050  48.065  1.00  0.00    -0.204 F 
HETATM   31  C21 UNL     1      33.541   4.863  47.163  1.00  0.00     0.074 A 
HETATM   32 CL1  UNL     1      34.707   3.975  46.179  1.00  0.00    -0.081 Cl
HETATM   33  C22 UNL     1      32.175   4.690  47.162  1.00  0.00     0.056 A 
ENDBRANCH  24  26
ENDBRANCH  10  24
TORSDOF 8
ENDMDL
MODEL 8
REMARK VINA RESULT:      -7.3      2.595      6.493
REMARK  8 active torsions:
REMARK  status: ('A' for Active; 'I' for Inactive)
REMARK    1  A    between atoms: C2_2  and  C3_3 
REMARK    2  A    between atoms: C2_2  and  N2_10 
REMARK    3  A    between atoms: C3_3  and  C4_4 
REMARK    4  A    between atoms: C4_4  and  N1_5 
REMARK    5  A    between atoms: N1_5  and  C6_7 
REMARK    6  A    between atoms: N2_10  and  C9_11 
REMARK    7  A    between atoms: C16_20  and  N5_21 
REMARK    8  A    between atoms: N5_21  and  C17_22 
ROOT
HETATM    1  C9  UNL     1      20.463   2.150  51.712  1.00  0.00     0.264 C 
HETATM    2  C10 UNL     1      19.868   3.546  52.024  1.00  0.00     0.080 C 
HETATM    3  C11 UNL     1      21.934   2.417  51.777  1.00  0.00     0.039 C 
HETATM    4  C12 UNL     1      22.949   1.857  52.402  1.00  0.00     0.018 C 
HETATM    5  C13 UNL     1      22.969   0.717  53.293  1.00  0.00     0.040 A 
HETATM    6  C14 UNL     1      21.835   0.138  53.812  1.00  0.00     0.089 A 
HETATM    7  N3  UNL     1      21.930  -0.900  54.673  1.00  0.00    -0.240 NA
HETATM    8  C15 UNL     1      23.196  -1.303  54.965  1.00  0.00     0.236 A 
HETATM    9  N4  UNL     1      24.283  -0.720  54.442  1.00  0.00    -0.224 NA
HETATM   10  C16 UNL     1      24.242   0.304  53.592  1.00  0.00     0.142 A 
HETATM   11  C23 UNL     1      20.416   0.455  53.570  1.00  0.00     0.146 C 
HETATM   12  N6  UNL     1      19.942   1.288  52.694  1.00  0.00    -0.254 NA
ENDROOT
BRANCH   1  13
HETATM   13  N2  UNL     1      20.079   1.909  50.343  1.00  0.00     0.122 N 
HETATM   14  H19 UNL     1      19.937   0.857  50.230  1.00  0.00     0.320 HD
BRANCH  13  15
HETATM   15  C2  UNL     1      21.118   2.215  49.363  1.00  0.00     0.222 C 
HETATM   16  C1  UNL     1      21.537   1.012  48.612  1.00  0.00     0.043 C 
BRANCH  15  17
HETATM   17  C3  UNL     1      20.624   3.387  48.580  1.00  0.00     0.065 C 
BRANCH  17  18
HETATM   18  C4  UNL     1      21.532   4.534  48.412  1.00  0.00     0.274 C 
BRANCH  18  19
HETATM   19  N1  UNL     1      22.119   5.151  49.544  1.00  0.00     0.088 N 
HETATM   20  C5  UNL     1      21.401   6.223  50.130  1.00  0.00     0.310 C 
BRANCH  19  21
HETATM   21  C6  UNL     1      23.518   5.346  49.319  1.00  0.00     0.214 C 
HETATM   22  C7  UNL     1      24.290   4.025  49.319  1.00  0.00     0.042 C 
HETATM   23  C8  UNL     1      23.883   6.218  48.169  1.00  0.00     0.042 C 
ENDBRANCH  19  21
ENDBRANCH  18  19
ENDBRANCH  17  18
ENDBRANCH  15  17
ENDBRANCH  13  15
ENDBRANCH   1  13
BRANCH  10  24
HETATM   24  N5  UNL     1      25.401   0.872  53.019  1.00  0.00    -0.340 N 
HETATM   25  H26 UNL     1      25.468   1.647  52.335  1.00  0.00     0.167 HD
BRANCH  24  26
HETATM   26  C17 UNL     1      26.750   0.478  53.251  1.00  0.00     0.035 A 
HETATM   27  C18 UNL     1      27.771   1.287  53.673  1.00  0.00     0.032 A 
HETATM   28  C19 UNL     1      29.062   0.876  53.899  1.00  0.00     0.046 A 
HETATM   29  C20 UNL     1      29.391  -0.443  53.698  1.00  0.00     0.138 A 
HETATM   30  F1  UNL     1      30.673  -0.795  53.935  1.00  0.00    -0.204 F 
HETATM   31  C21 UNL     1      28.382  -1.300  53.270  1.00  0.00     0.074 A 
HETATM   32 CL1  UNL     1      28.944  -2.960  53.057  1.00  0.00    -0.081 Cl
HETATM   33  C22 UNL     1      27.102  -0.839  53.056  1.00  0.00     0.056 A 
ENDBRANCH  24  26
ENDBRANCH  10  24
TORSDOF 8
ENDMDL
MODEL 9
REMARK VINA RESULT:      -7.2      2.729      5.760
REMARK  8 active torsions:
REMARK  status: ('A' for Active; 'I' for Inactive)
REMARK    1  A    between atoms: C2_2  and  C3_3 
REMARK    2  A    between atoms: C2_2  and  N2_10 
REMARK    3  A    between atoms: C3_3  and  C4_4 
REMARK    4  A    between atoms: C4_4  and  N1_5 
REMARK    5  A    between atoms: N1_5  and  C6_7 
REMARK    6  A    between atoms: N2_10  and  C9_11 
REMARK    7  A    between atoms: C16_20  and  N5_21 
REMARK    8  A    between atoms: N5_21  and  C17_22 
ROOT
HETATM    1  C9  UNL     1      21.247   3.378  47.520  1.00  0.00     0.264 C 
HETATM    2  C10 UNL     1      21.822   3.629  46.103  1.00  0.00     0.080 C 
HETATM    3  C11 UNL     1      22.275   2.468  48.116  1.00  0.00     0.039 C 
HETATM    4  C12 UNL     1      22.968   2.462  49.236  1.00  0.00     0.018 C 
HETATM    5  C13 UNL     1      22.956   3.406  50.333  1.00  0.00     0.040 A 
HETATM    6  C14 UNL     1      22.331   4.629  50.277  1.00  0.00     0.089 A 
HETATM    7  N3  UNL     1      22.396   5.480  51.327  1.00  0.00    -0.240 NA
HETATM    8  C15 UNL     1      23.103   5.031  52.399  1.00  0.00     0.236 A 
HETATM    9  N4  UNL     1      23.700   3.832  52.425  1.00  0.00    -0.224 NA
HETATM   10  C16 UNL     1      23.666   2.961  51.418  1.00  0.00     0.142 A 
HETATM   11  C23 UNL     1      21.523   5.230  49.201  1.00  0.00     0.146 C 
HETATM   12  N6  UNL     1      21.124   4.650  48.110  1.00  0.00    -0.254 NA
ENDROOT
BRANCH   1  13
HETATM   13  N2  UNL     1      20.035   2.638  47.275  1.00  0.00     0.122 N 
HETATM   14  H19 UNL     1      19.765   2.792  46.254  1.00  0.00     0.320 HD
BRANCH  13  15
HETATM   15  C2  UNL     1      18.870   3.128  48.008  1.00  0.00     0.222 C 
HETATM   16  C1  UNL     1      17.689   3.272  47.129  1.00  0.00     0.043 C 
BRANCH  15  17
HETATM   17  C3  UNL     1      18.738   2.262  49.216  1.00  0.00     0.065 C 
BRANCH  17  18
HETATM   18  C4  UNL     1      18.998   2.871  50.532  1.00  0.00     0.274 C 
BRANCH  18  19
HETATM   19  N1  UNL     1      19.278   2.052  51.652  1.00  0.00     0.088 N 
HETATM   20  C5  UNL     1      20.212   2.555  52.594  1.00  0.00     0.310 C 
BRANCH  19  21
HETATM   21  C6  UNL     1      19.441   0.694  51.233  1.00  0.00     0.214 C 
HETATM   22  C7  UNL     1      20.891   0.223  51.360  1.00  0.00     0.042 C 
HETATM   23  C8  UNL     1      18.473  -0.288  51.796  1.00  0.00     0.042 C 
ENDBRANCH  19  21
ENDBRANCH  18  19
ENDBRANCH  17  18
ENDBRANCH  15  17
ENDBRANCH  13  15
ENDBRANCH   1  13
BRANCH  10  24
HETATM   24  N5  UNL     1      24.266   1.684  51.488  1.00  0.00    -0.340 N 
HETATM   25  H26 UNL     1      24.097   0.859  50.884  1.00  0.00     0.167 HD
BRANCH  24  26
HETATM   26  C17 UNL     1      25.233   1.246  52.437  1.00  0.00     0.035 A 
HETATM   27  C18 UNL     1      25.148   0.131  53.227  1.00  0.00     0.032 A 
HETATM   28  C19 UNL     1      26.103  -0.274  54.127  1.00  0.00     0.046 A 
HETATM   29  C20 UNL     1      27.247   0.473  54.272  1.00  0.00     0.138 A 
HETATM   30  F1  UNL     1      28.154   0.030  55.171  1.00  0.00    -0.204 F 
HETATM   31  C21 UNL     1      27.375   1.613  53.487  1.00  0.00     0.074 A 
HETATM   32 CL1  UNL     1      28.891   2.471  53.775  1.00  0.00    -0.081 Cl
HETATM   33  C22 UNL     1      26.388   1.979  52.599  1.00  0.00     0.056 A 
ENDBRANCH  24  26
ENDBRANCH  10  24
TORSDOF 8
ENDMDL
