MODEL 1
REMARK VINA RESULT:      -8.8      0.000      0.000
REMARK  7 active torsions:
REMARK  status: ('A' for Active; 'I' for Inactive)
REMARK    1  A    between atoms: N1_2  and  C3_4 
REMARK    2  A    between atoms: C6_7  and  N2_8 
REMARK    3  A    between atoms: N2_8  and  C7_9 
REMARK    4  A    between atoms: C9_11  and  N3_12 
REMARK    5  A    between atoms: N3_12  and  C10_13 
REMARK    6  A    between atoms: C10_13  and  C11_14 
REMARK    7  A    between atoms: C11_14  and  C12_15 
ROOT
HETATM    1  C7  UNL     1      24.383   0.389  54.002  1.00  0.00     0.200 C 
HETATM    2  C8  UNL     1      25.116   1.495  53.288  1.00  0.00     0.036 C 
HETATM    3  C9  UNL     1      26.101   1.434  52.377  1.00  0.00     0.027 C 
HETATM    4  C18 UNL     1      26.745   0.227  51.817  1.00  0.00     0.046 C 
HETATM    5  C19 UNL     1      26.850  -0.934  52.464  1.00  0.00     0.093 C 
HETATM    6  N4  UNL     1      26.380  -1.259  53.792  1.00  0.00    -0.335 N 
HETATM    7  C20 UNL     1      25.432  -0.518  54.587  1.00  0.00     0.248 C 
HETATM    8  O1  UNL     1      25.665  -0.782  55.818  1.00  0.00    -0.271 OA
HETATM    9  H23 UNL     1      26.832  -2.149  54.141  1.00  0.00     0.168 HD
ENDROOT
BRANCH   1  10
HETATM   10  N2  UNL     1      23.676  -0.367  52.988  1.00  0.00    -0.374 N 
HETATM   11  H9  UNL     1      24.118  -1.119  52.383  1.00  0.00     0.161 HD
BRANCH  10  12
HETATM   12  C6  UNL     1      22.287  -0.204  52.663  1.00  0.00     0.029 A 
HETATM   13  C5  UNL     1      21.745   0.370  51.521  1.00  0.00     0.031 A 
HETATM   14  C4  UNL     1      20.393   0.474  51.363  1.00  0.00     0.031 A 
HETATM   15  C3  UNL     1      19.493   0.027  52.304  1.00  0.00     0.029 A 
HETATM   16  C22 UNL     1      20.005  -0.555  53.463  1.00  0.00     0.031 A 
HETATM   17  C21 UNL     1      21.374  -0.648  53.598  1.00  0.00     0.031 A 
BRANCH  15  18
HETATM   18  N1  UNL     1      18.092   0.153  52.118  1.00  0.00    -0.390 N 
HETATM   19  C1  UNL     1      17.073  -0.751  52.578  1.00  0.00     0.149 C 
HETATM   20  C2  UNL     1      17.600   1.316  51.391  1.00  0.00     0.149 C 
ENDBRANCH  15  18
ENDBRANCH  10  12
ENDBRANCH   1  10
BRANCH   3  21
HETATM   21  N3  UNL     1      26.499   2.761  51.967  1.00  0.00    -0.390 N 
HETATM   22  H12 UNL     1      27.243   3.395  52.356  1.00  0.00     0.159 HD
BRANCH  21  23
HETATM   23  C10 UNL     1      25.746   3.306  50.827  1.00  0.00     0.124 C 
BRANCH  23  24
HETATM   24  C11 UNL     1      26.505   3.162  49.530  1.00  0.00     0.058 C 
BRANCH  24  25
HETATM   25  C12 UNL     1      26.765   4.538  49.018  1.00  0.00    -0.055 A 
HETATM   26  C13 UNL     1      25.679   5.417  49.017  1.00  0.00     0.007 A 
HETATM   27  C14 UNL     1      25.796   6.716  48.562  1.00  0.00     0.002 A 
HETATM   28  C15 UNL     1      27.028   7.133  48.103  1.00  0.00     0.024 A 
HETATM   29  C16 UNL     1      28.118   6.288  48.092  1.00  0.00     0.034 A 
HETATM   30 CL1  UNL     1      29.700   6.788  47.514  1.00  0.00    -0.084 Cl
HETATM   31  C17 UNL     1      28.012   4.973  48.550  1.00  0.00     0.031 A 
ENDBRANCH  24  25
ENDBRANCH  23  24
ENDBRANCH  21  23
ENDBRANCH   3  21
TORSDOF 7
ENDMDL
MODEL 2
REMARK VINA RESULT:      -8.7      2.317      3.197
REMARK  7 active torsions:
REMARK  status: ('A' for Active; 'I' for Inactive)
REMARK    1  A    between atoms: N1_2  and  C3_4 
REMARK    2  A    between atoms: C6_7  and  N2_8 
REMARK    3  A    between atoms: N2_8  and  C7_9 
REMARK    4  A    between atoms: C9_11  and  N3_12 
REMARK    5  A    between atoms: N3_12  and  C10_13 
REMARK    6  A    between atoms: C10_13  and  C11_14 
REMARK    7  A    between atoms: C11_14  and  C12_15 
ROOT
HETATM    1  C7  UNL     1      24.492   0.492  53.965  1.00  0.00     0.200 C 
HETATM    2  C8  UNL     1      25.225   1.568  53.207  1.00  0.00     0.036 C 
HETATM    3  C9  UNL     1      26.165   1.467  52.253  1.00  0.00     0.027 C 
HETATM    4  C18 UNL     1      26.746   0.236  51.678  1.00  0.00     0.046 C 
HETATM    5  C19 UNL     1      26.845  -0.922  52.332  1.00  0.00     0.093 C 
HETATM    6  N4  UNL     1      26.427  -1.219  53.683  1.00  0.00    -0.335 N 
HETATM    7  C20 UNL     1      25.539  -0.441  54.513  1.00  0.00     0.248 C 
HETATM    8  O1  UNL     1      25.820  -0.700  55.734  1.00  0.00    -0.271 OA
HETATM    9  H23 UNL     1      26.867  -2.119  54.022  1.00  0.00     0.168 HD
ENDROOT
BRANCH   1  10
HETATM   10  N2  UNL     1      23.717  -0.252  52.993  1.00  0.00    -0.374 N 
HETATM   11  H9  UNL     1      24.136  -0.844  52.218  1.00  0.00     0.161 HD
BRANCH  10  12
HETATM   12  C6  UNL     1      22.283  -0.290  52.944  1.00  0.00     0.029 A 
HETATM   13  C5  UNL     1      21.416  -0.814  53.893  1.00  0.00     0.031 A 
HETATM   14  C4  UNL     1      20.065  -0.797  53.695  1.00  0.00     0.031 A 
HETATM   15  C3  UNL     1      19.482  -0.271  52.564  1.00  0.00     0.029 A 
HETATM   16  C22 UNL     1      20.325   0.263  51.591  1.00  0.00     0.031 A 
HETATM   17  C21 UNL     1      21.685   0.234  51.815  1.00  0.00     0.031 A 
BRANCH  15  18
HETATM   18  N1  UNL     1      18.075  -0.272  52.379  1.00  0.00    -0.390 N 
HETATM   19  C1  UNL     1      17.301   0.671  51.617  1.00  0.00     0.149 C 
HETATM   20  C2  UNL     1      17.303  -1.333  53.011  1.00  0.00     0.149 C 
ENDBRANCH  15  18
ENDBRANCH  10  12
ENDBRANCH   1  10
BRANCH   3  21
HETATM   21  N3  UNL     1      26.584   2.777  51.810  1.00  0.00    -0.390 N 
HETATM   22  H12 UNL     1      26.914   3.606  52.367  1.00  0.00     0.159 HD
BRANCH  21  23
HETATM   23  C10 UNL     1      26.544   2.979  50.354  1.00  0.00     0.124 C 
BRANCH  23  24
HETATM   24  C11 UNL     1      25.820   4.250  49.981  1.00  0.00     0.058 C 
BRANCH  24  25
HETATM   25  C12 UNL     1      24.360   3.946  49.998  1.00  0.00    -0.055 A 
HETATM   26  C13 UNL     1      23.578   4.694  50.880  1.00  0.00     0.007 A 
HETATM   27  C14 UNL     1      22.215   4.499  50.988  1.00  0.00     0.002 A 
HETATM   28  C15 UNL     1      21.634   3.533  50.191  1.00  0.00     0.024 A 
HETATM   29  C16 UNL     1      22.380   2.779  49.310  1.00  0.00     0.034 A 
HETATM   30 CL1  UNL     1      21.671   1.543  48.284  1.00  0.00    -0.084 Cl
HETATM   31  C17 UNL     1      23.759   2.968  49.193  1.00  0.00     0.031 A 
ENDBRANCH  24  25
ENDBRANCH  23  24
ENDBRANCH  21  23
ENDBRANCH   3  21
TORSDOF 7
ENDMDL
MODEL 3
REMARK VINA RESULT:      -8.5      2.378      5.542
REMARK  7 active torsions:
REMARK  status: ('A' for Active; 'I' for Inactive)
REMARK    1  A    between atoms: N1_2  and  C3_4 
REMARK    2  A    between atoms: C6_7  and  N2_8 
REMARK    3  A    between atoms: N2_8  and  C7_9 
REMARK    4  A    between atoms: C9_11  and  N3_12 
REMARK    5  A    between atoms: N3_12  and  C10_13 
REMARK    6  A    between atoms: C10_13  and  C11_14 
REMARK    7  A    between atoms: C11_14  and  C12_15 
ROOT
HETATM    1  C7  UNL     1      21.498   0.249  51.902  1.00  0.00     0.200 C 
HETATM    2  C8  UNL     1      22.069   0.929  50.685  1.00  0.00     0.036 C 
HETATM    3  C9  UNL     1      22.012   2.217  50.307  1.00  0.00     0.027 C 
HETATM    4  C18 UNL     1      21.356   3.341  51.009  1.00  0.00     0.046 C 
HETATM    5  C19 UNL     1      20.298   3.208  51.810  1.00  0.00     0.093 C 
HETATM    6  N4  UNL     1      19.592   1.995  52.157  1.00  0.00    -0.335 N 
HETATM    7  C20 UNL     1      20.045   0.638  51.974  1.00  0.00     0.248 C 
HETATM    8  O1  UNL     1      19.011  -0.111  51.891  1.00  0.00    -0.271 OA
HETATM    9  H23 UNL     1      18.650   2.220  52.582  1.00  0.00     0.168 HD
ENDROOT
BRANCH   1  10
HETATM   10  N2  UNL     1      22.158   0.828  53.054  1.00  0.00    -0.374 N 
HETATM   11  H9  UNL     1      21.654   1.190  53.915  1.00  0.00     0.161 HD
BRANCH  10  12
HETATM   12  C6  UNL     1      23.578   0.991  53.190  1.00  0.00     0.029 A 
HETATM   13  C5  UNL     1      24.308   2.169  53.102  1.00  0.00     0.031 A 
HETATM   14  C4  UNL     1      25.667   2.162  53.232  1.00  0.00     0.031 A 
HETATM   15  C3  UNL     1      26.392   1.014  53.455  1.00  0.00     0.029 A 
HETATM   16  C22 UNL     1      25.688  -0.186  53.549  1.00  0.00     0.031 A 
HETATM   17  C21 UNL     1      24.317  -0.153  53.413  1.00  0.00     0.031 A 
BRANCH  15  18
HETATM   18  N1  UNL     1      27.805   1.033  53.580  1.00  0.00    -0.390 N 
HETATM   19  C1  UNL     1      28.646   2.191  53.723  1.00  0.00     0.149 C 
HETATM   20  C2  UNL     1      28.510  -0.242  53.571  1.00  0.00     0.149 C 
ENDBRANCH  15  18
ENDBRANCH  10  12
ENDBRANCH   1  10
BRANCH   3  21
HETATM   21  N3  UNL     1      22.709   2.412  49.057  1.00  0.00    -0.390 N 
HETATM   22  H12 UNL     1      22.721   1.817  48.189  1.00  0.00     0.159 HD
BRANCH  21  23
HETATM   23  C10 UNL     1      23.524   3.635  48.988  1.00  0.00     0.124 C 
BRANCH  23  24
HETATM   24  C11 UNL     1      24.872   3.451  49.643  1.00  0.00     0.058 C 
BRANCH  24  25
HETATM   25  C12 UNL     1      25.747   4.558  49.163  1.00  0.00    -0.055 A 
HETATM   26  C13 UNL     1      25.132   5.796  48.962  1.00  0.00     0.007 A 
HETATM   27  C14 UNL     1      25.839   6.895  48.515  1.00  0.00     0.002 A 
HETATM   28  C15 UNL     1      27.188   6.742  48.270  1.00  0.00     0.024 A 
HETATM   29  C16 UNL     1      27.823   5.532  48.460  1.00  0.00     0.034 A 
HETATM   30 CL1  UNL     1      29.538   5.304  48.156  1.00  0.00    -0.084 Cl
HETATM   31  C17 UNL     1      27.118   4.414  48.912  1.00  0.00     0.031 A 
ENDBRANCH  24  25
ENDBRANCH  23  24
ENDBRANCH  21  23
ENDBRANCH   3  21
TORSDOF 7
ENDMDL
MODEL 4
REMARK VINA RESULT:      -8.4      3.292      8.195
REMARK  7 active torsions:
REMARK  status: ('A' for Active; 'I' for Inactive)
REMARK    1  A    between atoms: N1_2  and  C3_4 
REMARK    2  A    between atoms: C6_7  and  N2_8 
REMARK    3  A    between atoms: N2_8  and  C7_9 
REMARK    4  A    between atoms: C9_11  and  N3_12 
REMARK    5  A    between atoms: N3_12  and  C10_13 
REMARK    6  A    between atoms: C10_13  and  C11_14 
REMARK    7  A    between atoms: C11_14  and  C12_15 
ROOT
HETATM    1  C7  UNL     1      24.174   3.821  51.753  1.00  0.00     0.200 C 
HETATM    2  C8  UNL     1      24.034   2.481  52.427  1.00  0.00     0.036 C 
HETATM    3  C9  UNL     1      23.315   1.404  52.070  1.00  0.00     0.027 C 
HETATM    4  C18 UNL     1      22.447   1.245  50.884  1.00  0.00     0.046 C 
HETATM    5  C19 UNL     1      21.817   2.250  50.277  1.00  0.00     0.093 C 
HETATM    6  N4  UNL     1      21.841   3.654  50.623  1.00  0.00    -0.335 N 
HETATM    7  C20 UNL     1      22.778   4.322  51.491  1.00  0.00     0.248 C 
HETATM    8  O1  UNL     1      22.201   5.365  51.960  1.00  0.00    -0.271 OA
HETATM    9  H23 UNL     1      21.051   4.170  50.146  1.00  0.00     0.168 HD
ENDROOT
BRANCH   1  10
HETATM   10  N2  UNL     1      24.794   3.580  50.466  1.00  0.00    -0.374 N 
HETATM   11  H9  UNL     1      24.632   2.713  49.875  1.00  0.00     0.161 HD
BRANCH  10  12
HETATM   12  C6  UNL     1      25.709   4.475  49.816  1.00  0.00     0.029 A 
HETATM   13  C5  UNL     1      26.900   4.155  49.178  1.00  0.00     0.031 A 
HETATM   14  C4  UNL     1      27.680   5.126  48.621  1.00  0.00     0.031 A 
HETATM   15  C3  UNL     1      27.349   6.462  48.652  1.00  0.00     0.029 A 
HETATM   16  C22 UNL     1      26.159   6.817  49.285  1.00  0.00     0.031 A 
HETATM   17  C21 UNL     1      25.389   5.818  49.840  1.00  0.00     0.031 A 
BRANCH  15  18
HETATM   18  N1  UNL     1      28.181   7.453  48.071  1.00  0.00    -0.390 N 
HETATM   19  C1  UNL     1      29.274   8.144  48.701  1.00  0.00     0.149 C 
HETATM   20  C2  UNL     1      27.930   7.832  46.687  1.00  0.00     0.149 C 
ENDBRANCH  15  18
ENDBRANCH  10  12
ENDBRANCH   1  10
BRANCH   3  21
HETATM   21  N3  UNL     1      23.487   0.337  53.028  1.00  0.00    -0.390 N 
HETATM   22  H12 UNL     1      22.790  -0.355  53.404  1.00  0.00     0.159 HD
BRANCH  21  23
HETATM   23  C10 UNL     1      24.854   0.196  53.556  1.00  0.00     0.124 C 
BRANCH  23  24
HETATM   24  C11 UNL     1      25.658  -0.815  52.775  1.00  0.00     0.058 C 
BRANCH  24  25
HETATM   25  C12 UNL     1      27.091  -0.601  53.126  1.00  0.00    -0.055 A 
HETATM   26  C13 UNL     1      27.936  -1.705  52.992  1.00  0.00     0.007 A 
HETATM   27  C14 UNL     1      29.283  -1.631  53.293  1.00  0.00     0.002 A 
HETATM   28  C15 UNL     1      29.782  -0.422  53.734  1.00  0.00     0.024 A 
HETATM   29  C16 UNL     1      28.972   0.685  53.875  1.00  0.00     0.034 A 
HETATM   30 CL1  UNL     1      29.577   2.236  54.434  1.00  0.00    -0.084 Cl
HETATM   31  C17 UNL     1      27.610   0.622  53.574  1.00  0.00     0.031 A 
ENDBRANCH  24  25
ENDBRANCH  23  24
ENDBRANCH  21  23
ENDBRANCH   3  21
TORSDOF 7
ENDMDL
MODEL 5
REMARK VINA RESULT:      -8.4      3.175      8.951
REMARK  7 active torsions:
REMARK  status: ('A' for Active; 'I' for Inactive)
REMARK    1  A    between atoms: N1_2  and  C3_4 
REMARK    2  A    between atoms: C6_7  and  N2_8 
REMARK    3  A    between atoms: N2_8  and  C7_9 
REMARK    4  A    between atoms: C9_11  and  N3_12 
REMARK    5  A    between atoms: N3_12  and  C10_13 
REMARK    6  A    between atoms: C10_13  and  C11_14 
REMARK    7  A    between atoms: C11_14  and  C12_15 
ROOT
HETATM    1  C7  UNL     1      25.084   3.122  49.963  1.00  0.00     0.200 C 
HETATM    2  C8  UNL     1      23.603   2.843  49.981  1.00  0.00     0.036 C 
HETATM    3  C9  UNL     1      22.692   3.068  50.943  1.00  0.00     0.027 C 
HETATM    4  C18 UNL     1      22.909   3.669  52.275  1.00  0.00     0.046 C 
HETATM    5  C19 UNL     1      24.058   3.601  52.949  1.00  0.00     0.093 C 
HETATM    6  N4  UNL     1      25.289   2.959  52.547  1.00  0.00    -0.335 N 
HETATM    7  C20 UNL     1      25.653   2.523  51.221  1.00  0.00     0.248 C 
HETATM    8  O1  UNL     1      26.508   1.578  51.343  1.00  0.00    -0.271 OA
HETATM    9  H23 UNL     1      25.933   2.833  53.376  1.00  0.00     0.168 HD
ENDROOT
BRANCH   1  10
HETATM   10  N2  UNL     1      25.241   4.559  50.059  1.00  0.00    -0.374 N 
HETATM   11  H9  UNL     1      24.639   5.188  50.666  1.00  0.00     0.161 HD
BRANCH  10  12
HETATM   12  C6  UNL     1      26.225   5.325  49.350  1.00  0.00     0.029 A 
HETATM   13  C5  UNL     1      26.150   6.659  48.970  1.00  0.00     0.031 A 
HETATM   14  C4  UNL     1      27.166   7.248  48.275  1.00  0.00     0.031 A 
HETATM   15  C3  UNL     1      28.312   6.577  47.911  1.00  0.00     0.029 A 
HETATM   16  C22 UNL     1      28.419   5.236  48.277  1.00  0.00     0.031 A 
HETATM   17  C21 UNL     1      27.379   4.664  48.977  1.00  0.00     0.031 A 
BRANCH  15  18
HETATM   18  N1  UNL     1      29.351   7.211  47.182  1.00  0.00    -0.390 N 
HETATM   19  C1  UNL     1      30.764   7.121  47.433  1.00  0.00     0.149 C 
HETATM   20  C2  UNL     1      28.980   8.049  46.049  1.00  0.00     0.149 C 
ENDBRANCH  15  18
ENDBRANCH  10  12
ENDBRANCH   1  10
BRANCH   3  21
HETATM   21  N3  UNL     1      21.383   2.635  50.514  1.00  0.00    -0.390 N 
HETATM   22  H12 UNL     1      20.847   2.864  49.638  1.00  0.00     0.159 HD
BRANCH  21  23
HETATM   23  C10 UNL     1      20.695   1.730  51.448  1.00  0.00     0.124 C 
BRANCH  23  24
HETATM   24  C11 UNL     1      21.101   0.290  51.238  1.00  0.00     0.058 C 
BRANCH  24  25
HETATM   25  C12 UNL     1      21.762  -0.166  52.494  1.00  0.00    -0.055 A 
HETATM   26  C13 UNL     1      20.928  -0.695  53.481  1.00  0.00     0.007 A 
HETATM   27  C14 UNL     1      21.425  -1.146  54.689  1.00  0.00     0.002 A 
HETATM   28  C15 UNL     1      22.786  -1.062  54.901  1.00  0.00     0.024 A 
HETATM   29  C16 UNL     1      23.635  -0.545  53.945  1.00  0.00     0.034 A 
HETATM   30 CL1  UNL     1      25.370  -0.424  54.184  1.00  0.00    -0.084 Cl
HETATM   31  C17 UNL     1      23.143  -0.086  52.721  1.00  0.00     0.031 A 
ENDBRANCH  24  25
ENDBRANCH  23  24
ENDBRANCH  21  23
ENDBRANCH   3  21
TORSDOF 7
ENDMDL
MODEL 6
REMARK VINA RESULT:      -8.4      3.570      6.171
REMARK  7 active torsions:
REMARK  status: ('A' for Active; 'I' for Inactive)
REMARK    1  A    between atoms: N1_2  and  C3_4 
REMARK    2  A    between atoms: C6_7  and  N2_8 
REMARK    3  A    between atoms: N2_8  and  C7_9 
REMARK    4  A    between atoms: C9_11  and  N3_12 
REMARK    5  A    between atoms: N3_12  and  C10_13 
REMARK    6  A    between atoms: C10_13  and  C11_14 
REMARK    7  A    between atoms: C11_14  and  C12_15 
ROOT
HETATM    1  C7  UNL     1      26.771  -0.295  52.312  1.00  0.00     0.200 C 
HETATM    2  C8  UNL     1      25.534  -0.682  53.082  1.00  0.00     0.036 C 
HETATM    3  C9  UNL     1      25.237  -0.518  54.381  1.00  0.00     0.027 C 
HETATM    4  C18 UNL     1      26.070   0.105  55.431  1.00  0.00     0.046 C 
HETATM    5  C19 UNL     1      27.403   0.127  55.414  1.00  0.00     0.093 C 
HETATM    6  N4  UNL     1      28.290  -0.426  54.415  1.00  0.00    -0.335 N 
HETATM    7  C20 UNL     1      27.946  -0.843  53.078  1.00  0.00     0.248 C 
HETATM    8  O1  UNL     1      28.801  -1.721  52.711  1.00  0.00    -0.271 OA
HETATM    9  H23 UNL     1      29.276  -0.499  54.790  1.00  0.00     0.168 HD
ENDROOT
BRANCH   1  10
HETATM   10  N2  UNL     1      26.859   1.150  52.360  1.00  0.00    -0.374 N 
HETATM   11  H9  UNL     1      27.668   1.687  52.788  1.00  0.00     0.161 HD
BRANCH  10  12
HETATM   12  C6  UNL     1      25.869   2.049  51.839  1.00  0.00     0.029 A 
HETATM   13  C5  UNL     1      25.692   2.442  50.519  1.00  0.00     0.031 A 
HETATM   14  C4  UNL     1      24.712   3.329  50.177  1.00  0.00     0.031 A 
HETATM   15  C3  UNL     1      23.851   3.884  51.096  1.00  0.00     0.029 A 
HETATM   16  C22 UNL     1      24.002   3.510  52.431  1.00  0.00     0.031 A 
HETATM   17  C21 UNL     1      24.999   2.613  52.750  1.00  0.00     0.031 A 
BRANCH  15  18
HETATM   18  N1  UNL     1      22.845   4.809  50.716  1.00  0.00    -0.390 N 
HETATM   19  C1  UNL     1      21.916   5.484  51.582  1.00  0.00     0.149 C 
HETATM   20  C2  UNL     1      22.716   5.136  49.302  1.00  0.00     0.149 C 
ENDBRANCH  15  18
ENDBRANCH  10  12
ENDBRANCH   1  10
BRANCH   3  21
HETATM   21  N3  UNL     1      23.926  -1.049  54.674  1.00  0.00    -0.390 N 
HETATM   22  H12 UNL     1      23.579  -1.566  55.523  1.00  0.00     0.159 HD
BRANCH  21  23
HETATM   23  C10 UNL     1      22.921  -0.828  53.622  1.00  0.00     0.124 C 
BRANCH  23  24
HETATM   24  C11 UNL     1      21.919   0.231  54.014  1.00  0.00     0.058 C 
BRANCH  24  25
HETATM   25  C12 UNL     1      21.437   0.866  52.755  1.00  0.00    -0.055 A 
HETATM   26  C13 UNL     1      22.062   0.461  51.574  1.00  0.00     0.007 A 
HETATM   27  C14 UNL     1      21.705   0.982  50.345  1.00  0.00     0.002 A 
HETATM   28  C15 UNL     1      20.700   1.926  50.310  1.00  0.00     0.024 A 
HETATM   29  C16 UNL     1      20.064   2.346  51.459  1.00  0.00     0.034 A 
HETATM   30 CL1  UNL     1      18.782   3.546  51.449  1.00  0.00    -0.084 Cl
HETATM   31  C17 UNL     1      20.416   1.826  52.707  1.00  0.00     0.031 A 
ENDBRANCH  24  25
ENDBRANCH  23  24
ENDBRANCH  21  23
ENDBRANCH   3  21
TORSDOF 7
ENDMDL
MODEL 7
REMARK VINA RESULT:      -8.2      3.402      7.908
REMARK  7 active torsions:
REMARK  status: ('A' for Active; 'I' for Inactive)
REMARK    1  A    between atoms: N1_2  and  C3_4 
REMARK    2  A    between atoms: C6_7  and  N2_8 
REMARK    3  A    between atoms: N2_8  and  C7_9 
REMARK    4  A    between atoms: C9_11  and  N3_12 
REMARK    5  A    between atoms: N3_12  and  C10_13 
REMARK    6  A    between atoms: C10_13  and  C11_14 
REMARK    7  A    between atoms: C11_14  and  C12_15 
ROOT
HETATM    1  C7  UNL     1      22.736   3.690  51.077  1.00  0.00     0.200 C 
HETATM    2  C8  UNL     1      22.626   2.460  51.940  1.00  0.00     0.036 C 
HETATM    3  C9  UNL     1      22.121   1.247  51.657  1.00  0.00     0.027 C 
HETATM    4  C18 UNL     1      21.524   0.787  50.386  1.00  0.00     0.046 C 
HETATM    5  C19 UNL     1      20.911   1.586  49.513  1.00  0.00     0.093 C 
HETATM    6  N4  UNL     1      20.703   3.014  49.609  1.00  0.00    -0.335 N 
HETATM    7  C20 UNL     1      21.369   3.935  50.496  1.00  0.00     0.248 C 
HETATM    8  O1  UNL     1      20.594   4.939  50.669  1.00  0.00    -0.271 OA
HETATM    9  H23 UNL     1      19.966   3.331  48.920  1.00  0.00     0.168 HD
ENDROOT
BRANCH   1  10
HETATM   10  N2  UNL     1      23.619   3.353  49.979  1.00  0.00    -0.374 N 
HETATM   11  H9  UNL     1      23.546   2.465  49.401  1.00  0.00     0.161 HD
BRANCH  10  12
HETATM   12  C6  UNL     1      24.708   4.169  49.522  1.00  0.00     0.029 A 
HETATM   13  C5  UNL     1      24.651   5.477  49.059  1.00  0.00     0.031 A 
HETATM   14  C4  UNL     1      25.778   6.120  48.636  1.00  0.00     0.031 A 
HETATM   15  C3  UNL     1      27.022   5.530  48.637  1.00  0.00     0.029 A 
HETATM   16  C22 UNL     1      27.113   4.217  49.096  1.00  0.00     0.031 A 
HETATM   17  C21 UNL     1      25.961   3.590  49.518  1.00  0.00     0.031 A 
BRANCH  15  18
HETATM   18  N1  UNL     1      28.177   6.218  48.185  1.00  0.00    -0.390 N 
HETATM   19  C1  UNL     1      29.543   5.778  48.286  1.00  0.00     0.149 C 
HETATM   20  C2  UNL     1      27.994   7.512  47.539  1.00  0.00     0.149 C 
ENDBRANCH  15  18
ENDBRANCH  10  12
ENDBRANCH   1  10
BRANCH   3  21
HETATM   21  N3  UNL     1      22.227   0.373  52.802  1.00  0.00    -0.390 N 
HETATM   22  H12 UNL     1      21.542  -0.328  53.185  1.00  0.00     0.159 HD
BRANCH  21  23
HETATM   23  C10 UNL     1      23.494   0.477  53.543  1.00  0.00     0.124 C 
BRANCH  23  24
HETATM   24  C11 UNL     1      24.471  -0.602  53.144  1.00  0.00     0.058 C 
BRANCH  24  25
HETATM   25  C12 UNL     1      25.832   0.009  53.164  1.00  0.00    -0.055 A 
HETATM   26  C13 UNL     1      25.893   1.396  53.019  1.00  0.00     0.007 A 
HETATM   27  C14 UNL     1      27.096   2.075  53.017  1.00  0.00     0.002 A 
HETATM   28  C15 UNL     1      28.255   1.339  53.165  1.00  0.00     0.024 A 
HETATM   29  C16 UNL     1      28.225  -0.032  53.311  1.00  0.00     0.034 A 
HETATM   30 CL1  UNL     1      29.681  -0.996  53.502  1.00  0.00    -0.084 Cl
HETATM   31  C17 UNL     1      27.014  -0.728  53.315  1.00  0.00     0.031 A 
ENDBRANCH  24  25
ENDBRANCH  23  24
ENDBRANCH  21  23
ENDBRANCH   3  21
TORSDOF 7
ENDMDL
MODEL 8
REMARK VINA RESULT:      -8.0      4.221      9.149
REMARK  7 active torsions:
REMARK  status: ('A' for Active; 'I' for Inactive)
REMARK    1  A    between atoms: N1_2  and  C3_4 
REMARK    2  A    between atoms: C6_7  and  N2_8 
REMARK    3  A    between atoms: N2_8  and  C7_9 
REMARK    4  A    between atoms: C9_11  and  N3_12 
REMARK    5  A    between atoms: N3_12  and  C10_13 
REMARK    6  A    between atoms: C10_13  and  C11_14 
REMARK    7  A    between atoms: C11_14  and  C12_15 
ROOT
HETATM    1  C7  UNL     1      24.865   5.222  50.321  1.00  0.00     0.200 C 
HETATM    2  C8  UNL     1      24.556   3.856  50.877  1.00  0.00     0.036 C 
HETATM    3  C9  UNL     1      23.790   2.872  50.379  1.00  0.00     0.027 C 
HETATM    4  C18 UNL     1      23.025   2.869  49.114  1.00  0.00     0.046 C 
HETATM    5  C19 UNL     1      22.536   3.965  48.532  1.00  0.00     0.093 C 
HETATM    6  N4  UNL     1      22.640   5.334  48.984  1.00  0.00    -0.335 N 
HETATM    7  C20 UNL     1      23.544   5.858  49.978  1.00  0.00     0.248 C 
HETATM    8  O1  UNL     1      23.011   6.912  50.472  1.00  0.00    -0.271 OA
HETATM    9  H23 UNL     1      21.942   5.948  48.481  1.00  0.00     0.168 HD
ENDROOT
BRANCH   1  10
HETATM   10  N2  UNL     1      25.580   5.016  49.078  1.00  0.00    -0.374 N 
HETATM   11  H9  UNL     1      25.291   4.325  48.326  1.00  0.00     0.161 HD
BRANCH  10  12
HETATM   12  C6  UNL     1      26.773   5.716  48.694  1.00  0.00     0.029 A 
HETATM   13  C5  UNL     1      26.910   7.069  48.413  1.00  0.00     0.031 A 
HETATM   14  C4  UNL     1      28.114   7.589  48.037  1.00  0.00     0.031 A 
HETATM   15  C3  UNL     1      29.252   6.825  47.910  1.00  0.00     0.029 A 
HETATM   16  C22 UNL     1      29.149   5.462  48.185  1.00  0.00     0.031 A 
HETATM   17  C21 UNL     1      27.922   4.962  48.563  1.00  0.00     0.031 A 
BRANCH  15  18
HETATM   18  N1  UNL     1      30.491   7.389  47.510  1.00  0.00    -0.390 N 
HETATM   19  C1  UNL     1      30.748   8.162  46.325  1.00  0.00     0.149 C 
HETATM   20  C2  UNL     1      31.647   7.185  48.374  1.00  0.00     0.149 C 
ENDBRANCH  15  18
ENDBRANCH  10  12
ENDBRANCH   1  10
BRANCH   3  21
HETATM   21  N3  UNL     1      23.787   1.731  51.265  1.00  0.00    -0.390 N 
HETATM   22  H12 UNL     1      23.439   0.751  51.107  1.00  0.00     0.159 HD
BRANCH  21  23
HETATM   23  C10 UNL     1      24.365   1.981  52.595  1.00  0.00     0.124 C 
BRANCH  23  24
HETATM   24  C11 UNL     1      24.826   0.705  53.258  1.00  0.00     0.058 C 
BRANCH  24  25
HETATM   25  C12 UNL     1      26.311   0.779  53.365  1.00  0.00    -0.055 A 
HETATM   26  C13 UNL     1      26.866   2.057  53.460  1.00  0.00     0.007 A 
HETATM   27  C14 UNL     1      28.230   2.252  53.560  1.00  0.00     0.002 A 
HETATM   28  C15 UNL     1      29.045   1.139  53.565  1.00  0.00     0.024 A 
HETATM   29  C16 UNL     1      28.526  -0.136  53.474  1.00  0.00     0.034 A 
HETATM   30 CL1  UNL     1      29.536  -1.573  53.477  1.00  0.00    -0.084 Cl
HETATM   31  C17 UNL     1      27.149  -0.345  53.373  1.00  0.00     0.031 A 
ENDBRANCH  24  25
ENDBRANCH  23  24
ENDBRANCH  21  23
ENDBRANCH   3  21
TORSDOF 7
ENDMDL
MODEL 9
REMARK VINA RESULT:      -8.0      3.891      6.515
REMARK  7 active torsions:
REMARK  status: ('A' for Active; 'I' for Inactive)
REMARK    1  A    between atoms: N1_2  and  C3_4 
REMARK    2  A    between atoms: C6_7  and  N2_8 
REMARK    3  A    between atoms: N2_8  and  C7_9 
REMARK    4  A    between atoms: C9_11  and  N3_12 
REMARK    5  A    between atoms: N3_12  and  C10_13 
REMARK    6  A    between atoms: C10_13  and  C11_14 
REMARK    7  A    between atoms: C11_14  and  C12_15 
ROOT
HETATM    1  C7  UNL     1      23.208   4.932  48.378  1.00  0.00     0.200 C 
HETATM    2  C8  UNL     1      24.556   4.589  48.958  1.00  0.00     0.036 C 
HETATM    3  C9  UNL     1      25.210   5.125  50.001  1.00  0.00     0.027 C 
HETATM    4  C18 UNL     1      24.766   6.225  50.883  1.00  0.00     0.046 C 
HETATM    5  C19 UNL     1      23.938   7.199  50.506  1.00  0.00     0.093 C 
HETATM    6  N4  UNL     1      23.317   7.388  49.214  1.00  0.00    -0.335 N 
HETATM    7  C20 UNL     1      23.201   6.420  48.152  1.00  0.00     0.248 C 
HETATM    8  O1  UNL     1      23.096   7.062  47.049  1.00  0.00    -0.271 OA
HETATM    9  H23 UNL     1      22.937   8.371  49.122  1.00  0.00     0.168 HD
ENDROOT
BRANCH   1  10
HETATM   10  N2  UNL     1      22.226   4.645  49.403  1.00  0.00    -0.374 N 
HETATM   11  H9  UNL     1      21.418   5.286  49.655  1.00  0.00     0.161 HD
BRANCH  10  12
HETATM   12  C6  UNL     1      22.208   3.461  50.214  1.00  0.00     0.029 A 
HETATM   13  C5  UNL     1      22.244   2.140  49.787  1.00  0.00     0.031 A 
HETATM   14  C4  UNL     1      22.199   1.112  50.684  1.00  0.00     0.031 A 
HETATM   15  C3  UNL     1      22.116   1.309  52.044  1.00  0.00     0.029 A 
HETATM   16  C22 UNL     1      22.079   2.624  52.505  1.00  0.00     0.031 A 
HETATM   17  C21 UNL     1      22.126   3.644  51.580  1.00  0.00     0.031 A 
BRANCH  15  18
HETATM   18  N1  UNL     1      22.064   0.222  52.955  1.00  0.00    -0.390 N 
HETATM   19  C1  UNL     1      20.885  -0.434  53.453  1.00  0.00     0.149 C 
HETATM   20  C2  UNL     1      23.323  -0.312  53.456  1.00  0.00     0.149 C 
ENDBRANCH  15  18
ENDBRANCH  10  12
ENDBRANCH   1  10
BRANCH   3  21
HETATM   21  N3  UNL     1      26.485   4.471  50.193  1.00  0.00    -0.390 N 
HETATM   22  H12 UNL     1      27.451   4.880  50.263  1.00  0.00     0.159 HD
BRANCH  21  23
HETATM   23  C10 UNL     1      26.415   3.006  50.311  1.00  0.00     0.124 C 
BRANCH  23  24
HETATM   24  C11 UNL     1      25.763   2.576  51.603  1.00  0.00     0.058 C 
BRANCH  24  25
HETATM   25  C12 UNL     1      26.658   1.560  52.228  1.00  0.00    -0.055 A 
HETATM   26  C13 UNL     1      27.708   2.050  53.007  1.00  0.00     0.007 A 
HETATM   27  C14 UNL     1      28.605   1.206  53.634  1.00  0.00     0.002 A 
HETATM   28  C15 UNL     1      28.437  -0.154  53.470  1.00  0.00     0.024 A 
HETATM   29  C16 UNL     1      27.409  -0.667  52.707  1.00  0.00     0.034 A 
HETATM   30 CL1  UNL     1      27.168  -2.392  52.480  1.00  0.00    -0.084 Cl
HETATM   31  C17 UNL     1      26.496   0.177  52.070  1.00  0.00     0.031 A 
ENDBRANCH  24  25
ENDBRANCH  23  24
ENDBRANCH  21  23
ENDBRANCH   3  21
TORSDOF 7
ENDMDL
