MODEL 1
REMARK VINA RESULT:      -7.2      0.000      0.000
REMARK  8 active torsions:
REMARK  status: ('A' for Active; 'I' for Inactive)
REMARK    1  A    between atoms: C7_8  and  N1_9 
REMARK    2  A    between atoms: N1_9  and  C8_10 
REMARK    3  A    between atoms: C8_10  and  C9_11 
REMARK    4  A    between atoms: N3_15  and  C12_16 
REMARK    5  A    between atoms: C12_16  and  C13_17 
REMARK    6  A    between atoms: C13_17  and  C16_21 
REMARK    7  A    between atoms: C14_18  and  C15_19 
REMARK    8  A    between atoms: C16_21  and  N4_22 
ROOT
HETATM    1  C9  UNL     1      24.552   3.591  51.470  1.00  0.00     0.048 A 
HETATM    2  C10 UNL     1      24.048   3.683  52.748  1.00  0.00     0.144 A 
HETATM    3  N2  UNL     1      23.282   4.788  52.754  1.00  0.00    -0.254 NA
HETATM    4  C11 UNL     1      23.334   5.321  51.530  1.00  0.00     0.209 A 
HETATM    5  N3  UNL     1      24.109   4.620  50.688  1.00  0.00    -0.338 N 
ENDROOT
BRANCH   1   6
HETATM    6  C8  UNL     1      25.460   2.447  51.133  1.00  0.00     0.178 C 
BRANCH   6   7
HETATM    7  N1  UNL     1      26.555   2.484  52.067  1.00  0.00    -0.384 N 
HETATM    8  H7  UNL     1      26.950   3.372  52.477  1.00  0.00     0.160 HD
BRANCH   7   9
HETATM    9  C7  UNL     1      27.177   1.268  52.492  1.00  0.00     0.037 A 
HETATM   10  C2  UNL     1      28.293   1.200  53.292  1.00  0.00    -0.035 A 
HETATM   11  C1  UNL     1      28.862   2.524  53.721  1.00  0.00     0.050 C 
HETATM   12  C3  UNL     1      28.829  -0.016  53.656  1.00  0.00     0.012 A 
HETATM   13  C4  UNL     1      28.278  -1.210  53.242  1.00  0.00     0.043 A 
HETATM   14  C5  UNL     1      27.171  -1.195  52.448  1.00  0.00     0.118 A 
HETATM   15  F1  UNL     1      26.558  -2.317  51.991  1.00  0.00    -0.206 F 
HETATM   16  C6  UNL     1      26.652   0.056  52.097  1.00  0.00     0.072 A 
ENDBRANCH   7   9
ENDBRANCH   6   7
ENDBRANCH   1   6
BRANCH   5  17
HETATM   17  C12 UNL     1      24.521   4.724  49.318  1.00  0.00     0.165 C 
BRANCH  17  18
HETATM   18  C13 UNL     1      25.787   5.531  49.136  1.00  0.00    -0.037 C 
HETATM   19  C14 UNL     1      26.956   5.005  48.771  1.00  0.00    -0.006 C 
BRANCH  19  20
HETATM   20  C15 UNL     1      28.379   5.232  48.461  1.00  0.00     0.142 C 
HETATM   21 CL1  UNL     1      28.726   6.872  47.850  1.00  0.00    -0.126 Cl
ENDBRANCH  19  20
BRANCH  18  22
HETATM   22  C16 UNL     1      25.634   6.995  49.410  1.00  0.00     0.302 C 
BRANCH  22  23
HETATM   23  N4  UNL     1      26.284   7.396  50.630  1.00  0.00     0.082 N 
HETATM   24  H19 UNL     1      25.626   7.511  51.431  1.00  0.00     0.313 HD
HETATM   25  H20 UNL     1      27.062   6.731  50.854  1.00  0.00     0.313 HD
ENDBRANCH  22  23
ENDBRANCH  18  22
ENDBRANCH  17  18
ENDBRANCH   5  17
TORSDOF 8
ENDMDL
MODEL 2
REMARK VINA RESULT:      -7.1      2.638      3.676
REMARK  8 active torsions:
REMARK  status: ('A' for Active; 'I' for Inactive)
REMARK    1  A    between atoms: C7_8  and  N1_9 
REMARK    2  A    between atoms: N1_9  and  C8_10 
REMARK    3  A    between atoms: C8_10  and  C9_11 
REMARK    4  A    between atoms: N3_15  and  C12_16 
REMARK    5  A    between atoms: C12_16  and  C13_17 
REMARK    6  A    between atoms: C13_17  and  C16_21 
REMARK    7  A    between atoms: C14_18  and  C15_19 
REMARK    8  A    between atoms: C16_21  and  N4_22 
ROOT
HETATM    1  C9  UNL     1      23.372   0.347  53.171  1.00  0.00     0.048 A 
HETATM    2  C10 UNL     1      22.334  -0.509  52.878  1.00  0.00     0.144 A 
HETATM    3  N2  UNL     1      21.380   0.259  52.324  1.00  0.00    -0.254 NA
HETATM    4  C11 UNL     1      21.839   1.513  52.292  1.00  0.00     0.209 A 
HETATM    5  N3  UNL     1      23.074   1.629  52.805  1.00  0.00    -0.338 N 
ENDROOT
BRANCH   1   6
HETATM    6  C8  UNL     1      24.608  -0.210  53.809  1.00  0.00     0.178 C 
BRANCH   6   7
HETATM    7  N1  UNL     1      25.603  -0.333  52.776  1.00  0.00    -0.384 N 
HETATM    8  H7  UNL     1      25.383  -0.569  51.772  1.00  0.00     0.160 HD
BRANCH   7   9
HETATM    9  C7  UNL     1      26.985  -0.132  53.083  1.00  0.00     0.037 A 
HETATM   10  C2  UNL     1      27.940  -1.121  53.067  1.00  0.00    -0.035 A 
HETATM   11  C1  UNL     1      27.445  -2.491  52.696  1.00  0.00     0.050 C 
HETATM   12  C3  UNL     1      29.253  -0.841  53.377  1.00  0.00     0.012 A 
HETATM   13  C4  UNL     1      29.668   0.430  53.713  1.00  0.00     0.043 A 
HETATM   14  C5  UNL     1      28.760   1.444  53.743  1.00  0.00     0.118 A 
HETATM   15  F1  UNL     1      29.073   2.726  54.061  1.00  0.00    -0.206 F 
HETATM   16  C6  UNL     1      27.435   1.126  53.424  1.00  0.00     0.072 A 
ENDBRANCH   7   9
ENDBRANCH   6   7
ENDBRANCH   1   6
BRANCH   5  17
HETATM   17  C12 UNL     1      24.015   2.688  53.030  1.00  0.00     0.165 C 
BRANCH  17  18
HETATM   18  C13 UNL     1      24.411   3.414  51.765  1.00  0.00    -0.037 C 
HETATM   19  C14 UNL     1      25.384   3.007  50.950  1.00  0.00    -0.006 C 
BRANCH  19  20
HETATM   20  C15 UNL     1      26.153   3.246  49.715  1.00  0.00     0.142 C 
HETATM   21 CL1  UNL     1      26.229   4.963  49.239  1.00  0.00    -0.126 Cl
ENDBRANCH  19  20
BRANCH  18  22
HETATM   22  C16 UNL     1      23.623   4.657  51.490  1.00  0.00     0.302 C 
BRANCH  22  23
HETATM   23  N4  UNL     1      24.091   5.783  52.253  1.00  0.00     0.082 N 
HETATM   24  H19 UNL     1      24.979   5.596  52.767  1.00  0.00     0.313 HD
HETATM   25  H20 UNL     1      24.167   6.626  51.636  1.00  0.00     0.313 HD
ENDBRANCH  22  23
ENDBRANCH  18  22
ENDBRANCH  17  18
ENDBRANCH   5  17
TORSDOF 8
ENDMDL
MODEL 3
REMARK VINA RESULT:      -7.0      4.059      6.379
REMARK  8 active torsions:
REMARK  status: ('A' for Active; 'I' for Inactive)
REMARK    1  A    between atoms: C7_8  and  N1_9 
REMARK    2  A    between atoms: N1_9  and  C8_10 
REMARK    3  A    between atoms: C8_10  and  C9_11 
REMARK    4  A    between atoms: N3_15  and  C12_16 
REMARK    5  A    between atoms: C12_16  and  C13_17 
REMARK    6  A    between atoms: C13_17  and  C16_21 
REMARK    7  A    between atoms: C14_18  and  C15_19 
REMARK    8  A    between atoms: C16_21  and  N4_22 
ROOT
HETATM    1  C9  UNL     1      24.939   2.589  51.995  1.00  0.00     0.048 A 
HETATM    2  C10 UNL     1      25.018   3.166  50.748  1.00  0.00     0.144 A 
HETATM    3  N2  UNL     1      26.317   3.102  50.404  1.00  0.00    -0.254 NA
HETATM    4  C11 UNL     1      26.970   2.512  51.408  1.00  0.00     0.209 A 
HETATM    5  N3  UNL     1      26.165   2.170  52.426  1.00  0.00    -0.338 N 
ENDROOT
BRANCH   1   6
HETATM    6  C8  UNL     1      23.601   2.506  52.666  1.00  0.00     0.178 C 
BRANCH   6   7
HETATM    7  N1  UNL     1      22.887   1.412  52.058  1.00  0.00    -0.384 N 
HETATM    8  H7  UNL     1      22.772   1.291  51.017  1.00  0.00     0.160 HD
BRANCH   7   9
HETATM    9  C7  UNL     1      22.283   0.407  52.877  1.00  0.00     0.037 A 
HETATM   10  C2  UNL     1      20.995  -0.050  52.727  1.00  0.00    -0.035 A 
HETATM   11  C1  UNL     1      20.209   0.583  51.612  1.00  0.00     0.050 C 
HETATM   12  C3  UNL     1      20.488  -1.023  53.561  1.00  0.00     0.012 A 
HETATM   13  C4  UNL     1      21.241  -1.580  54.574  1.00  0.00     0.043 A 
HETATM   14  C5  UNL     1      22.523  -1.160  54.762  1.00  0.00     0.118 A 
HETATM   15  F1  UNL     1      23.340  -1.648  55.730  1.00  0.00    -0.206 F 
HETATM   16  C6  UNL     1      23.005  -0.171  53.899  1.00  0.00     0.072 A 
ENDBRANCH   7   9
ENDBRANCH   6   7
ENDBRANCH   1   6
BRANCH   5  17
HETATM   17  C12 UNL     1      26.313   1.548  53.710  1.00  0.00     0.165 C 
BRANCH  17  18
HETATM   18  C13 UNL     1      27.181   0.312  53.678  1.00  0.00    -0.037 C 
HETATM   19  C14 UNL     1      26.861  -0.804  53.023  1.00  0.00    -0.006 C 
BRANCH  19  20
HETATM   20  C15 UNL     1      27.238  -2.180  52.651  1.00  0.00     0.142 C 
HETATM   21 CL1  UNL     1      28.925  -2.594  53.054  1.00  0.00    -0.126 Cl
ENDBRANCH  19  20
BRANCH  18  22
HETATM   22  C16 UNL     1      28.453   0.426  54.462  1.00  0.00     0.302 C 
BRANCH  22  23
HETATM   23  N4  UNL     1      29.535   0.956  53.676  1.00  0.00     0.082 N 
HETATM   24  H19 UNL     1      30.474   0.622  53.984  1.00  0.00     0.313 HD
HETATM   25  H20 UNL     1      29.366   0.764  52.660  1.00  0.00     0.313 HD
ENDBRANCH  22  23
ENDBRANCH  18  22
ENDBRANCH  17  18
ENDBRANCH   5  17
TORSDOF 8
ENDMDL
MODEL 4
REMARK VINA RESULT:      -6.9      3.713      5.178
REMARK  8 active torsions:
REMARK  status: ('A' for Active; 'I' for Inactive)
REMARK    1  A    between atoms: C7_8  and  N1_9 
REMARK    2  A    between atoms: N1_9  and  C8_10 
REMARK    3  A    between atoms: C8_10  and  C9_11 
REMARK    4  A    between atoms: N3_15  and  C12_16 
REMARK    5  A    between atoms: C12_16  and  C13_17 
REMARK    6  A    between atoms: C13_17  and  C16_21 
REMARK    7  A    between atoms: C14_18  and  C15_19 
REMARK    8  A    between atoms: C16_21  and  N4_22 
ROOT
HETATM    1  C9  UNL     1      23.859   3.195  52.548  1.00  0.00     0.048 A 
HETATM    2  C10 UNL     1      23.663   4.555  52.626  1.00  0.00     0.144 A 
HETATM    3  N2  UNL     1      22.690   4.830  51.739  1.00  0.00    -0.254 NA
HETATM    4  C11 UNL     1      22.331   3.679  51.166  1.00  0.00     0.209 A 
HETATM    5  N3  UNL     1      23.023   2.627  51.629  1.00  0.00    -0.338 N 
ENDROOT
BRANCH   1   6
HETATM    6  C8  UNL     1      24.896   2.564  53.427  1.00  0.00     0.178 C 
BRANCH   6   7
HETATM    7  N1  UNL     1      26.073   2.365  52.621  1.00  0.00    -0.384 N 
HETATM    8  H7  UNL     1      26.402   3.042  51.882  1.00  0.00     0.160 HD
BRANCH   7   9
HETATM    9  C7  UNL     1      26.875   1.194  52.800  1.00  0.00     0.037 A 
HETATM   10  C2  UNL     1      28.150   1.193  53.314  1.00  0.00    -0.035 A 
HETATM   11  C1  UNL     1      28.694   2.542  53.697  1.00  0.00     0.050 C 
HETATM   12  C3  UNL     1      28.855   0.018  53.453  1.00  0.00     0.012 A 
HETATM   13  C4  UNL     1      28.322  -1.201  53.089  1.00  0.00     0.043 A 
HETATM   14  C5  UNL     1      27.061  -1.252  52.576  1.00  0.00     0.118 A 
HETATM   15  F1  UNL     1      26.452  -2.401  52.190  1.00  0.00    -0.206 F 
HETATM   16  C6  UNL     1      26.373  -0.040  52.447  1.00  0.00     0.072 A 
ENDBRANCH   7   9
ENDBRANCH   6   7
ENDBRANCH   1   6
BRANCH   5  17
HETATM   17  C12 UNL     1      23.066   1.215  51.379  1.00  0.00     0.165 C 
BRANCH  17  18
HETATM   18  C13 UNL     1      22.072   0.431  52.206  1.00  0.00    -0.037 C 
HETATM   19  C14 UNL     1      22.380  -0.191  53.344  1.00  0.00    -0.006 C 
BRANCH  19  20
HETATM   20  C15 UNL     1      21.918  -1.017  54.474  1.00  0.00     0.142 C 
HETATM   21 CL1  UNL     1      23.212  -1.442  55.626  1.00  0.00    -0.126 Cl
ENDBRANCH  19  20
BRANCH  18  22
HETATM   22  C16 UNL     1      20.687   0.393  51.638  1.00  0.00     0.302 C 
BRANCH  22  23
HETATM   23  N4  UNL     1      19.789   1.284  52.324  1.00  0.00     0.082 N 
HETATM   24  H19 UNL     1      19.590   0.997  53.306  1.00  0.00     0.313 HD
HETATM   25  H20 UNL     1      20.149   2.266  52.268  1.00  0.00     0.313 HD
ENDBRANCH  22  23
ENDBRANCH  18  22
ENDBRANCH  17  18
ENDBRANCH   5  17
TORSDOF 8
ENDMDL
MODEL 5
REMARK VINA RESULT:      -6.8      5.067      6.587
REMARK  8 active torsions:
REMARK  status: ('A' for Active; 'I' for Inactive)
REMARK    1  A    between atoms: C7_8  and  N1_9 
REMARK    2  A    between atoms: N1_9  and  C8_10 
REMARK    3  A    between atoms: C8_10  and  C9_11 
REMARK    4  A    between atoms: N3_15  and  C12_16 
REMARK    5  A    between atoms: C12_16  and  C13_17 
REMARK    6  A    between atoms: C13_17  and  C16_21 
REMARK    7  A    between atoms: C14_18  and  C15_19 
REMARK    8  A    between atoms: C16_21  and  N4_22 
ROOT
HETATM    1  C9  UNL     1      23.289  -0.495  53.905  1.00  0.00     0.048 A 
HETATM    2  C10 UNL     1      23.448  -1.166  55.096  1.00  0.00     0.144 A 
HETATM    3  N2  UNL     1      22.285  -1.809  55.304  1.00  0.00    -0.254 NA
HETATM    4  C11 UNL     1      21.479  -1.525  54.277  1.00  0.00     0.209 A 
HETATM    5  N3  UNL     1      22.050  -0.712  53.375  1.00  0.00    -0.338 N 
ENDROOT
BRANCH   1   6
HETATM    6  C8  UNL     1      24.428   0.331  53.387  1.00  0.00     0.178 C 
BRANCH   6   7
HETATM    7  N1  UNL     1      25.468  -0.582  52.987  1.00  0.00    -0.384 N 
HETATM    8  H7  UNL     1      25.288  -1.520  52.540  1.00  0.00     0.160 HD
BRANCH   7   9
HETATM    9  C7  UNL     1      26.841  -0.236  53.188  1.00  0.00     0.037 A 
HETATM   10  C2  UNL     1      27.889  -1.122  53.100  1.00  0.00    -0.035 A 
HETATM   11  C1  UNL     1      27.511  -2.540  52.769  1.00  0.00     0.050 C 
HETATM   12  C3  UNL     1      29.186  -0.707  53.309  1.00  0.00     0.012 A 
HETATM   13  C4  UNL     1      29.492   0.604  53.611  1.00  0.00     0.043 A 
HETATM   14  C5  UNL     1      28.489   1.519  53.709  1.00  0.00     0.118 A 
HETATM   15  F1  UNL     1      28.691   2.829  54.001  1.00  0.00    -0.206 F 
HETATM   16  C6  UNL     1      27.184   1.064  53.492  1.00  0.00     0.072 A 
ENDBRANCH   7   9
ENDBRANCH   6   7
ENDBRANCH   1   6
BRANCH   5  17
HETATM   17  C12 UNL     1      21.668  -0.096  52.137  1.00  0.00     0.165 C 
BRANCH  17  18
HETATM   18  C13 UNL     1      20.303   0.551  52.188  1.00  0.00    -0.037 C 
HETATM   19  C14 UNL     1      19.172  -0.075  51.865  1.00  0.00    -0.006 C 
BRANCH  19  20
HETATM   20  C15 UNL     1      17.706  -0.002  51.725  1.00  0.00     0.142 C 
HETATM   21 CL1  UNL     1      17.168   0.870  50.265  1.00  0.00    -0.126 Cl
ENDBRANCH  19  20
BRANCH  18  22
HETATM   22  C16 UNL     1      20.312   1.983  52.627  1.00  0.00     0.302 C 
BRANCH  22  23
HETATM   23  N4  UNL     1      21.572   2.628  52.369  1.00  0.00     0.082 N 
HETATM   24  H19 UNL     1      22.220   2.614  53.186  1.00  0.00     0.313 HD
HETATM   25  H20 UNL     1      22.014   2.218  51.513  1.00  0.00     0.313 HD
ENDBRANCH  22  23
ENDBRANCH  18  22
ENDBRANCH  17  18
ENDBRANCH   5  17
TORSDOF 8
ENDMDL
MODEL 6
REMARK VINA RESULT:      -6.7      4.395      6.644
REMARK  8 active torsions:
REMARK  status: ('A' for Active; 'I' for Inactive)
REMARK    1  A    between atoms: C7_8  and  N1_9 
REMARK    2  A    between atoms: N1_9  and  C8_10 
REMARK    3  A    between atoms: C8_10  and  C9_11 
REMARK    4  A    between atoms: N3_15  and  C12_16 
REMARK    5  A    between atoms: C12_16  and  C13_17 
REMARK    6  A    between atoms: C13_17  and  C16_21 
REMARK    7  A    between atoms: C14_18  and  C15_19 
REMARK    8  A    between atoms: C16_21  and  N4_22 
ROOT
HETATM    1  C9  UNL     1      24.891   2.283  52.144  1.00  0.00     0.048 A 
HETATM    2  C10 UNL     1      24.640   2.660  50.844  1.00  0.00     0.144 A 
HETATM    3  N2  UNL     1      25.848   2.873  50.292  1.00  0.00    -0.254 NA
HETATM    4  C11 UNL     1      26.768   2.630  51.230  1.00  0.00     0.209 A 
HETATM    5  N3  UNL     1      26.231   2.259  52.403  1.00  0.00    -0.338 N 
ENDROOT
BRANCH   1   6
HETATM    6  C8  UNL     1      23.730   1.970  53.039  1.00  0.00     0.178 C 
BRANCH   6   7
HETATM    7  N1  UNL     1      23.377   0.592  52.812  1.00  0.00    -0.384 N 
HETATM    8  H7  UNL     1      24.078  -0.172  52.623  1.00  0.00     0.160 HD
BRANCH   7   9
HETATM    9  C7  UNL     1      22.004   0.191  52.836  1.00  0.00     0.037 A 
HETATM   10  C2  UNL     1      21.435  -0.587  53.817  1.00  0.00    -0.035 A 
HETATM   11  C1  UNL     1      22.363  -1.020  54.918  1.00  0.00     0.050 C 
HETATM   12  C3  UNL     1      20.102  -0.929  53.764  1.00  0.00     0.012 A 
HETATM   13  C4  UNL     1      19.282  -0.512  52.736  1.00  0.00     0.043 A 
HETATM   14  C5  UNL     1      19.799   0.261  51.740  1.00  0.00     0.118 A 
HETATM   15  F1  UNL     1      19.072   0.719  50.689  1.00  0.00    -0.206 F 
HETATM   16  C6  UNL     1      21.156   0.589  51.825  1.00  0.00     0.072 A 
ENDBRANCH   7   9
ENDBRANCH   6   7
ENDBRANCH   1   6
BRANCH   5  17
HETATM   17  C12 UNL     1      26.715   1.901  53.705  1.00  0.00     0.165 C 
BRANCH  17  18
HETATM   18  C13 UNL     1      27.466   0.589  53.723  1.00  0.00    -0.037 C 
HETATM   19  C14 UNL     1      27.048  -0.515  53.105  1.00  0.00    -0.006 C 
BRANCH  19  20
HETATM   20  C15 UNL     1      27.298  -1.932  52.784  1.00  0.00     0.142 C 
HETATM   21 CL1  UNL     1      28.973  -2.454  53.106  1.00  0.00    -0.126 Cl
ENDBRANCH  19  20
BRANCH  18  22
HETATM   22  C16 UNL     1      28.739   0.614  54.513  1.00  0.00     0.302 C 
BRANCH  22  23
HETATM   23  N4  UNL     1      29.391   1.896  54.462  1.00  0.00     0.082 N 
HETATM   24  H19 UNL     1      30.431   1.832  54.436  1.00  0.00     0.313 HD
HETATM   25  H20 UNL     1      29.012   2.457  53.663  1.00  0.00     0.313 HD
ENDBRANCH  22  23
ENDBRANCH  18  22
ENDBRANCH  17  18
ENDBRANCH   5  17
TORSDOF 8
ENDMDL
MODEL 7
REMARK VINA RESULT:      -6.6      4.764      6.407
REMARK  8 active torsions:
REMARK  status: ('A' for Active; 'I' for Inactive)
REMARK    1  A    between atoms: C7_8  and  N1_9 
REMARK    2  A    between atoms: N1_9  and  C8_10 
REMARK    3  A    between atoms: C8_10  and  C9_11 
REMARK    4  A    between atoms: N3_15  and  C12_16 
REMARK    5  A    between atoms: C12_16  and  C13_17 
REMARK    6  A    between atoms: C13_17  and  C16_21 
REMARK    7  A    between atoms: C14_18  and  C15_19 
REMARK    8  A    between atoms: C16_21  and  N4_22 
ROOT
HETATM    1  C9  UNL     1      23.613   1.797  51.966  1.00  0.00     0.048 A 
HETATM    2  C10 UNL     1      23.997   3.021  51.466  1.00  0.00     0.144 A 
HETATM    3  N2  UNL     1      23.062   3.347  50.555  1.00  0.00    -0.254 NA
HETATM    4  C11 UNL     1      22.169   2.355  50.524  1.00  0.00     0.209 A 
HETATM    5  N3  UNL     1      22.459   1.363  51.380  1.00  0.00    -0.338 N 
ENDROOT
BRANCH   1   6
HETATM    6  C8  UNL     1      24.463   1.151  53.018  1.00  0.00     0.178 C 
BRANCH   6   7
HETATM    7  N1  UNL     1      25.436   0.336  52.339  1.00  0.00    -0.384 N 
HETATM    8  H7  UNL     1      25.220  -0.260  51.497  1.00  0.00     0.160 HD
BRANCH   7   9
HETATM    9  C7  UNL     1      26.790   0.302  52.800  1.00  0.00     0.037 A 
HETATM   10  C2  UNL     1      27.556  -0.836  52.887  1.00  0.00    -0.035 A 
HETATM   11  C1  UNL     1      26.876  -2.107  52.459  1.00  0.00     0.050 C 
HETATM   12  C3  UNL     1      28.855  -0.781  53.343  1.00  0.00     0.012 A 
HETATM   13  C4  UNL     1      29.444   0.405  53.727  1.00  0.00     0.043 A 
HETATM   14  C5  UNL     1      28.726   1.561  53.659  1.00  0.00     0.118 A 
HETATM   15  F1  UNL     1      29.218   2.775  54.014  1.00  0.00    -0.206 F 
HETATM   16  C6  UNL     1      27.410   1.469  53.192  1.00  0.00     0.072 A 
ENDBRANCH   7   9
ENDBRANCH   6   7
ENDBRANCH   1   6
BRANCH   5  17
HETATM   17  C12 UNL     1      21.885   0.101  51.747  1.00  0.00     0.165 C 
BRANCH  17  18
HETATM   18  C13 UNL     1      20.548   0.231  52.441  1.00  0.00    -0.037 C 
HETATM   19  C14 UNL     1      19.377   0.021  51.840  1.00  0.00    -0.006 C 
BRANCH  19  20
HETATM   20  C15 UNL     1      17.908  -0.010  51.956  1.00  0.00     0.142 C 
HETATM   21 CL1  UNL     1      17.284  -1.469  52.772  1.00  0.00    -0.126 Cl
ENDBRANCH  19  20
BRANCH  18  22
HETATM   22  C16 UNL     1      20.633   0.633  53.881  1.00  0.00     0.302 C 
BRANCH  22  23
HETATM   23  N4  UNL     1      20.708  -0.501  54.763  1.00  0.00     0.082 N 
HETATM   24  H19 UNL     1      21.651  -0.634  55.188  1.00  0.00     0.313 HD
HETATM   25  H20 UNL     1      19.957  -0.437  55.490  1.00  0.00     0.313 HD
ENDBRANCH  22  23
ENDBRANCH  18  22
ENDBRANCH  17  18
ENDBRANCH   5  17
TORSDOF 8
ENDMDL
MODEL 8
REMARK VINA RESULT:      -6.6      3.988      5.581
REMARK  8 active torsions:
REMARK  status: ('A' for Active; 'I' for Inactive)
REMARK    1  A    between atoms: C7_8  and  N1_9 
REMARK    2  A    between atoms: N1_9  and  C8_10 
REMARK    3  A    between atoms: C8_10  and  C9_11 
REMARK    4  A    between atoms: N3_15  and  C12_16 
REMARK    5  A    between atoms: C12_16  and  C13_17 
REMARK    6  A    between atoms: C13_17  and  C16_21 
REMARK    7  A    between atoms: C14_18  and  C15_19 
REMARK    8  A    between atoms: C16_21  and  N4_22 
ROOT
HETATM    1  C9  UNL     1      23.900   3.140  51.986  1.00  0.00     0.048 A 
HETATM    2  C10 UNL     1      23.788   4.398  52.535  1.00  0.00     0.144 A 
HETATM    3  N2  UNL     1      22.474   4.684  52.511  1.00  0.00    -0.254 NA
HETATM    4  C11 UNL     1      21.843   3.638  51.972  1.00  0.00     0.209 A 
HETATM    5  N3  UNL     1      22.679   2.647  51.626  1.00  0.00    -0.338 N 
ENDROOT
BRANCH   1   6
HETATM    6  C8  UNL     1      25.261   2.525  51.868  1.00  0.00     0.178 C 
BRANCH   6   7
HETATM    7  N1  UNL     1      25.469   1.721  53.045  1.00  0.00    -0.384 N 
HETATM    8  H7  UNL     1      24.708   1.474  53.731  1.00  0.00     0.160 HD
BRANCH   7   9
HETATM    9  C7  UNL     1      26.770   1.205  53.340  1.00  0.00     0.037 A 
HETATM   10  C2  UNL     1      27.143  -0.109  53.178  1.00  0.00    -0.035 A 
HETATM   11  C1  UNL     1      26.073  -1.025  52.653  1.00  0.00     0.050 C 
HETATM   12  C3  UNL     1      28.420  -0.524  53.487  1.00  0.00     0.012 A 
HETATM   13  C4  UNL     1      29.375   0.348  53.967  1.00  0.00     0.043 A 
HETATM   14  C5  UNL     1      29.053   1.659  54.145  1.00  0.00     0.118 A 
HETATM   15  F1  UNL     1      29.923   2.591  54.611  1.00  0.00    -0.206 F 
HETATM   16  C6  UNL     1      27.748   2.047  53.822  1.00  0.00     0.072 A 
ENDBRANCH   7   9
ENDBRANCH   6   7
ENDBRANCH   1   6
BRANCH   5  17
HETATM   17  C12 UNL     1      22.566   1.350  51.023  1.00  0.00     0.165 C 
BRANCH  17  18
HETATM   18  C13 UNL     1      21.735   0.384  51.835  1.00  0.00    -0.037 C 
HETATM   19  C14 UNL     1      22.198  -0.291  52.887  1.00  0.00    -0.006 C 
BRANCH  19  20
HETATM   20  C15 UNL     1      21.922  -1.261  53.963  1.00  0.00     0.142 C 
HETATM   21 CL1  UNL     1      23.174  -1.298  55.233  1.00  0.00    -0.126 Cl
ENDBRANCH  19  20
BRANCH  18  22
HETATM   22  C16 UNL     1      20.324   0.225  51.358  1.00  0.00     0.302 C 
BRANCH  22  23
HETATM   23  N4  UNL     1      19.376   0.879  52.222  1.00  0.00     0.082 N 
HETATM   24  H19 UNL     1      19.821   1.512  52.921  1.00  0.00     0.313 HD
HETATM   25  H20 UNL     1      18.654   1.375  51.648  1.00  0.00     0.313 HD
ENDBRANCH  22  23
ENDBRANCH  18  22
ENDBRANCH  17  18
ENDBRANCH   5  17
TORSDOF 8
ENDMDL
MODEL 9
REMARK VINA RESULT:      -6.5      2.253      2.975
REMARK  8 active torsions:
REMARK  status: ('A' for Active; 'I' for Inactive)
REMARK    1  A    between atoms: C7_8  and  N1_9 
REMARK    2  A    between atoms: N1_9  and  C8_10 
REMARK    3  A    between atoms: C8_10  and  C9_11 
REMARK    4  A    between atoms: N3_15  and  C12_16 
REMARK    5  A    between atoms: C12_16  and  C13_17 
REMARK    6  A    between atoms: C13_17  and  C16_21 
REMARK    7  A    between atoms: C14_18  and  C15_19 
REMARK    8  A    between atoms: C16_21  and  N4_22 
ROOT
HETATM    1  C9  UNL     1      24.179   2.082  51.723  1.00  0.00     0.048 A 
HETATM    2  C10 UNL     1      23.075   1.286  51.521  1.00  0.00     0.144 A 
HETATM    3  N2  UNL     1      22.604   1.624  50.308  1.00  0.00    -0.254 NA
HETATM    4  C11 UNL     1      23.400   2.579  49.819  1.00  0.00     0.209 A 
HETATM    5  N3  UNL     1      24.398   2.905  50.655  1.00  0.00    -0.338 N 
ENDROOT
BRANCH   1   6
HETATM    6  C8  UNL     1      24.942   1.945  53.006  1.00  0.00     0.178 C 
BRANCH   6   7
HETATM    7  N1  UNL     1      25.495   0.616  53.032  1.00  0.00    -0.384 N 
HETATM    8  H7  UNL     1      24.929  -0.261  52.881  1.00  0.00     0.160 HD
BRANCH   7   9
HETATM    9  C7  UNL     1      26.892   0.425  53.275  1.00  0.00     0.037 A 
HETATM   10  C2  UNL     1      27.574  -0.744  53.031  1.00  0.00    -0.035 A 
HETATM   11  C1  UNL     1      26.747  -1.870  52.473  1.00  0.00     0.050 C 
HETATM   12  C3  UNL     1      28.922  -0.844  53.294  1.00  0.00     0.012 A 
HETATM   13  C4  UNL     1      29.646   0.212  53.806  1.00  0.00     0.043 A 
HETATM   14  C5  UNL     1      29.016   1.391  54.064  1.00  0.00     0.118 A 
HETATM   15  F1  UNL     1      29.642   2.485  54.569  1.00  0.00    -0.206 F 
HETATM   16  C6  UNL     1      27.646   1.459  53.787  1.00  0.00     0.072 A 
ENDBRANCH   7   9
ENDBRANCH   6   7
ENDBRANCH   1   6
BRANCH   5  17
HETATM   17  C12 UNL     1      25.495   3.830  50.660  1.00  0.00     0.165 C 
BRANCH  17  18
HETATM   18  C13 UNL     1      25.131   5.192  50.115  1.00  0.00    -0.037 C 
HETATM   19  C14 UNL     1      25.752   5.771  49.089  1.00  0.00    -0.006 C 
BRANCH  19  20
HETATM   20  C15 UNL     1      25.855   6.940  48.196  1.00  0.00     0.142 C 
HETATM   21 CL1  UNL     1      24.331   7.338  47.359  1.00  0.00    -0.126 Cl
ENDBRANCH  19  20
BRANCH  18  22
HETATM   22  C16 UNL     1      24.002   5.866  50.833  1.00  0.00     0.302 C 
BRANCH  22  23
HETATM   23  N4  UNL     1      24.282   6.066  52.230  1.00  0.00     0.082 N 
HETATM   24  H19 UNL     1      24.683   7.005  52.442  1.00  0.00     0.313 HD
HETATM   25  H20 UNL     1      23.424   5.869  52.798  1.00  0.00     0.313 HD
ENDBRANCH  22  23
ENDBRANCH  18  22
ENDBRANCH  17  18
ENDBRANCH   5  17
TORSDOF 8
ENDMDL
