MODEL 1
REMARK VINA RESULT:      -7.8      0.000      0.000
REMARK  0 active torsions:
REMARK  status: ('A' for Active; 'I' for Inactive)
ROOT
HETATM    1  O1  UNL     1      20.820   2.028  48.068  1.00  0.00    -0.298 OA
HETATM    2  C1  UNL     1      20.339   2.341  49.182  1.00  0.00     0.130 C 
HETATM    3  C2  UNL     1      19.582   1.201  49.811  1.00  0.00     0.105 C 
HETATM    4  C3  UNL     1      20.508   0.592  50.859  1.00  0.00    -0.021 C 
HETATM    5  C4  UNL     1      20.781   0.256  52.104  1.00  0.00    -0.004 C 
HETATM    6  C5  UNL     1      22.066  -0.406  52.552  1.00  0.00     0.202 C 
HETATM    7  O2  UNL     1      22.691   0.476  53.494  1.00  0.00    -0.351 OA
HETATM    8  C6  UNL     1      24.042   0.791  53.375  1.00  0.00     0.053 C 
HETATM    9  C7  UNL     1      24.046   1.965  52.815  1.00  0.00    -0.042 C 
HETATM   10  C8  UNL     1      22.727   2.572  52.501  1.00  0.00     0.030 C 
HETATM   11  C9  UNL     1      22.202   3.780  52.171  1.00  0.00    -0.001 C 
HETATM   12  C10 UNL     1      20.750   3.933  51.934  1.00  0.00     0.006 C 
HETATM   13  C11 UNL     1      20.338   4.434  50.606  1.00  0.00     0.008 C 
HETATM   14  C12 UNL     1      20.748   3.723  49.383  1.00  0.00     0.078 C 
HETATM   15  C13 UNL     1      25.435   2.470  52.586  1.00  0.00     0.064 C 
HETATM   16  C14 UNL     1      26.229   1.628  51.677  1.00  0.00    -0.022 C 
HETATM   17  C15 UNL     1      26.745   0.416  51.647  1.00  0.00    -0.004 C 
HETATM   18  C16 UNL     1      26.679  -0.641  52.676  1.00  0.00    -0.004 C 
HETATM   19  C17 UNL     1      25.734  -0.971  53.570  1.00  0.00    -0.020 C 
HETATM   20  C18 UNL     1      24.353  -0.536  54.017  1.00  0.00     0.092 C 
ENDROOT
TORSDOF 0
ENDMDL
MODEL 2
REMARK VINA RESULT:      -7.6      2.233      4.300
REMARK  0 active torsions:
REMARK  status: ('A' for Active; 'I' for Inactive)
ROOT
HETATM    1  O1  UNL     1      21.721   6.324  51.209  1.00  0.00    -0.298 OA
HETATM    2  C1  UNL     1      22.524   5.709  50.471  1.00  0.00     0.130 C 
HETATM    3  C2  UNL     1      23.929   5.742  51.012  1.00  0.00     0.105 C 
HETATM    4  C3  UNL     1      24.168   4.391  51.678  1.00  0.00    -0.021 C 
HETATM    5  C4  UNL     1      24.836   3.259  51.790  1.00  0.00    -0.004 C 
HETATM    6  C5  UNL     1      24.521   2.172  52.794  1.00  0.00     0.202 C 
HETATM    7  O2  UNL     1      24.204   0.987  52.050  1.00  0.00    -0.351 OA
HETATM    8  C6  UNL     1      23.066   0.246  52.358  1.00  0.00     0.053 C 
HETATM    9  C7  UNL     1      22.198   0.610  51.460  1.00  0.00    -0.042 C 
HETATM   10  C8  UNL     1      22.638   1.615  50.459  1.00  0.00     0.030 C 
HETATM   11  C9  UNL     1      22.242   2.113  49.259  1.00  0.00    -0.001 C 
HETATM   12  C10 UNL     1      23.030   3.168  48.583  1.00  0.00     0.006 C 
HETATM   13  C11 UNL     1      22.334   4.438  48.290  1.00  0.00     0.008 C 
HETATM   14  C12 UNL     1      21.706   5.210  49.375  1.00  0.00     0.078 C 
HETATM   15  C13 UNL     1      20.883  -0.080  51.643  1.00  0.00     0.064 C 
HETATM   16  C14 UNL     1      20.230   0.220  52.927  1.00  0.00    -0.022 C 
HETATM   17  C15 UNL     1      20.432   0.013  54.212  1.00  0.00    -0.004 C 
HETATM   18  C16 UNL     1      21.549  -0.695  54.869  1.00  0.00    -0.004 C 
HETATM   19  C17 UNL     1      22.849  -0.813  54.558  1.00  0.00    -0.020 C 
HETATM   20  C18 UNL     1      23.837  -0.364  53.500  1.00  0.00     0.092 C 
ENDROOT
TORSDOF 0
ENDMDL
MODEL 3
REMARK VINA RESULT:      -7.1      1.810      6.076
REMARK  0 active torsions:
REMARK  status: ('A' for Active; 'I' for Inactive)
ROOT
HETATM    1  O1  UNL     1      26.216   0.740  56.108  1.00  0.00    -0.298 OA
HETATM    2  C1  UNL     1      26.237  -0.001  55.099  1.00  0.00     0.130 C 
HETATM    3  C2  UNL     1      25.102  -0.992  55.102  1.00  0.00     0.105 C 
HETATM    4  C3  UNL     1      24.046  -0.443  54.148  1.00  0.00    -0.021 C 
HETATM    5  C4  UNL     1      23.292  -0.552  53.072  1.00  0.00    -0.004 C 
HETATM    6  C5  UNL     1      22.314   0.502  52.599  1.00  0.00     0.202 C 
HETATM    7  O2  UNL     1      22.735   0.913  51.290  1.00  0.00    -0.351 OA
HETATM    8  C6  UNL     1      22.837   2.266  50.976  1.00  0.00     0.053 C 
HETATM    9  C7  UNL     1      24.110   2.518  51.073  1.00  0.00    -0.042 C 
HETATM   10  C8  UNL     1      24.998   1.390  51.452  1.00  0.00     0.030 C 
HETATM   11  C9  UNL     1      26.320   1.076  51.451  1.00  0.00    -0.001 C 
HETATM   12  C10 UNL     1      26.784  -0.237  51.949  1.00  0.00     0.006 C 
HETATM   13  C11 UNL     1      27.741  -0.226  53.075  1.00  0.00     0.008 C 
HETATM   14  C12 UNL     1      27.394   0.446  54.339  1.00  0.00     0.078 C 
HETATM   15  C13 UNL     1      24.418   3.953  50.783  1.00  0.00     0.064 C 
HETATM   16  C14 UNL     1      23.785   4.896  51.719  1.00  0.00    -0.022 C 
HETATM   17  C15 UNL     1      22.575   5.300  52.049  1.00  0.00    -0.004 C 
HETATM   18  C16 UNL     1      21.275   4.869  51.500  1.00  0.00    -0.004 C 
HETATM   19  C17 UNL     1      20.844   3.691  51.022  1.00  0.00    -0.020 C 
HETATM   20  C18 UNL     1      21.342   2.280  50.785  1.00  0.00     0.092 C 
ENDROOT
TORSDOF 0
ENDMDL
MODEL 4
REMARK VINA RESULT:      -7.0      9.815     11.620
REMARK  0 active torsions:
REMARK  status: ('A' for Active; 'I' for Inactive)
ROOT
HETATM    1  O1  UNL     1      27.663   7.283  48.345  1.00  0.00    -0.298 OA
HETATM    2  C1  UNL     1      28.415   8.165  47.870  1.00  0.00     0.130 C 
HETATM    3  C2  UNL     1      29.188   8.887  48.942  1.00  0.00     0.105 C 
HETATM    4  C3  UNL     1      30.592   8.290  48.939  1.00  0.00    -0.021 C 
HETATM    5  C4  UNL     1      31.899   8.411  48.811  1.00  0.00    -0.004 C 
HETATM    6  C5  UNL     1      32.883   7.268  48.930  1.00  0.00     0.202 C 
HETATM    7  O2  UNL     1      33.570   7.167  47.675  1.00  0.00    -0.351 OA
HETATM    8  C6  UNL     1      33.710   5.933  47.046  1.00  0.00     0.053 C 
HETATM    9  C7  UNL     1      32.785   5.937  46.132  1.00  0.00    -0.042 C 
HETATM   10  C8  UNL     1      31.932   7.148  46.034  1.00  0.00     0.030 C 
HETATM   11  C9  UNL     1      31.058   7.725  45.168  1.00  0.00    -0.001 C 
HETATM   12  C10 UNL     1      30.403   9.009  45.500  1.00  0.00     0.006 C 
HETATM   13  C11 UNL     1      28.926   9.016  45.541  1.00  0.00     0.008 C 
HETATM   14  C12 UNL     1      28.202   8.093  46.432  1.00  0.00     0.078 C 
HETATM   15  C13 UNL     1      32.768   4.661  45.349  1.00  0.00     0.064 C 
HETATM   16  C14 UNL     1      32.474   3.471  46.163  1.00  0.00    -0.022 C 
HETATM   17  C15 UNL     1      33.026   2.778  47.138  1.00  0.00    -0.004 C 
HETATM   18  C16 UNL     1      34.311   3.013  47.827  1.00  0.00    -0.004 C 
HETATM   19  C17 UNL     1      34.976   4.138  48.133  1.00  0.00    -0.020 C 
HETATM   20  C18 UNL     1      34.849   5.641  47.989  1.00  0.00     0.092 C 
ENDROOT
TORSDOF 0
ENDMDL
MODEL 5
REMARK VINA RESULT:      -6.9      9.765     11.592
REMARK  0 active torsions:
REMARK  status: ('A' for Active; 'I' for Inactive)
ROOT
HETATM    1  O1  UNL     1      28.323  13.226  49.625  1.00  0.00    -0.298 OA
HETATM    2  C1  UNL     1      29.132  12.967  48.705  1.00  0.00     0.130 C 
HETATM    3  C2  UNL     1      30.442  12.444  49.233  1.00  0.00     0.105 C 
HETATM    4  C3  UNL     1      30.407  10.930  49.051  1.00  0.00    -0.021 C 
HETATM    5  C4  UNL     1      30.899   9.815  48.546  1.00  0.00    -0.004 C 
HETATM    6  C5  UNL     1      30.308   8.439  48.767  1.00  0.00     0.202 C 
HETATM    7  O2  UNL     1      29.944   7.923  47.479  1.00  0.00    -0.351 OA
HETATM    8  C6  UNL     1      28.687   7.358  47.277  1.00  0.00     0.053 C 
HETATM    9  C7  UNL     1      28.006   8.301  46.694  1.00  0.00    -0.042 C 
HETATM   10  C8  UNL     1      28.707   9.584  46.436  1.00  0.00     0.030 C 
HETATM   11  C9  UNL     1      28.549  10.713  45.696  1.00  0.00    -0.001 C 
HETATM   12  C10 UNL     1      29.554  11.797  45.750  1.00  0.00     0.006 C 
HETATM   13  C11 UNL     1      29.078  13.129  46.179  1.00  0.00     0.008 C 
HETATM   14  C12 UNL     1      28.413  13.297  47.482  1.00  0.00     0.078 C 
HETATM   15  C13 UNL     1      26.599   7.879  46.409  1.00  0.00     0.064 C 
HETATM   16  C14 UNL     1      25.821   7.556  47.616  1.00  0.00    -0.022 C 
HETATM   17  C15 UNL     1      25.816   6.658  48.579  1.00  0.00    -0.004 C 
HETATM   18  C16 UNL     1      26.729   5.516  48.783  1.00  0.00    -0.004 C 
HETATM   19  C17 UNL     1      28.033   5.345  48.513  1.00  0.00    -0.020 C 
HETATM   20  C18 UNL     1      29.207   6.100  47.924  1.00  0.00     0.092 C 
ENDROOT
TORSDOF 0
ENDMDL
MODEL 6
REMARK VINA RESULT:      -6.9      2.481      4.624
REMARK  0 active torsions:
REMARK  status: ('A' for Active; 'I' for Inactive)
ROOT
HETATM    1  O1  UNL     1      19.602   6.894  49.705  1.00  0.00    -0.298 OA
HETATM    2  C1  UNL     1      20.806   6.781  49.379  1.00  0.00     0.130 C 
HETATM    3  C2  UNL     1      21.733   7.304  50.446  1.00  0.00     0.105 C 
HETATM    4  C3  UNL     1      22.263   6.086  51.194  1.00  0.00    -0.021 C 
HETATM    5  C4  UNL     1      23.258   5.324  51.604  1.00  0.00    -0.004 C 
HETATM    6  C5  UNL     1      23.092   4.064  52.427  1.00  0.00     0.202 C 
HETATM    7  O2  UNL     1      23.633   2.982  51.656  1.00  0.00    -0.351 OA
HETATM    8  C6  UNL     1      22.910   1.802  51.497  1.00  0.00     0.053 C 
HETATM    9  C7  UNL     1      22.385   1.910  50.311  1.00  0.00    -0.042 C 
HETATM   10  C8  UNL     1      22.687   3.146  49.545  1.00  0.00     0.030 C 
HETATM   11  C9  UNL     1      22.603   3.615  48.273  1.00  0.00    -0.001 C 
HETATM   12  C10 UNL     1      23.044   4.988  47.945  1.00  0.00     0.006 C 
HETATM   13  C11 UNL     1      22.035   5.891  47.352  1.00  0.00     0.008 C 
HETATM   14  C12 UNL     1      20.773   6.163  48.062  1.00  0.00     0.078 C 
HETATM   15  C13 UNL     1      21.543   0.723  49.963  1.00  0.00     0.064 C 
HETATM   16  C14 UNL     1      20.391   0.531  50.859  1.00  0.00    -0.022 C 
HETATM   17  C15 UNL     1      20.157   0.233  52.120  1.00  0.00    -0.004 C 
HETATM   18  C16 UNL     1      21.127  -0.046  53.198  1.00  0.00    -0.004 C 
HETATM   19  C17 UNL     1      22.357   0.427  53.449  1.00  0.00    -0.020 C 
HETATM   20  C18 UNL     1      23.370   1.396  52.873  1.00  0.00     0.092 C 
ENDROOT
TORSDOF 0
ENDMDL
MODEL 7
REMARK VINA RESULT:      -6.8      2.458      3.051
REMARK  0 active torsions:
REMARK  status: ('A' for Active; 'I' for Inactive)
ROOT
HETATM    1  O1  UNL     1      25.088   5.694  48.327  1.00  0.00    -0.298 OA
HETATM    2  C1  UNL     1      24.006   5.722  48.957  1.00  0.00     0.130 C 
HETATM    3  C2  UNL     1      22.975   4.806  48.351  1.00  0.00     0.105 C 
HETATM    4  C3  UNL     1      22.954   3.548  49.213  1.00  0.00    -0.021 C 
HETATM    5  C4  UNL     1      22.323   2.693  49.994  1.00  0.00    -0.004 C 
HETATM    6  C5  UNL     1      22.964   1.480  50.633  1.00  0.00     0.202 C 
HETATM    7  O2  UNL     1      22.848   1.639  52.054  1.00  0.00    -0.351 OA
HETATM    8  C6  UNL     1      23.954   1.441  52.877  1.00  0.00     0.053 C 
HETATM    9  C7  UNL     1      24.374   2.644  53.137  1.00  0.00    -0.042 C 
HETATM   10  C8  UNL     1      23.617   3.772  52.538  1.00  0.00     0.030 C 
HETATM   11  C9  UNL     1      23.491   5.118  52.678  1.00  0.00    -0.001 C 
HETATM   12  C10 UNL     1      22.564   5.883  51.816  1.00  0.00     0.006 C 
HETATM   13  C11 UNL     1      23.151   6.961  50.993  1.00  0.00     0.008 C 
HETATM   14  C12 UNL     1      24.237   6.663  50.043  1.00  0.00     0.078 C 
HETATM   15  C13 UNL     1      25.590   2.635  54.010  1.00  0.00     0.064 C 
HETATM   16  C14 UNL     1      26.750   1.964  53.403  1.00  0.00    -0.022 C 
HETATM   17  C15 UNL     1      27.107   0.755  53.022  1.00  0.00    -0.004 C 
HETATM   18  C16 UNL     1      26.335  -0.502  53.096  1.00  0.00    -0.004 C 
HETATM   19  C17 UNL     1      25.022  -0.762  52.989  1.00  0.00    -0.020 C 
HETATM   20  C18 UNL     1      23.709  -0.041  52.760  1.00  0.00     0.092 C 
ENDROOT
TORSDOF 0
ENDMDL
MODEL 8
REMARK VINA RESULT:      -6.6      9.219     10.985
REMARK  0 active torsions:
REMARK  status: ('A' for Active; 'I' for Inactive)
ROOT
HETATM    1  O1  UNL     1      28.106   9.471  45.585  1.00  0.00    -0.298 OA
HETATM    2  C1  UNL     1      28.234   9.334  46.823  1.00  0.00     0.130 C 
HETATM    3  C2  UNL     1      27.419   8.183  47.352  1.00  0.00     0.105 C 
HETATM    4  C3  UNL     1      28.388   7.023  47.553  1.00  0.00    -0.021 C 
HETATM    5  C4  UNL     1      28.975   6.126  48.322  1.00  0.00    -0.004 C 
HETATM    6  C5  UNL     1      30.002   5.124  47.842  1.00  0.00     0.202 C 
HETATM    7  O2  UNL     1      31.211   5.374  48.573  1.00  0.00    -0.351 OA
HETATM    8  C6  UNL     1      32.429   5.470  47.905  1.00  0.00     0.053 C 
HETATM    9  C7  UNL     1      32.641   6.751  47.817  1.00  0.00    -0.042 C 
HETATM   10  C8  UNL     1      31.617   7.651  48.404  1.00  0.00     0.030 C 
HETATM   11  C9  UNL     1      31.478   8.951  48.774  1.00  0.00    -0.001 C 
HETATM   12  C10 UNL     1      30.206   9.440  49.349  1.00  0.00     0.006 C 
HETATM   13  C11 UNL     1      29.529  10.542  48.633  1.00  0.00     0.008 C 
HETATM   14  C12 UNL     1      29.156  10.390  47.216  1.00  0.00     0.078 C 
HETATM   15  C13 UNL     1      33.919   7.057  47.100  1.00  0.00     0.064 C 
HETATM   16  C14 UNL     1      33.945   6.584  45.707  1.00  0.00    -0.022 C 
HETATM   17  C15 UNL     1      33.937   5.443  45.049  1.00  0.00    -0.004 C 
HETATM   18  C16 UNL     1      33.894   4.068  45.585  1.00  0.00    -0.004 C 
HETATM   19  C17 UNL     1      33.311   3.543  46.675  1.00  0.00    -0.020 C 
HETATM   20  C18 UNL     1      32.462   3.964  47.857  1.00  0.00     0.092 C 
ENDROOT
TORSDOF 0
ENDMDL
MODEL 9
REMARK VINA RESULT:      -6.5      9.987     12.812
REMARK  0 active torsions:
REMARK  status: ('A' for Active; 'I' for Inactive)
ROOT
HETATM    1  O1  UNL     1      32.706   6.244  42.726  1.00  0.00    -0.298 OA
HETATM    2  C1  UNL     1      33.550   6.133  43.645  1.00  0.00     0.130 C 
HETATM    3  C2  UNL     1      34.262   7.432  43.918  1.00  0.00     0.105 C 
HETATM    4  C3  UNL     1      33.614   8.026  45.164  1.00  0.00    -0.021 C 
HETATM    5  C4  UNL     1      33.685   8.466  46.406  1.00  0.00    -0.004 C 
HETATM    6  C5  UNL     1      32.508   8.994  47.197  1.00  0.00     0.202 C 
HETATM    7  O2  UNL     1      32.359   8.150  48.348  1.00  0.00    -0.351 OA
HETATM    8  C6  UNL     1      31.109   7.642  48.691  1.00  0.00     0.053 C 
HETATM    9  C7  UNL     1      31.130   6.420  48.243  1.00  0.00    -0.042 C 
HETATM   10  C8  UNL     1      32.370   5.968  47.563  1.00  0.00     0.030 C 
HETATM   11  C9  UNL     1      32.963   4.812  47.164  1.00  0.00    -0.001 C 
HETATM   12  C10 UNL     1      34.276   4.833  46.484  1.00  0.00     0.006 C 
HETATM   13  C11 UNL     1      34.339   4.241  45.131  1.00  0.00     0.008 C 
HETATM   14  C12 UNL     1      33.460   4.741  44.060  1.00  0.00     0.078 C 
HETATM   15  C13 UNL     1      29.842   5.706  48.507  1.00  0.00     0.064 C 
HETATM   16  C14 UNL     1      28.679   6.319  47.847  1.00  0.00    -0.022 C 
HETATM   17  C15 UNL     1      27.984   7.437  47.903  1.00  0.00    -0.004 C 
HETATM   18  C16 UNL     1      28.184   8.606  48.782  1.00  0.00    -0.004 C 
HETATM   19  C17 UNL     1      29.288   9.165  49.300  1.00  0.00    -0.020 C 
HETATM   20  C18 UNL     1      30.792   8.980  49.307  1.00  0.00     0.092 C 
ENDROOT
TORSDOF 0
ENDMDL
