MODEL 1
REMARK VINA RESULT:      -9.3      0.000      0.000
REMARK  7 active torsions:
REMARK  status: ('A' for Active; 'I' for Inactive)
REMARK    1  A    between atoms: C1_2  and  N1_4 
REMARK    2  A    between atoms: N1_4  and  C2_5 
REMARK    3  A    between atoms: C2_5  and  C3_6 
REMARK    4  A    between atoms: C4_7  and  N2_8 
REMARK    5  A    between atoms: N2_8  and  C5_9 
REMARK    6  A    between atoms: C5_9  and  C6_11 
REMARK    7  A    between atoms: C11_16  and  C12_17 
ROOT
HETATM    1  C3  UNL     1      25.623   3.819  49.833  1.00  0.00     0.046 C 
HETATM    2  C4  UNL     1      26.343   2.889  50.374  1.00  0.00     0.088 C 
ENDROOT
BRANCH   1   3
HETATM    3  C2  UNL     1      25.282   5.106  50.338  1.00  0.00     0.042 C 
HETATM    4  C17 UNL     1      25.946   6.210  49.887  1.00  0.00    -0.004 C 
HETATM    5  C18 UNL     1      27.109   6.020  48.824  1.00  0.00     0.014 C 
HETATM    6  C22 UNL     1      25.516   7.556  50.429  1.00  0.00     0.157 C 
HETATM    7  C19 UNL     1      27.265   7.002  47.749  1.00  0.00     0.034 C 
HETATM    8  C20 UNL     1      26.711   8.208  48.503  1.00  0.00     0.071 C 
HETATM    9  C21 UNL     1      27.334   9.075  49.285  1.00  0.00     0.115 C 
HETATM   10  N5  UNL     1      25.249   7.779  48.516  1.00  0.00    -0.261 NA
HETATM   11  N4  UNL     1      26.744   8.408  50.468  1.00  0.00    -0.384 N 
HETATM   12  H20 UNL     1      27.136   8.476  51.478  1.00  0.00     0.160 HD
HETATM   13  C23 UNL     1      24.636   8.348  49.451  1.00  0.00     0.120 C 
BRANCH   3  14
HETATM   14  N1  UNL     1      24.267   5.385  51.287  1.00  0.00    -0.334 N 
HETATM   15  H2  UNL     1      24.117   6.395  51.069  1.00  0.00     0.165 HD
BRANCH  14  16
HETATM   16  C1  UNL     1      23.492   4.755  52.323  1.00  0.00     0.458 C 
HETATM   17  F1  UNL     1      24.200   3.884  53.096  1.00  0.00    -0.191 F 
HETATM   18  F2  UNL     1      22.357   4.185  51.773  1.00  0.00    -0.191 F 
ENDBRANCH  14  16
ENDBRANCH   3  14
ENDBRANCH   1   3
BRANCH   2  19
HETATM   19  N2  UNL     1      27.042   2.760  51.597  1.00  0.00    -0.366 N 
HETATM   20  H5  UNL     1      27.918   3.339  51.440  1.00  0.00     0.162 HD
BRANCH  19  21
HETATM   21  C5  UNL     1      26.747   2.059  52.801  1.00  0.00     0.299 C 
HETATM   22  F3  UNL     1      27.154   2.833  53.868  1.00  0.00    -0.222 F 
BRANCH  21  23
HETATM   23  C6  UNL     1      27.336   0.715  52.919  1.00  0.00    -0.018 A 
HETATM   24  C7  UNL     1      28.495   0.459  53.502  1.00  0.00     0.008 A 
HETATM   25  C8  UNL     1      29.003  -0.905  53.573  1.00  0.00    -0.004 A 
HETATM   26  C9  UNL     1      28.207  -1.784  53.017  1.00  0.00    -0.026 A 
HETATM   27  C10 UNL     1      26.907  -1.633  52.342  1.00  0.00     0.041 A 
HETATM   28  C11 UNL     1      26.385  -0.239  52.270  1.00  0.00     0.057 A 
BRANCH  28  29
HETATM   29  C12 UNL     1      25.007  -0.128  52.860  1.00  0.00    -0.032 A 
HETATM   30  C13 UNL     1      24.008   0.664  52.280  1.00  0.00     0.011 A 
HETATM   31  C14 UNL     1      22.755   0.710  52.888  1.00  0.00     0.020 A 
HETATM   32  C15 UNL     1      22.542  -0.024  54.040  1.00  0.00     0.116 A 
HETATM   33  N3  UNL     1      23.508  -0.787  54.596  1.00  0.00    -0.273 NA
HETATM   34  C16 UNL     1      24.732  -0.850  54.027  1.00  0.00     0.124 A 
ENDBRANCH  28  29
ENDBRANCH  21  23
ENDBRANCH  19  21
ENDBRANCH   2  19
TORSDOF 7
ENDMDL
MODEL 2
REMARK VINA RESULT:      -9.0      1.388      3.015
REMARK  7 active torsions:
REMARK  status: ('A' for Active; 'I' for Inactive)
REMARK    1  A    between atoms: C1_2  and  N1_4 
REMARK    2  A    between atoms: N1_4  and  C2_5 
REMARK    3  A    between atoms: C2_5  and  C3_6 
REMARK    4  A    between atoms: C4_7  and  N2_8 
REMARK    5  A    between atoms: N2_8  and  C5_9 
REMARK    6  A    between atoms: C5_9  and  C6_11 
REMARK    7  A    between atoms: C11_16  and  C12_17 
ROOT
HETATM    1  C3  UNL     1      25.803   4.376  49.348  1.00  0.00     0.046 C 
HETATM    2  C4  UNL     1      26.104   3.274  49.956  1.00  0.00     0.088 C 
ENDROOT
BRANCH   1   3
HETATM    3  C2  UNL     1      25.476   5.649  49.896  1.00  0.00     0.042 C 
HETATM    4  C17 UNL     1      26.246   6.735  49.595  1.00  0.00    -0.004 C 
HETATM    5  C18 UNL     1      27.510   6.539  48.657  1.00  0.00     0.014 C 
HETATM    6  C22 UNL     1      25.830   8.071  50.174  1.00  0.00     0.157 C 
HETATM    7  C19 UNL     1      27.841   7.572  47.673  1.00  0.00     0.034 C 
HETATM    8  C20 UNL     1      27.270   8.762  48.438  1.00  0.00     0.071 C 
HETATM    9  C21 UNL     1      27.845   9.541  49.340  1.00  0.00     0.115 C 
HETATM   10  N5  UNL     1      25.795   8.422  48.262  1.00  0.00    -0.261 NA
HETATM   11  N4  UNL     1      27.089   8.843  50.404  1.00  0.00    -0.384 N 
HETATM   12  H20 UNL     1      27.367   8.826  51.453  1.00  0.00     0.160 HD
HETATM   13  C23 UNL     1      25.111   8.971  49.160  1.00  0.00     0.120 C 
BRANCH   3  14
HETATM   14  N1  UNL     1      24.377   5.932  50.744  1.00  0.00    -0.334 N 
HETATM   15  H2  UNL     1      24.346   6.969  50.626  1.00  0.00     0.165 HD
BRANCH  14  16
HETATM   16  C1  UNL     1      23.422   5.283  51.602  1.00  0.00     0.458 C 
HETATM   17  F1  UNL     1      23.876   5.054  52.867  1.00  0.00    -0.191 F 
HETATM   18  F2  UNL     1      22.947   4.139  50.987  1.00  0.00    -0.191 F 
ENDBRANCH  14  16
ENDBRANCH   3  14
ENDBRANCH   1   3
BRANCH   2  19
HETATM   19  N2  UNL     1      26.227   2.888  51.312  1.00  0.00    -0.366 N 
HETATM   20  H5  UNL     1      26.059   3.793  51.840  1.00  0.00     0.162 HD
BRANCH  19  21
HETATM   21  C5  UNL     1      26.504   1.636  51.932  1.00  0.00     0.299 C 
HETATM   22  F3  UNL     1      27.074   0.801  50.993  1.00  0.00    -0.222 F 
BRANCH  21  23
HETATM   23  C6  UNL     1      25.352   0.961  52.551  1.00  0.00    -0.018 A 
HETATM   24  C7  UNL     1      24.132   0.951  52.041  1.00  0.00     0.008 A 
HETATM   25  C8  UNL     1      23.049   0.256  52.724  1.00  0.00    -0.004 A 
HETATM   26  C9  UNL     1      23.424  -0.321  53.838  1.00  0.00    -0.026 A 
HETATM   27  C10 UNL     1      24.734  -0.385  54.510  1.00  0.00     0.041 A 
HETATM   28  C11 UNL     1      25.843   0.325  53.811  1.00  0.00     0.057 A 
BRANCH  28  29
HETATM   29  C12 UNL     1      27.009  -0.586  53.550  1.00  0.00    -0.032 A 
HETATM   30  C13 UNL     1      28.318  -0.250  53.920  1.00  0.00     0.011 A 
HETATM   31  C14 UNL     1      29.344  -1.151  53.644  1.00  0.00     0.020 A 
HETATM   32  C15 UNL     1      29.036  -2.343  53.015  1.00  0.00     0.116 A 
HETATM   33  N3  UNL     1      27.774  -2.665  52.659  1.00  0.00    -0.273 NA
HETATM   34  C16 UNL     1      26.760  -1.809  52.916  1.00  0.00     0.124 A 
ENDBRANCH  28  29
ENDBRANCH  21  23
ENDBRANCH  19  21
ENDBRANCH   2  19
TORSDOF 7
ENDMDL
MODEL 3
REMARK VINA RESULT:      -8.9      2.180      4.106
REMARK  7 active torsions:
REMARK  status: ('A' for Active; 'I' for Inactive)
REMARK    1  A    between atoms: C1_2  and  N1_4 
REMARK    2  A    between atoms: N1_4  and  C2_5 
REMARK    3  A    between atoms: C2_5  and  C3_6 
REMARK    4  A    between atoms: C4_7  and  N2_8 
REMARK    5  A    between atoms: N2_8  and  C5_9 
REMARK    6  A    between atoms: C5_9  and  C6_11 
REMARK    7  A    between atoms: C11_16  and  C12_17 
ROOT
HETATM    1  C3  UNL     1      25.214   3.689  49.841  1.00  0.00     0.046 C 
HETATM    2  C4  UNL     1      26.266   3.158  50.377  1.00  0.00     0.088 C 
ENDROOT
BRANCH   1   3
HETATM    3  C2  UNL     1      24.076   4.270  50.469  1.00  0.00     0.042 C 
HETATM    4  C17 UNL     1      22.849   3.692  50.319  1.00  0.00    -0.004 C 
HETATM    5  C18 UNL     1      22.721   2.394  49.416  1.00  0.00     0.014 C 
HETATM    6  C22 UNL     1      21.681   4.330  51.040  1.00  0.00     0.157 C 
HETATM    7  C19 UNL     1      21.813   1.321  49.826  1.00  0.00     0.034 C 
HETATM    8  C20 UNL     1      20.805   2.191  50.571  1.00  0.00     0.071 C 
HETATM    9  C21 UNL     1      19.735   2.822  50.115  1.00  0.00     0.115 C 
HETATM   10  N5  UNL     1      21.681   2.528  51.771  1.00  0.00    -0.261 NA
HETATM   11  N4  UNL     1      20.477   4.100  50.183  1.00  0.00    -0.384 N 
HETATM   12  H20 UNL     1      20.221   4.997  49.628  1.00  0.00     0.160 HD
HETATM   13  C23 UNL     1      21.281   3.583  52.320  1.00  0.00     0.120 C 
BRANCH   3  14
HETATM   14  N1  UNL     1      24.078   5.426  51.290  1.00  0.00    -0.334 N 
HETATM   15  H2  UNL     1      23.740   4.993  52.177  1.00  0.00     0.165 HD
BRANCH  14  16
HETATM   16  C1  UNL     1      24.375   6.833  51.250  1.00  0.00     0.458 C 
HETATM   17  F1  UNL     1      23.437   7.581  50.604  1.00  0.00    -0.191 F 
HETATM   18  F2  UNL     1      25.651   7.024  50.750  1.00  0.00    -0.191 F 
ENDBRANCH  14  16
ENDBRANCH   3  14
ENDBRANCH   1   3
BRANCH   2  19
HETATM   19  N2  UNL     1      26.703   2.944  51.706  1.00  0.00    -0.366 N 
HETATM   20  H5  UNL     1      27.460   3.676  51.835  1.00  0.00     0.162 HD
BRANCH  19  21
HETATM   21  C5  UNL     1      26.304   2.013  52.708  1.00  0.00     0.299 C 
HETATM   22  F3  UNL     1      26.112   2.700  53.890  1.00  0.00    -0.222 F 
BRANCH  21  23
HETATM   23  C6  UNL     1      27.226   0.889  52.940  1.00  0.00    -0.018 A 
HETATM   24  C7  UNL     1      28.455   1.020  53.409  1.00  0.00     0.008 A 
HETATM   25  C8  UNL     1      29.300  -0.151  53.607  1.00  0.00    -0.004 A 
HETATM   26  C9  UNL     1      28.714  -1.275  53.280  1.00  0.00    -0.026 A 
HETATM   27  C10 UNL     1      27.367  -1.555  52.752  1.00  0.00     0.041 A 
HETATM   28  C11 UNL     1      26.501  -0.359  52.550  1.00  0.00     0.057 A 
BRANCH  28  29
HETATM   29  C12 UNL     1      25.194  -0.488  53.281  1.00  0.00    -0.032 A 
HETATM   30  C13 UNL     1      23.967  -0.193  52.674  1.00  0.00     0.011 A 
HETATM   31  C14 UNL     1      22.799  -0.340  53.420  1.00  0.00     0.020 A 
HETATM   32  C15 UNL     1      22.892  -0.770  54.731  1.00  0.00     0.116 A 
HETATM   33  N3  UNL     1      24.077  -1.054  55.313  1.00  0.00    -0.273 NA
HETATM   34  C16 UNL     1      25.225  -0.919  54.612  1.00  0.00     0.124 A 
ENDBRANCH  28  29
ENDBRANCH  21  23
ENDBRANCH  19  21
ENDBRANCH   2  19
TORSDOF 7
ENDMDL
MODEL 4
REMARK VINA RESULT:      -8.9      1.518      1.834
REMARK  7 active torsions:
REMARK  status: ('A' for Active; 'I' for Inactive)
REMARK    1  A    between atoms: C1_2  and  N1_4 
REMARK    2  A    between atoms: N1_4  and  C2_5 
REMARK    3  A    between atoms: C2_5  and  C3_6 
REMARK    4  A    between atoms: C4_7  and  N2_8 
REMARK    5  A    between atoms: N2_8  and  C5_9 
REMARK    6  A    between atoms: C5_9  and  C6_11 
REMARK    7  A    between atoms: C11_16  and  C12_17 
ROOT
HETATM    1  C3  UNL     1      25.571   4.120  49.411  1.00  0.00     0.046 C 
HETATM    2  C4  UNL     1      25.422   3.261  50.367  1.00  0.00     0.088 C 
ENDROOT
BRANCH   1   3
HETATM    3  C2  UNL     1      25.557   5.544  49.466  1.00  0.00     0.042 C 
HETATM    4  C17 UNL     1      26.692   6.245  49.181  1.00  0.00    -0.004 C 
HETATM    5  C18 UNL     1      28.014   5.445  48.820  1.00  0.00     0.014 C 
HETATM    6  C22 UNL     1      26.610   7.756  49.217  1.00  0.00     0.157 C 
HETATM    7  C19 UNL     1      28.906   5.963  47.781  1.00  0.00     0.034 C 
HETATM    8  C20 UNL     1      28.587   7.444  47.970  1.00  0.00     0.071 C 
HETATM    9  C21 UNL     1      29.139   8.330  48.782  1.00  0.00     0.115 C 
HETATM   10  N5  UNL     1      27.179   7.419  47.389  1.00  0.00    -0.261 NA
HETATM   11  N4  UNL     1      27.952   8.243  49.661  1.00  0.00    -0.384 N 
HETATM   12  H20 UNL     1      27.933   8.527  50.708  1.00  0.00     0.160 HD
HETATM   13  C23 UNL     1      26.511   8.389  47.822  1.00  0.00     0.120 C 
BRANCH   3  14
HETATM   14  N1  UNL     1      24.436   6.353  49.780  1.00  0.00    -0.334 N 
HETATM   15  H2  UNL     1      24.207   6.689  48.818  1.00  0.00     0.165 HD
BRANCH  14  16
HETATM   16  C1  UNL     1      23.636   6.782  50.895  1.00  0.00     0.458 C 
HETATM   17  F1  UNL     1      23.685   8.123  51.132  1.00  0.00    -0.191 F 
HETATM   18  F2  UNL     1      23.951   6.027  52.011  1.00  0.00    -0.191 F 
ENDBRANCH  14  16
ENDBRANCH   3  14
ENDBRANCH   1   3
BRANCH   2  19
HETATM   19  N2  UNL     1      25.198   3.353  51.760  1.00  0.00    -0.366 N 
HETATM   20  H5  UNL     1      25.070   4.395  51.919  1.00  0.00     0.162 HD
BRANCH  19  21
HETATM   21  C5  UNL     1      25.139   2.370  52.790  1.00  0.00     0.299 C 
HETATM   22  F3  UNL     1      24.881   3.007  53.987  1.00  0.00    -0.222 F 
BRANCH  21  23
HETATM   23  C6  UNL     1      26.334   1.523  52.934  1.00  0.00    -0.018 A 
HETATM   24  C7  UNL     1      27.524   1.971  53.297  1.00  0.00     0.008 A 
HETATM   25  C8  UNL     1      28.654   1.058  53.414  1.00  0.00    -0.004 A 
HETATM   26  C9  UNL     1      28.349  -0.184  53.131  1.00  0.00    -0.026 A 
HETATM   27  C10 UNL     1      27.079  -0.806  52.720  1.00  0.00     0.041 A 
HETATM   28  C11 UNL     1      25.922   0.125  52.601  1.00  0.00     0.057 A 
BRANCH  28  29
HETATM   29  C12 UNL     1      24.758  -0.321  53.441  1.00  0.00    -0.032 A 
HETATM   30  C13 UNL     1      23.437  -0.265  52.978  1.00  0.00     0.011 A 
HETATM   31  C14 UNL     1      22.415  -0.701  53.818  1.00  0.00     0.020 A 
HETATM   32  C15 UNL     1      22.738  -1.171  55.078  1.00  0.00     0.116 A 
HETATM   33  N3  UNL     1      24.013  -1.224  55.521  1.00  0.00    -0.273 NA
HETATM   34  C16 UNL     1      25.023  -0.807  54.726  1.00  0.00     0.124 A 
ENDBRANCH  28  29
ENDBRANCH  21  23
ENDBRANCH  19  21
ENDBRANCH   2  19
TORSDOF 7
ENDMDL
MODEL 5
REMARK VINA RESULT:      -8.8      2.668      4.845
REMARK  7 active torsions:
REMARK  status: ('A' for Active; 'I' for Inactive)
REMARK    1  A    between atoms: C1_2  and  N1_4 
REMARK    2  A    between atoms: N1_4  and  C2_5 
REMARK    3  A    between atoms: C2_5  and  C3_6 
REMARK    4  A    between atoms: C4_7  and  N2_8 
REMARK    5  A    between atoms: N2_8  and  C5_9 
REMARK    6  A    between atoms: C5_9  and  C6_11 
REMARK    7  A    between atoms: C11_16  and  C12_17 
ROOT
HETATM    1  C3  UNL     1      25.101   4.104  49.623  1.00  0.00     0.046 C 
HETATM    2  C4  UNL     1      26.106   3.558  50.229  1.00  0.00     0.088 C 
ENDROOT
BRANCH   1   3
HETATM    3  C2  UNL     1      23.776   4.328  50.095  1.00  0.00     0.042 C 
HETATM    4  C17 UNL     1      22.718   3.780  49.428  1.00  0.00    -0.004 C 
HETATM    5  C18 UNL     1      22.997   2.927  48.121  1.00  0.00     0.014 C 
HETATM    6  C22 UNL     1      21.334   4.018  49.996  1.00  0.00     0.157 C 
HETATM    7  C19 UNL     1      22.199   1.727  47.863  1.00  0.00     0.034 C 
HETATM    8  C20 UNL     1      20.928   2.179  48.576  1.00  0.00     0.071 C 
HETATM    9  C21 UNL     1      19.900   2.872  48.112  1.00  0.00     0.115 C 
HETATM   10  N5  UNL     1      21.453   2.077  50.002  1.00  0.00    -0.261 NA
HETATM   11  N4  UNL     1      20.401   4.066  48.829  1.00  0.00    -0.384 N 
HETATM   12  H20 UNL     1      20.138   5.091  48.586  1.00  0.00     0.160 HD
HETATM   13  C23 UNL     1      20.782   2.812  50.768  1.00  0.00     0.120 C 
BRANCH   3  14
HETATM   14  N1  UNL     1      23.416   5.074  51.245  1.00  0.00    -0.334 N 
HETATM   15  H2  UNL     1      23.135   5.963  50.777  1.00  0.00     0.165 HD
BRANCH  14  16
HETATM   16  C1  UNL     1      23.341   4.965  52.677  1.00  0.00     0.458 C 
HETATM   17  F1  UNL     1      24.056   3.926  53.195  1.00  0.00    -0.191 F 
HETATM   18  F2  UNL     1      22.015   4.955  53.073  1.00  0.00    -0.191 F 
ENDBRANCH  14  16
ENDBRANCH   3  14
ENDBRANCH   1   3
BRANCH   2  19
HETATM   19  N2  UNL     1      26.306   2.994  51.512  1.00  0.00    -0.366 N 
HETATM   20  H5  UNL     1      26.270   3.836  52.157  1.00  0.00     0.162 HD
BRANCH  19  21
HETATM   21  C5  UNL     1      26.515   1.655  51.948  1.00  0.00     0.299 C 
HETATM   22  F3  UNL     1      26.987   0.916  50.883  1.00  0.00    -0.222 F 
BRANCH  21  23
HETATM   23  C6  UNL     1      25.340   0.981  52.527  1.00  0.00    -0.018 A 
HETATM   24  C7  UNL     1      24.140   0.971  51.972  1.00  0.00     0.008 A 
HETATM   25  C8  UNL     1      23.033   0.277  52.617  1.00  0.00    -0.004 A 
HETATM   26  C9  UNL     1      23.367  -0.298  53.745  1.00  0.00    -0.026 A 
HETATM   27  C10 UNL     1      24.651  -0.361  54.464  1.00  0.00     0.041 A 
HETATM   28  C11 UNL     1      25.785   0.347  53.805  1.00  0.00     0.057 A 
BRANCH  28  29
HETATM   29  C12 UNL     1      26.960  -0.565  53.588  1.00  0.00    -0.032 A 
HETATM   30  C13 UNL     1      26.868  -1.734  52.822  1.00  0.00     0.011 A 
HETATM   31  C14 UNL     1      28.005  -2.524  52.668  1.00  0.00     0.020 A 
HETATM   32  C15 UNL     1      29.182  -2.129  53.276  1.00  0.00     0.116 A 
HETATM   33  N3  UNL     1      29.268  -1.001  54.014  1.00  0.00    -0.273 NA
HETATM   34  C16 UNL     1      28.180  -0.217  54.180  1.00  0.00     0.124 A 
ENDBRANCH  28  29
ENDBRANCH  21  23
ENDBRANCH  19  21
ENDBRANCH   2  19
TORSDOF 7
ENDMDL
MODEL 6
REMARK VINA RESULT:      -8.8      2.093      3.211
REMARK  7 active torsions:
REMARK  status: ('A' for Active; 'I' for Inactive)
REMARK    1  A    between atoms: C1_2  and  N1_4 
REMARK    2  A    between atoms: N1_4  and  C2_5 
REMARK    3  A    between atoms: C2_5  and  C3_6 
REMARK    4  A    between atoms: C4_7  and  N2_8 
REMARK    5  A    between atoms: N2_8  and  C5_9 
REMARK    6  A    between atoms: C5_9  and  C6_11 
REMARK    7  A    between atoms: C11_16  and  C12_17 
ROOT
HETATM    1  C3  UNL     1      26.254   3.229  49.589  1.00  0.00     0.046 C 
HETATM    2  C4  UNL     1      26.690   2.516  50.577  1.00  0.00     0.088 C 
ENDROOT
BRANCH   1   3
HETATM    3  C2  UNL     1      25.985   4.627  49.535  1.00  0.00     0.042 C 
HETATM    4  C17 UNL     1      24.711   5.080  49.720  1.00  0.00    -0.004 C 
HETATM    5  C18 UNL     1      23.552   4.024  49.963  1.00  0.00     0.014 C 
HETATM    6  C22 UNL     1      24.489   6.577  49.692  1.00  0.00     0.157 C 
HETATM    7  C19 UNL     1      22.489   4.333  50.921  1.00  0.00     0.034 C 
HETATM    8  C20 UNL     1      22.516   5.851  50.761  1.00  0.00     0.071 C 
HETATM    9  C21 UNL     1      21.868   6.622  49.903  1.00  0.00     0.115 C 
HETATM   10  N5  UNL     1      23.845   6.100  51.463  1.00  0.00    -0.261 NA
HETATM   11  N4  UNL     1      23.119   6.791  49.132  1.00  0.00    -0.384 N 
HETATM   12  H20 UNL     1      23.170   7.093  48.090  1.00  0.00     0.160 HD
HETATM   13  C23 UNL     1      24.338   7.193  51.090  1.00  0.00     0.120 C 
BRANCH   3  14
HETATM   14  N1  UNL     1      26.942   5.651  49.322  1.00  0.00    -0.334 N 
HETATM   15  H2  UNL     1      26.789   6.198  50.197  1.00  0.00     0.165 HD
BRANCH  14  16
HETATM   16  C1  UNL     1      27.928   6.088  48.369  1.00  0.00     0.458 C 
HETATM   17  F1  UNL     1      28.857   5.141  48.057  1.00  0.00    -0.191 F 
HETATM   18  F2  UNL     1      28.493   7.276  48.797  1.00  0.00    -0.191 F 
ENDBRANCH  14  16
ENDBRANCH   3  14
ENDBRANCH   1   3
BRANCH   2  19
HETATM   19  N2  UNL     1      27.055   2.790  51.916  1.00  0.00    -0.366 N 
HETATM   20  H5  UNL     1      27.521   3.741  51.853  1.00  0.00     0.162 HD
BRANCH  19  21
HETATM   21  C5  UNL     1      26.892   2.053  53.125  1.00  0.00     0.299 C 
HETATM   22  F3  UNL     1      27.386   2.810  54.167  1.00  0.00    -0.222 F 
BRANCH  21  23
HETATM   23  C6  UNL     1      27.516   0.720  53.150  1.00  0.00    -0.018 A 
HETATM   24  C7  UNL     1      28.677   0.453  53.723  1.00  0.00     0.008 A 
HETATM   25  C8  UNL     1      29.221  -0.898  53.699  1.00  0.00    -0.004 A 
HETATM   26  C9  UNL     1      28.453  -1.755  53.075  1.00  0.00    -0.026 A 
HETATM   27  C10 UNL     1      27.154  -1.590  52.402  1.00  0.00     0.041 A 
HETATM   28  C11 UNL     1      26.595  -0.208  52.426  1.00  0.00     0.057 A 
BRANCH  28  29
HETATM   29  C12 UNL     1      25.211  -0.177  53.011  1.00  0.00    -0.032 A 
HETATM   30  C13 UNL     1      24.152   0.496  52.388  1.00  0.00     0.011 A 
HETATM   31  C14 UNL     1      22.897   0.475  52.995  1.00  0.00     0.020 A 
HETATM   32  C15 UNL     1      22.742  -0.207  54.188  1.00  0.00     0.116 A 
HETATM   33  N3  UNL     1      23.765  -0.855  54.785  1.00  0.00    -0.273 NA
HETATM   34  C16 UNL     1      24.992  -0.850  54.218  1.00  0.00     0.124 A 
ENDBRANCH  28  29
ENDBRANCH  21  23
ENDBRANCH  19  21
ENDBRANCH   2  19
TORSDOF 7
ENDMDL
MODEL 7
REMARK VINA RESULT:      -8.8      2.113      3.725
REMARK  7 active torsions:
REMARK  status: ('A' for Active; 'I' for Inactive)
REMARK    1  A    between atoms: C1_2  and  N1_4 
REMARK    2  A    between atoms: N1_4  and  C2_5 
REMARK    3  A    between atoms: C2_5  and  C3_6 
REMARK    4  A    between atoms: C4_7  and  N2_8 
REMARK    5  A    between atoms: N2_8  and  C5_9 
REMARK    6  A    between atoms: C5_9  and  C6_11 
REMARK    7  A    between atoms: C11_16  and  C12_17 
ROOT
HETATM    1  C3  UNL     1      26.473   5.793  48.660  1.00  0.00     0.046 C 
HETATM    2  C4  UNL     1      26.263   4.640  49.208  1.00  0.00     0.088 C 
ENDROOT
BRANCH   1   3
HETATM    3  C2  UNL     1      26.514   7.085  49.260  1.00  0.00     0.042 C 
HETATM    4  C17 UNL     1      27.617   7.872  49.101  1.00  0.00    -0.004 C 
HETATM    5  C18 UNL     1      28.844   7.309  48.267  1.00  0.00     0.014 C 
HETATM    6  C22 UNL     1      27.590   9.250  49.727  1.00  0.00     0.157 C 
HETATM    7  C19 UNL     1      29.588   8.212  47.387  1.00  0.00     0.034 C 
HETATM    8  C20 UNL     1      29.349   9.496  48.176  1.00  0.00     0.071 C 
HETATM    9  C21 UNL     1      30.045  10.016  49.174  1.00  0.00     0.115 C 
HETATM   10  N5  UNL     1      27.871   9.659  47.847  1.00  0.00    -0.261 NA
HETATM   11  N4  UNL     1      28.999   9.564  50.119  1.00  0.00    -0.384 N 
HETATM   12  H20 UNL     1      29.144   9.423  51.185  1.00  0.00     0.160 HD
HETATM   13  C23 UNL     1      27.307  10.369  48.715  1.00  0.00     0.120 C 
BRANCH   3  14
HETATM   14  N1  UNL     1      25.479   7.680  50.024  1.00  0.00    -0.334 N 
HETATM   15  H2  UNL     1      25.889   8.633  50.133  1.00  0.00     0.165 HD
BRANCH  14  16
HETATM   16  C1  UNL     1      24.200   7.381  50.611  1.00  0.00     0.458 C 
HETATM   17  F1  UNL     1      23.346   8.442  50.655  1.00  0.00    -0.191 F 
HETATM   18  F2  UNL     1      24.383   6.787  51.847  1.00  0.00    -0.191 F 
ENDBRANCH  14  16
ENDBRANCH   3  14
ENDBRANCH   1   3
BRANCH   2  19
HETATM   19  N2  UNL     1      26.003   4.200  50.528  1.00  0.00    -0.366 N 
HETATM   20  H5  UNL     1      25.760   5.096  51.041  1.00  0.00     0.162 HD
BRANCH  19  21
HETATM   21  C5  UNL     1      26.030   2.909  51.131  1.00  0.00     0.299 C 
HETATM   22  F3  UNL     1      26.806   2.078  50.349  1.00  0.00    -0.222 F 
BRANCH  21  23
HETATM   23  C6  UNL     1      24.718   2.282  51.358  1.00  0.00    -0.018 A 
HETATM   24  C7  UNL     1      23.800   2.117  50.421  1.00  0.00     0.008 A 
HETATM   25  C8  UNL     1      22.526   1.485  50.736  1.00  0.00    -0.004 A 
HETATM   26  C9  UNL     1      22.421   1.126  51.991  1.00  0.00    -0.026 A 
HETATM   27  C10 UNL     1      23.357   1.251  53.122  1.00  0.00     0.041 A 
HETATM   28  C11 UNL     1      24.661   1.896  52.801  1.00  0.00     0.057 A 
BRANCH  28  29
HETATM   29  C12 UNL     1      25.823   1.023  53.183  1.00  0.00    -0.032 A 
HETATM   30  C13 UNL     1      26.063  -0.213  52.571  1.00  0.00     0.011 A 
HETATM   31  C14 UNL     1      27.164  -0.962  52.982  1.00  0.00     0.020 A 
HETATM   32  C15 UNL     1      27.979  -0.459  53.980  1.00  0.00     0.116 A 
HETATM   33  N3  UNL     1      27.746   0.733  54.568  1.00  0.00    -0.273 NA
HETATM   34  C16 UNL     1      26.685   1.479  54.188  1.00  0.00     0.124 A 
ENDBRANCH  28  29
ENDBRANCH  21  23
ENDBRANCH  19  21
ENDBRANCH   2  19
TORSDOF 7
ENDMDL
MODEL 8
REMARK VINA RESULT:      -8.5      3.026      5.502
REMARK  7 active torsions:
REMARK  status: ('A' for Active; 'I' for Inactive)
REMARK    1  A    between atoms: C1_2  and  N1_4 
REMARK    2  A    between atoms: N1_4  and  C2_5 
REMARK    3  A    between atoms: C2_5  and  C3_6 
REMARK    4  A    between atoms: C4_7  and  N2_8 
REMARK    5  A    between atoms: N2_8  and  C5_9 
REMARK    6  A    between atoms: C5_9  and  C6_11 
REMARK    7  A    between atoms: C11_16  and  C12_17 
ROOT
HETATM    1  C3  UNL     1      22.806   4.705  52.412  1.00  0.00     0.046 C 
HETATM    2  C4  UNL     1      23.777   4.144  53.059  1.00  0.00     0.088 C 
ENDROOT
BRANCH   1   3
HETATM    3  C2  UNL     1      22.485   4.634  51.026  1.00  0.00     0.042 C 
HETATM    4  C17 UNL     1      21.334   4.019  50.627  1.00  0.00    -0.004 C 
HETATM    5  C18 UNL     1      20.393   3.370  51.727  1.00  0.00     0.014 C 
HETATM    6  C22 UNL     1      21.024   4.008  49.145  1.00  0.00     0.157 C 
HETATM    7  C19 UNL     1      18.940   3.468  51.577  1.00  0.00     0.034 C 
HETATM    8  C20 UNL     1      18.903   3.515  50.052  1.00  0.00     0.071 C 
HETATM    9  C21 UNL     1      18.853   2.523  49.177  1.00  0.00     0.115 C 
HETATM   10  N5  UNL     1      19.472   4.918  49.883  1.00  0.00    -0.261 NA
HETATM   11  N4  UNL     1      20.286   2.735  48.877  1.00  0.00    -0.384 N 
HETATM   12  H20 UNL     1      20.942   1.996  48.428  1.00  0.00     0.160 HD
HETATM   13  C23 UNL     1      19.973   5.051  48.740  1.00  0.00     0.120 C 
BRANCH   3  14
HETATM   14  N1  UNL     1      23.254   5.176  49.965  1.00  0.00    -0.334 N 
HETATM   15  H2  UNL     1      22.478   5.406  49.307  1.00  0.00     0.165 HD
BRANCH  14  16
HETATM   16  C1  UNL     1      24.615   5.458  49.593  1.00  0.00     0.458 C 
HETATM   17  F1  UNL     1      25.250   4.420  48.979  1.00  0.00    -0.191 F 
HETATM   18  F2  UNL     1      25.307   5.938  50.690  1.00  0.00    -0.191 F 
ENDBRANCH  14  16
ENDBRANCH   3  14
ENDBRANCH   1   3
BRANCH   2  19
HETATM   19  N2  UNL     1      24.848   3.292  52.701  1.00  0.00    -0.366 N 
HETATM   20  H5  UNL     1      25.702   3.808  53.062  1.00  0.00     0.162 HD
BRANCH  19  21
HETATM   21  C5  UNL     1      24.892   2.038  52.026  1.00  0.00     0.299 C 
HETATM   22  F3  UNL     1      24.802   2.270  50.669  1.00  0.00    -0.222 F 
BRANCH  21  23
HETATM   23  C6  UNL     1      23.865   1.062  52.424  1.00  0.00    -0.018 A 
HETATM   24  C7  UNL     1      22.775   0.801  51.724  1.00  0.00     0.008 A 
HETATM   25  C8  UNL     1      21.809  -0.184  52.196  1.00  0.00    -0.004 A 
HETATM   26  C9  UNL     1      22.148  -0.738  53.333  1.00  0.00    -0.026 A 
HETATM   27  C10 UNL     1      23.318  -0.539  54.204  1.00  0.00     0.041 A 
HETATM   28  C11 UNL     1      24.308   0.467  53.722  1.00  0.00     0.057 A 
BRANCH  28  29
HETATM   29  C12 UNL     1      25.689  -0.116  53.618  1.00  0.00    -0.032 A 
HETATM   30  C13 UNL     1      26.039  -1.034  52.620  1.00  0.00     0.011 A 
HETATM   31  C14 UNL     1      27.343  -1.527  52.592  1.00  0.00     0.020 A 
HETATM   32  C15 UNL     1      28.243  -1.094  53.549  1.00  0.00     0.116 A 
HETATM   33  N3  UNL     1      27.901  -0.208  54.510  1.00  0.00    -0.273 NA
HETATM   34  C16 UNL     1      26.644   0.284  54.560  1.00  0.00     0.124 A 
ENDBRANCH  28  29
ENDBRANCH  21  23
ENDBRANCH  19  21
ENDBRANCH   2  19
TORSDOF 7
ENDMDL
MODEL 9
REMARK VINA RESULT:      -8.4      2.550      4.483
REMARK  7 active torsions:
REMARK  status: ('A' for Active; 'I' for Inactive)
REMARK    1  A    between atoms: C1_2  and  N1_4 
REMARK    2  A    between atoms: N1_4  and  C2_5 
REMARK    3  A    between atoms: C2_5  and  C3_6 
REMARK    4  A    between atoms: C4_7  and  N2_8 
REMARK    5  A    between atoms: N2_8  and  C5_9 
REMARK    6  A    between atoms: C5_9  and  C6_11 
REMARK    7  A    between atoms: C11_16  and  C12_17 
ROOT
HETATM    1  C3  UNL     1      26.373   4.530  49.463  1.00  0.00     0.046 C 
HETATM    2  C4  UNL     1      26.781   3.490  50.116  1.00  0.00     0.088 C 
ENDROOT
BRANCH   1   3
HETATM    3  C2  UNL     1      25.379   5.486  49.818  1.00  0.00     0.042 C 
HETATM    4  C17 UNL     1      24.062   5.211  49.593  1.00  0.00    -0.004 C 
HETATM    5  C18 UNL     1      23.675   3.832  48.909  1.00  0.00     0.014 C 
HETATM    6  C22 UNL     1      23.046   6.246  50.026  1.00  0.00     0.157 C 
HETATM    7  C19 UNL     1      22.479   3.119  49.359  1.00  0.00     0.034 C 
HETATM    8  C20 UNL     1      21.675   4.340  49.798  1.00  0.00     0.071 C 
HETATM    9  C21 UNL     1      20.862   5.113  49.096  1.00  0.00     0.115 C 
HETATM   10  N5  UNL     1      22.493   4.680  51.037  1.00  0.00    -0.261 NA
HETATM   11  N4  UNL     1      21.911   6.156  49.057  1.00  0.00    -0.384 N 
HETATM   12  H20 UNL     1      21.958   6.961  48.330  1.00  0.00     0.160 HD
HETATM   13  C23 UNL     1      22.341   5.888  51.342  1.00  0.00     0.120 C 
BRANCH   3  14
HETATM   14  N1  UNL     1      25.615   6.744  50.428  1.00  0.00    -0.334 N 
HETATM   15  H2  UNL     1      25.334   6.504  51.404  1.00  0.00     0.165 HD
BRANCH  14  16
HETATM   16  C1  UNL     1      26.070   8.074  50.122  1.00  0.00     0.458 C 
HETATM   17  F1  UNL     1      25.238   8.772  49.298  1.00  0.00    -0.191 F 
HETATM   18  F2  UNL     1      27.371   8.024  49.654  1.00  0.00    -0.191 F 
ENDBRANCH  14  16
ENDBRANCH   3  14
ENDBRANCH   1   3
BRANCH   2  19
HETATM   19  N2  UNL     1      26.445   2.901  51.358  1.00  0.00    -0.366 N 
HETATM   20  H5  UNL     1      25.963   3.690  51.880  1.00  0.00     0.162 HD
BRANCH  19  21
HETATM   21  C5  UNL     1      26.649   1.594  51.887  1.00  0.00     0.299 C 
HETATM   22  F3  UNL     1      27.131   0.786  50.878  1.00  0.00    -0.222 F 
BRANCH  21  23
HETATM   23  C6  UNL     1      25.469   0.961  52.499  1.00  0.00    -0.018 A 
HETATM   24  C7  UNL     1      24.256   0.986  51.976  1.00  0.00     0.008 A 
HETATM   25  C8  UNL     1      23.144   0.331  52.654  1.00  0.00    -0.004 A 
HETATM   26  C9  UNL     1      23.489  -0.247  53.776  1.00  0.00    -0.026 A 
HETATM   27  C10 UNL     1      24.789  -0.347  54.462  1.00  0.00     0.041 A 
HETATM   28  C11 UNL     1      25.927   0.321  53.770  1.00  0.00     0.057 A 
BRANCH  28  29
HETATM   29  C12 UNL     1      27.067  -0.629  53.529  1.00  0.00    -0.032 A 
HETATM   30  C13 UNL     1      28.381  -0.332  53.913  1.00  0.00     0.011 A 
HETATM   31  C14 UNL     1      29.381  -1.267  53.655  1.00  0.00     0.020 A 
HETATM   32  C15 UNL     1      29.043  -2.453  53.029  1.00  0.00     0.116 A 
HETATM   33  N3  UNL     1      27.775  -2.737  52.661  1.00  0.00    -0.273 NA
HETATM   34  C16 UNL     1      26.786  -1.847  52.899  1.00  0.00     0.124 A 
ENDBRANCH  28  29
ENDBRANCH  21  23
ENDBRANCH  19  21
ENDBRANCH   2  19
TORSDOF 7
ENDMDL
