MODEL 1
REMARK VINA RESULT:      -8.3      0.000      0.000
REMARK  6 active torsions:
REMARK  status: ('A' for Active; 'I' for Inactive)
REMARK    1  A    between atoms: C3_3  and  C5_5 
REMARK    2  A    between atoms: C5_5  and  O1_6 
REMARK    3  A    between atoms: C5_5  and  C6_7 
REMARK    4  A    between atoms: C6_7  and  C8_9 
REMARK    5  A    between atoms: C9_10  and  C10_11 
REMARK    6  A    between atoms: C20_22  and  O2_24 
ROOT
HETATM    1  C10 UNL     1      22.826   0.881  52.510  1.00  0.00     0.006 C 
HETATM    2  C11 UNL     1      21.529   1.063  52.568  1.00  0.00    -0.044 C 
HETATM    3  C12 UNL     1      20.652   0.507  53.750  1.00  0.00     0.057 C 
HETATM    4  C13 UNL     1      19.723  -0.293  53.037  1.00  0.00     0.126 C 
HETATM    5  N1  UNL     1      18.585  -1.070  53.122  1.00  0.00    -0.394 N 
HETATM    6  C14 UNL     1      18.534  -2.288  53.833  1.00  0.00     0.148 C 
HETATM    7  C15 UNL     1      17.409  -0.581  52.356  1.00  0.00     0.085 C 
HETATM    8  C16 UNL     1      17.238   0.234  51.299  1.00  0.00     0.017 C 
HETATM    9  C17 UNL     1      17.766   1.106  50.251  1.00  0.00    -0.003 C 
HETATM   10  C18 UNL     1      18.909   1.611  49.710  1.00  0.00    -0.023 C 
HETATM   11  C19 UNL     1      19.973   0.987  50.540  1.00  0.00     0.069 C 
HETATM   12  C20 UNL     1      20.792   1.783  51.456  1.00  0.00     0.083 C 
HETATM   13  C21 UNL     1      20.057   2.989  52.034  1.00  0.00     0.051 C 
ENDROOT
BRANCH   1  14
HETATM   14  C9  UNL     1      24.140   0.444  52.876  1.00  0.00    -0.003 C 
HETATM   15  C8  UNL     1      25.019  -0.101  53.688  1.00  0.00    -0.020 C 
BRANCH  15  16
HETATM   16  C6  UNL     1      26.418  -0.173  53.203  1.00  0.00     0.037 C 
HETATM   17  C7  UNL     1      26.585  -1.616  52.707  1.00  0.00     0.017 C 
BRANCH  16  18
HETATM   18  C5  UNL     1      27.391   0.116  54.329  1.00  0.00     0.153 C 
BRANCH  18  19
HETATM   19  C3  UNL     1      28.590   0.810  53.821  1.00  0.00    -0.059 C 
HETATM   20  C2  UNL     1      29.728   0.124  53.644  1.00  0.00    -0.026 C 
HETATM   21  C1  UNL     1      30.170  -1.270  53.832  1.00  0.00     0.036 C 
HETATM   22  C4  UNL     1      28.446   2.266  53.533  1.00  0.00     0.046 C 
ENDBRANCH  18  19
BRANCH  18  23
HETATM   23  O1  UNL     1      26.706   0.981  55.201  1.00  0.00    -0.391 OA
HETATM   24  H9  UNL     1      27.307   1.359  55.883  1.00  0.00     0.210 HD
ENDBRANCH  18  23
ENDBRANCH  16  18
ENDBRANCH  15  16
ENDBRANCH   1  14
BRANCH  12  25
HETATM   25  O2  UNL     1      21.821   2.364  50.725  1.00  0.00    -0.381 OA
HETATM   26  C22 UNL     1      21.730   3.674  50.420  1.00  0.00     0.203 C 
ENDBRANCH  12  25
TORSDOF 6
ENDMDL
MODEL 2
REMARK VINA RESULT:      -8.0      4.424      6.695
REMARK  6 active torsions:
REMARK  status: ('A' for Active; 'I' for Inactive)
REMARK    1  A    between atoms: C3_3  and  C5_5 
REMARK    2  A    between atoms: C5_5  and  O1_6 
REMARK    3  A    between atoms: C5_5  and  C6_7 
REMARK    4  A    between atoms: C6_7  and  C8_9 
REMARK    5  A    between atoms: C9_10  and  C10_11 
REMARK    6  A    between atoms: C20_22  and  O2_24 
ROOT
HETATM    1  C10 UNL     1      25.025   3.198  51.356  1.00  0.00     0.006 C 
HETATM    2  C11 UNL     1      24.880   4.127  50.441  1.00  0.00    -0.044 C 
HETATM    3  C12 UNL     1      25.704   4.125  49.101  1.00  0.00     0.057 C 
HETATM    4  C13 UNL     1      26.333   5.393  49.175  1.00  0.00     0.126 C 
HETATM    5  N1  UNL     1      27.126   6.314  48.520  1.00  0.00    -0.394 N 
HETATM    6  C14 UNL     1      28.475   6.071  48.183  1.00  0.00     0.148 C 
HETATM    7  C15 UNL     1      26.492   7.628  48.237  1.00  0.00     0.085 C 
HETATM    8  C16 UNL     1      25.460   8.315  48.759  1.00  0.00     0.017 C 
HETATM    9  C17 UNL     1      24.364   8.455  49.717  1.00  0.00    -0.003 C 
HETATM   10  C18 UNL     1      23.732   7.856  50.764  1.00  0.00    -0.023 C 
HETATM   11  C19 UNL     1      24.513   6.606  50.951  1.00  0.00     0.069 C 
HETATM   12  C20 UNL     1      23.936   5.293  50.657  1.00  0.00     0.083 C 
HETATM   13  C21 UNL     1      22.905   5.323  49.531  1.00  0.00     0.051 C 
ENDROOT
BRANCH   1  14
HETATM   14  C9  UNL     1      25.515   2.024  52.015  1.00  0.00    -0.003 C 
HETATM   15  C8  UNL     1      25.429   1.026  52.865  1.00  0.00    -0.020 C 
BRANCH  15  16
HETATM   16  C6  UNL     1      26.590   0.107  52.934  1.00  0.00     0.037 C 
HETATM   17  C7  UNL     1      25.974  -1.297  52.981  1.00  0.00     0.017 C 
BRANCH  16  18
HETATM   18  C5  UNL     1      27.409   0.370  54.182  1.00  0.00     0.153 C 
BRANCH  18  19
HETATM   19  C3  UNL     1      28.722   0.947  53.838  1.00  0.00    -0.059 C 
HETATM   20  C2  UNL     1      29.765   0.134  53.615  1.00  0.00    -0.026 C 
HETATM   21  C1  UNL     1      29.999  -1.322  53.619  1.00  0.00     0.036 C 
HETATM   22  C4  UNL     1      28.798   2.433  53.758  1.00  0.00     0.046 C 
ENDBRANCH  18  19
BRANCH  18  23
HETATM   23  O1  UNL     1      26.677   1.323  54.914  1.00  0.00    -0.391 OA
HETATM   24  H9  UNL     1      27.268   1.904  55.444  1.00  0.00     0.210 HD
ENDBRANCH  18  23
ENDBRANCH  16  18
ENDBRANCH  15  16
ENDBRANCH   1  14
BRANCH  12  25
HETATM   25  O2  UNL     1      23.189   4.891  51.756  1.00  0.00    -0.381 OA
HETATM   26  C22 UNL     1      21.845   4.881  51.649  1.00  0.00     0.203 C 
ENDBRANCH  12  25
TORSDOF 6
ENDMDL
MODEL 3
REMARK VINA RESULT:      -7.8      2.033      3.743
REMARK  6 active torsions:
REMARK  status: ('A' for Active; 'I' for Inactive)
REMARK    1  A    between atoms: C3_3  and  C5_5 
REMARK    2  A    between atoms: C5_5  and  O1_6 
REMARK    3  A    between atoms: C5_5  and  C6_7 
REMARK    4  A    between atoms: C6_7  and  C8_9 
REMARK    5  A    between atoms: C9_10  and  C10_11 
REMARK    6  A    between atoms: C20_22  and  O2_24 
ROOT
HETATM    1  C10 UNL     1      22.986   1.031  51.987  1.00  0.00     0.006 C 
HETATM    2  C11 UNL     1      22.078   1.441  51.134  1.00  0.00    -0.044 C 
HETATM    3  C12 UNL     1      22.428   1.812  49.645  1.00  0.00     0.057 C 
HETATM    4  C13 UNL     1      21.964   3.151  49.590  1.00  0.00     0.126 C 
HETATM    5  N1  UNL     1      21.742   4.250  48.783  1.00  0.00    -0.394 N 
HETATM    6  C14 UNL     1      22.782   4.969  48.156  1.00  0.00     0.148 C 
HETATM    7  C15 UNL     1      20.327   4.685  48.657  1.00  0.00     0.085 C 
HETATM    8  C16 UNL     1      19.216   4.525  49.399  1.00  0.00     0.017 C 
HETATM    9  C17 UNL     1      18.522   4.004  50.576  1.00  0.00    -0.003 C 
HETATM   10  C18 UNL     1      18.685   3.302  51.731  1.00  0.00    -0.023 C 
HETATM   11  C19 UNL     1      20.140   3.000  51.732  1.00  0.00     0.069 C 
HETATM   12  C20 UNL     1      20.636   1.633  51.561  1.00  0.00     0.083 C 
HETATM   13  C21 UNL     1      19.732   0.764  50.691  1.00  0.00     0.051 C 
ENDROOT
BRANCH   1  14
HETATM   14  C9  UNL     1      24.263   0.650  52.512  1.00  0.00    -0.003 C 
HETATM   15  C8  UNL     1      25.085   0.298  53.475  1.00  0.00    -0.020 C 
BRANCH  15  16
HETATM   16  C6  UNL     1      26.494   0.045  53.089  1.00  0.00     0.037 C 
HETATM   17  C7  UNL     1      26.526  -1.432  52.676  1.00  0.00     0.017 C 
BRANCH  16  18
HETATM   18  C5  UNL     1      27.424   0.288  54.261  1.00  0.00     0.153 C 
BRANCH  18  19
HETATM   19  C3  UNL     1      28.672   0.935  53.816  1.00  0.00    -0.059 C 
HETATM   20  C2  UNL     1      29.763   0.188  53.592  1.00  0.00    -0.026 C 
HETATM   21  C1  UNL     1      30.106  -1.243  53.674  1.00  0.00     0.036 C 
HETATM   22  C4  UNL     1      28.632   2.416  53.642  1.00  0.00     0.046 C 
ENDBRANCH  18  19
BRANCH  18  23
HETATM   23  O1  UNL     1      26.734   1.176  55.106  1.00  0.00    -0.391 OA
HETATM   24  H9  UNL     1      27.005   1.068  56.046  1.00  0.00     0.210 HD
ENDBRANCH  18  23
ENDBRANCH  16  18
ENDBRANCH  15  16
ENDBRANCH   1  14
BRANCH  12  25
HETATM   25  O2  UNL     1      20.590   0.997  52.795  1.00  0.00    -0.381 OA
HETATM   26  C22 UNL     1      19.724  -0.024  52.957  1.00  0.00     0.203 C 
ENDBRANCH  12  25
TORSDOF 6
ENDMDL
MODEL 4
REMARK VINA RESULT:      -7.7      3.417      5.694
REMARK  6 active torsions:
REMARK  status: ('A' for Active; 'I' for Inactive)
REMARK    1  A    between atoms: C3_3  and  C5_5 
REMARK    2  A    between atoms: C5_5  and  O1_6 
REMARK    3  A    between atoms: C5_5  and  C6_7 
REMARK    4  A    between atoms: C6_7  and  C8_9 
REMARK    5  A    between atoms: C9_10  and  C10_11 
REMARK    6  A    between atoms: C20_22  and  O2_24 
ROOT
HETATM    1  C10 UNL     1      24.261   2.572  51.443  1.00  0.00     0.006 C 
HETATM    2  C11 UNL     1      23.857   3.465  50.571  1.00  0.00    -0.044 C 
HETATM    3  C12 UNL     1      24.643   3.757  49.239  1.00  0.00     0.057 C 
HETATM    4  C13 UNL     1      24.892   5.146  49.378  1.00  0.00     0.126 C 
HETATM    5  N1  UNL     1      25.392   6.282  48.772  1.00  0.00    -0.394 N 
HETATM    6  C14 UNL     1      26.754   6.441  48.437  1.00  0.00     0.148 C 
HETATM    7  C15 UNL     1      24.415   7.377  48.545  1.00  0.00     0.085 C 
HETATM    8  C16 UNL     1      23.234   7.723  49.090  1.00  0.00     0.017 C 
HETATM    9  C17 UNL     1      22.148   7.505  50.045  1.00  0.00    -0.003 C 
HETATM   10  C18 UNL     1      21.713   6.705  51.057  1.00  0.00    -0.023 C 
HETATM   11  C19 UNL     1      22.814   5.716  51.193  1.00  0.00     0.069 C 
HETATM   12  C20 UNL     1      22.626   4.309  50.832  1.00  0.00     0.083 C 
HETATM   13  C21 UNL     1      21.622   4.103  49.701  1.00  0.00     0.051 C 
ENDROOT
BRANCH   1  14
HETATM   14  C9  UNL     1      25.063   1.553  52.050  1.00  0.00    -0.003 C 
HETATM   15  C8  UNL     1      25.282   0.573  52.898  1.00  0.00    -0.020 C 
BRANCH  15  16
HETATM   16  C6  UNL     1      26.626  -0.051  52.863  1.00  0.00     0.037 C 
HETATM   17  C7  UNL     1      26.355  -1.558  52.762  1.00  0.00     0.017 C 
BRANCH  16  18
HETATM   18  C5  UNL     1      27.398   0.265  54.129  1.00  0.00     0.153 C 
BRANCH  18  19
HETATM   19  C3  UNL     1      28.679   0.924  53.812  1.00  0.00    -0.059 C 
HETATM   20  C2  UNL     1      29.779   0.180  53.628  1.00  0.00    -0.026 C 
HETATM   21  C1  UNL     1      30.108  -1.257  53.656  1.00  0.00     0.036 C 
HETATM   22  C4  UNL     1      28.659   2.412  53.716  1.00  0.00     0.046 C 
ENDBRANCH  18  19
BRANCH  18  23
HETATM   23  O1  UNL     1      26.591   1.171  54.841  1.00  0.00    -0.391 OA
HETATM   24  H9  UNL     1      26.060   0.716  55.534  1.00  0.00     0.210 HD
ENDBRANCH  18  23
ENDBRANCH  16  18
ENDBRANCH  15  16
ENDBRANCH   1  14
BRANCH  12  25
HETATM   25  O2  UNL     1      22.027   3.663  51.906  1.00  0.00    -0.381 OA
HETATM   26  C22 UNL     1      20.726   3.322  51.804  1.00  0.00     0.203 C 
ENDBRANCH  12  25
TORSDOF 6
ENDMDL
MODEL 5
REMARK VINA RESULT:      -7.5      2.937      4.281
REMARK  6 active torsions:
REMARK  status: ('A' for Active; 'I' for Inactive)
REMARK    1  A    between atoms: C3_3  and  C5_5 
REMARK    2  A    between atoms: C5_5  and  O1_6 
REMARK    3  A    between atoms: C5_5  and  C6_7 
REMARK    4  A    between atoms: C6_7  and  C8_9 
REMARK    5  A    between atoms: C9_10  and  C10_11 
REMARK    6  A    between atoms: C20_22  and  O2_24 
ROOT
HETATM    1  C10 UNL     1      25.031   2.669  51.212  1.00  0.00     0.006 C 
HETATM    2  C11 UNL     1      24.220   3.682  51.024  1.00  0.00    -0.044 C 
HETATM    3  C12 UNL     1      23.065   4.035  52.032  1.00  0.00     0.057 C 
HETATM    4  C13 UNL     1      21.937   3.977  51.175  1.00  0.00     0.126 C 
HETATM    5  N1  UNL     1      20.577   4.189  51.062  1.00  0.00    -0.394 N 
HETATM    6  C14 UNL     1      19.618   3.439  51.775  1.00  0.00     0.148 C 
HETATM    7  C15 UNL     1      20.164   5.226  50.082  1.00  0.00     0.085 C 
HETATM    8  C16 UNL     1      20.730   5.784  48.995  1.00  0.00     0.017 C 
HETATM    9  C17 UNL     1      21.835   5.913  48.047  1.00  0.00    -0.003 C 
HETATM   10  C18 UNL     1      23.067   5.436  47.718  1.00  0.00    -0.023 C 
HETATM   11  C19 UNL     1      23.300   4.385  48.743  1.00  0.00     0.069 C 
HETATM   12  C20 UNL     1      24.322   4.542  49.780  1.00  0.00     0.083 C 
HETATM   13  C21 UNL     1      24.553   5.995  50.188  1.00  0.00     0.051 C 
ENDROOT
BRANCH   1  14
HETATM   14  C9  UNL     1      25.628   1.520  51.824  1.00  0.00    -0.003 C 
HETATM   15  C8  UNL     1      25.604   0.420  52.544  1.00  0.00    -0.020 C 
BRANCH  15  16
HETATM   16  C6  UNL     1      26.894  -0.289  52.720  1.00  0.00     0.037 C 
HETATM   17  C7  UNL     1      26.530  -1.779  52.674  1.00  0.00     0.017 C 
BRANCH  16  18
HETATM   18  C5  UNL     1      27.522   0.063  54.054  1.00  0.00     0.153 C 
BRANCH  18  19
HETATM   19  C3  UNL     1      28.810   0.754  53.862  1.00  0.00    -0.059 C 
HETATM   20  C2  UNL     1      29.931   0.034  53.703  1.00  0.00    -0.026 C 
HETATM   21  C1  UNL     1      30.278  -1.397  53.663  1.00  0.00     0.036 C 
HETATM   22  C4  UNL     1      28.775   2.245  53.857  1.00  0.00     0.046 C 
ENDBRANCH  18  19
BRANCH  18  23
HETATM   23  O1  UNL     1      26.621   0.953  54.666  1.00  0.00    -0.391 OA
HETATM   24  H9  UNL     1      25.892   1.208  54.057  1.00  0.00     0.210 HD
ENDBRANCH  18  23
ENDBRANCH  16  18
ENDBRANCH  15  16
ENDBRANCH   1  14
BRANCH  12  25
HETATM   25  O2  UNL     1      25.546   4.169  49.242  1.00  0.00    -0.381 OA
HETATM   26  C22 UNL     1      26.459   5.131  48.997  1.00  0.00     0.203 C 
ENDBRANCH  12  25
TORSDOF 6
ENDMDL
MODEL 6
REMARK VINA RESULT:      -7.4      7.094     10.572
REMARK  6 active torsions:
REMARK  status: ('A' for Active; 'I' for Inactive)
REMARK    1  A    between atoms: C3_3  and  C5_5 
REMARK    2  A    between atoms: C5_5  and  O1_6 
REMARK    3  A    between atoms: C5_5  and  C6_7 
REMARK    4  A    between atoms: C6_7  and  C8_9 
REMARK    5  A    between atoms: C9_10  and  C10_11 
REMARK    6  A    between atoms: C20_22  and  O2_24 
ROOT
HETATM    1  C10 UNL     1      27.219   5.667  48.751  1.00  0.00     0.006 C 
HETATM    2  C11 UNL     1      28.133   6.396  48.157  1.00  0.00    -0.044 C 
HETATM    3  C12 UNL     1      29.518   5.803  47.701  1.00  0.00     0.057 C 
HETATM    4  C13 UNL     1      30.413   6.649  48.403  1.00  0.00     0.126 C 
HETATM    5  N1  UNL     1      31.734   6.996  48.606  1.00  0.00    -0.394 N 
HETATM    6  C14 UNL     1      32.680   6.123  49.185  1.00  0.00     0.148 C 
HETATM    7  C15 UNL     1      32.102   8.386  48.235  1.00  0.00     0.085 C 
HETATM    8  C16 UNL     1      31.424   9.539  48.081  1.00  0.00     0.017 C 
HETATM    9  C17 UNL     1      30.182  10.310  48.106  1.00  0.00    -0.003 C 
HETATM   10  C18 UNL     1      28.846  10.241  48.356  1.00  0.00    -0.023 C 
HETATM   11  C19 UNL     1      28.659   8.824  48.764  1.00  0.00     0.069 C 
HETATM   12  C20 UNL     1      27.920   7.879  47.925  1.00  0.00     0.083 C 
HETATM   13  C21 UNL     1      28.032   8.178  46.432  1.00  0.00     0.051 C 
ENDROOT
BRANCH   1  14
HETATM   14  C9  UNL     1      26.577   4.526  49.333  1.00  0.00    -0.003 C 
HETATM   15  C8  UNL     1      26.433   3.239  49.552  1.00  0.00    -0.020 C 
BRANCH  15  16
HETATM   16  C6  UNL     1      25.309   2.835  50.430  1.00  0.00     0.037 C 
HETATM   17  C7  UNL     1      24.370   4.048  50.445  1.00  0.00     0.017 C 
BRANCH  16  18
HETATM   18  C5  UNL     1      25.804   2.530  51.830  1.00  0.00     0.153 C 
BRANCH  18  19
HETATM   19  C3  UNL     1      25.583   1.111  52.168  1.00  0.00    -0.059 C 
HETATM   20  C2  UNL     1      24.387   0.719  52.631  1.00  0.00    -0.026 C 
HETATM   21  C1  UNL     1      23.098   1.369  52.931  1.00  0.00     0.036 C 
HETATM   22  C4  UNL     1      26.736   0.188  51.964  1.00  0.00     0.046 C 
ENDBRANCH  18  19
BRANCH  18  23
HETATM   23  O1  UNL     1      27.189   2.772  51.797  1.00  0.00    -0.391 OA
HETATM   24  H9  UNL     1      27.395   3.640  51.381  1.00  0.00     0.210 HD
ENDBRANCH  18  23
ENDBRANCH  16  18
ENDBRANCH  15  16
ENDBRANCH   1  14
BRANCH  12  25
HETATM   25  O2  UNL     1      26.564   8.042  48.177  1.00  0.00    -0.381 OA
HETATM   26  C22 UNL     1      25.787   8.546  47.198  1.00  0.00     0.203 C 
ENDBRANCH  12  25
TORSDOF 6
ENDMDL
MODEL 7
REMARK VINA RESULT:      -7.4      4.794      6.561
REMARK  6 active torsions:
REMARK  status: ('A' for Active; 'I' for Inactive)
REMARK    1  A    between atoms: C3_3  and  C5_5 
REMARK    2  A    between atoms: C5_5  and  O1_6 
REMARK    3  A    between atoms: C5_5  and  C6_7 
REMARK    4  A    between atoms: C6_7  and  C8_9 
REMARK    5  A    between atoms: C9_10  and  C10_11 
REMARK    6  A    between atoms: C20_22  and  O2_24 
ROOT
HETATM    1  C10 UNL     1      24.220   4.047  50.466  1.00  0.00     0.006 C 
HETATM    2  C11 UNL     1      23.647   3.317  51.392  1.00  0.00    -0.044 C 
HETATM    3  C12 UNL     1      24.328   3.030  52.781  1.00  0.00     0.057 C 
HETATM    4  C13 UNL     1      24.352   1.613  52.777  1.00  0.00     0.126 C 
HETATM    5  N1  UNL     1      24.639   0.474  53.503  1.00  0.00    -0.394 N 
HETATM    6  C14 UNL     1      25.944   0.131  53.917  1.00  0.00     0.148 C 
HETATM    7  C15 UNL     1      23.489  -0.425  53.778  1.00  0.00     0.085 C 
HETATM    8  C16 UNL     1      22.286  -0.628  53.209  1.00  0.00     0.017 C 
HETATM    9  C17 UNL     1      21.283  -0.331  52.187  1.00  0.00    -0.003 C 
HETATM   10  C18 UNL     1      21.019   0.429  51.089  1.00  0.00    -0.023 C 
HETATM   11  C19 UNL     1      22.271   1.213  50.921  1.00  0.00     0.069 C 
HETATM   12  C20 UNL     1      22.303   2.659  51.147  1.00  0.00     0.083 C 
HETATM   13  C21 UNL     1      21.309   3.129  52.205  1.00  0.00     0.051 C 
ENDROOT
BRANCH   1  14
HETATM   14  C9  UNL     1      25.198   4.864  49.811  1.00  0.00    -0.003 C 
HETATM   15  C8  UNL     1      25.910   5.958  49.659  1.00  0.00    -0.020 C 
BRANCH  15  16
HETATM   16  C6  UNL     1      26.858   5.982  48.520  1.00  0.00     0.037 C 
HETATM   17  C7  UNL     1      27.679   4.694  48.668  1.00  0.00     0.017 C 
BRANCH  16  18
HETATM   18  C5  UNL     1      27.761   7.198  48.600  1.00  0.00     0.153 C 
BRANCH  18  19
HETATM   19  C3  UNL     1      27.582   8.063  47.418  1.00  0.00    -0.059 C 
HETATM   20  C2  UNL     1      28.589   8.209  46.545  1.00  0.00    -0.026 C 
HETATM   21  C1  UNL     1      29.967   7.701  46.417  1.00  0.00     0.036 C 
HETATM   22  C4  UNL     1      26.257   8.731  47.275  1.00  0.00     0.046 C 
ENDBRANCH  18  19
BRANCH  18  23
HETATM   23  O1  UNL     1      27.338   7.903  49.741  1.00  0.00    -0.391 OA
HETATM   24  H9  UNL     1      26.589   7.449  50.190  1.00  0.00     0.210 HD
ENDBRANCH  18  23
ENDBRANCH  16  18
ENDBRANCH  15  16
ENDBRANCH   1  14
BRANCH  12  25
HETATM   25  O2  UNL     1      21.854   3.289  49.993  1.00  0.00    -0.381 OA
HETATM   26  C22 UNL     1      20.663   3.918  50.029  1.00  0.00     0.203 C 
ENDBRANCH  12  25
TORSDOF 6
ENDMDL
MODEL 8
REMARK VINA RESULT:      -7.1      5.164      6.759
REMARK  6 active torsions:
REMARK  status: ('A' for Active; 'I' for Inactive)
REMARK    1  A    between atoms: C3_3  and  C5_5 
REMARK    2  A    between atoms: C5_5  and  O1_6 
REMARK    3  A    between atoms: C5_5  and  C6_7 
REMARK    4  A    between atoms: C6_7  and  C8_9 
REMARK    5  A    between atoms: C9_10  and  C10_11 
REMARK    6  A    between atoms: C20_22  and  O2_24 
ROOT
HETATM    1  C10 UNL     1      25.339   4.709  49.131  1.00  0.00     0.006 C 
HETATM    2  C11 UNL     1      24.348   4.167  49.796  1.00  0.00    -0.044 C 
HETATM    3  C12 UNL     1      24.469   3.770  51.314  1.00  0.00     0.057 C 
HETATM    4  C13 UNL     1      24.158   2.389  51.253  1.00  0.00     0.126 C 
HETATM    5  N1  UNL     1      23.925   1.238  51.980  1.00  0.00    -0.394 N 
HETATM    6  C14 UNL     1      24.913   0.608  52.766  1.00  0.00     0.148 C 
HETATM    7  C15 UNL     1      22.569   0.648  51.839  1.00  0.00     0.085 C 
HETATM    8  C16 UNL     1      21.595   0.719  50.913  1.00  0.00     0.017 C 
HETATM    9  C17 UNL     1      21.064   1.214  49.643  1.00  0.00    -0.003 C 
HETATM   10  C18 UNL     1      21.347   1.980  48.553  1.00  0.00    -0.023 C 
HETATM   11  C19 UNL     1      22.736   2.437  48.822  1.00  0.00     0.069 C 
HETATM   12  C20 UNL     1      23.035   3.840  49.112  1.00  0.00     0.083 C 
HETATM   13  C21 UNL     1      21.898   4.567  49.826  1.00  0.00     0.051 C 
ENDROOT
BRANCH   1  14
HETATM   14  C9  UNL     1      26.637   5.249  48.854  1.00  0.00    -0.003 C 
HETATM   15  C8  UNL     1      27.910   5.157  48.542  1.00  0.00    -0.020 C 
BRANCH  15  16
HETATM   16  C6  UNL     1      28.665   6.429  48.444  1.00  0.00     0.037 C 
HETATM   17  C7  UNL     1      27.808   7.323  47.538  1.00  0.00     0.017 C 
BRANCH  16  18
HETATM   18  C5  UNL     1      30.029   6.197  47.824  1.00  0.00     0.153 C 
BRANCH  18  19
HETATM   19  C3  UNL     1      31.088   6.831  48.632  1.00  0.00    -0.059 C 
HETATM   20  C2  UNL     1      31.414   8.112  48.409  1.00  0.00    -0.026 C 
HETATM   21  C1  UNL     1      30.972   9.178  47.492  1.00  0.00     0.036 C 
HETATM   22  C4  UNL     1      31.738   5.978  49.668  1.00  0.00     0.046 C 
ENDBRANCH  18  19
BRANCH  18  23
HETATM   23  O1  UNL     1      30.218   4.804  47.849  1.00  0.00    -0.391 OA
HETATM   24  H9  UNL     1      30.566   4.500  48.718  1.00  0.00     0.210 HD
ENDBRANCH  18  23
ENDBRANCH  16  18
ENDBRANCH  15  16
ENDBRANCH   1  14
BRANCH  12  25
HETATM   25  O2  UNL     1      23.134   4.521  47.906  1.00  0.00    -0.381 OA
HETATM   26  C22 UNL     1      22.171   5.410  47.591  1.00  0.00     0.203 C 
ENDBRANCH  12  25
TORSDOF 6
ENDMDL
MODEL 9
REMARK VINA RESULT:      -7.0      2.537      4.559
REMARK  6 active torsions:
REMARK  status: ('A' for Active; 'I' for Inactive)
REMARK    1  A    between atoms: C3_3  and  C5_5 
REMARK    2  A    between atoms: C5_5  and  O1_6 
REMARK    3  A    between atoms: C5_5  and  C6_7 
REMARK    4  A    between atoms: C6_7  and  C8_9 
REMARK    5  A    between atoms: C9_10  and  C10_11 
REMARK    6  A    between atoms: C20_22  and  O2_24 
ROOT
HETATM    1  C10 UNL     1      23.286   0.979  52.293  1.00  0.00     0.006 C 
HETATM    2  C11 UNL     1      22.858   1.794  51.358  1.00  0.00    -0.044 C 
HETATM    3  C12 UNL     1      23.837   2.531  50.371  1.00  0.00     0.057 C 
HETATM    4  C13 UNL     1      23.495   3.884  50.619  1.00  0.00     0.126 C 
HETATM    5  N1  UNL     1      23.691   5.198  50.243  1.00  0.00    -0.394 N 
HETATM    6  C14 UNL     1      24.927   5.865  50.382  1.00  0.00     0.148 C 
HETATM    7  C15 UNL     1      22.491   5.910  49.731  1.00  0.00     0.085 C 
HETATM    8  C16 UNL     1      21.162   5.743  49.861  1.00  0.00     0.017 C 
HETATM    9  C17 UNL     1      20.004   5.027  50.394  1.00  0.00    -0.003 C 
HETATM   10  C18 UNL     1      19.619   3.987  51.185  1.00  0.00    -0.023 C 
HETATM   11  C19 UNL     1      20.915   3.430  51.654  1.00  0.00     0.069 C 
HETATM   12  C20 UNL     1      21.383   2.114  51.217  1.00  0.00     0.083 C 
HETATM   13  C21 UNL     1      20.918   1.741  49.811  1.00  0.00     0.051 C 
ENDROOT
BRANCH   1  14
HETATM   14  C9  UNL     1      24.189   0.222  53.106  1.00  0.00    -0.003 C 
HETATM   15  C8  UNL     1      24.484  -0.661  54.034  1.00  0.00    -0.020 C 
BRANCH  15  16
HETATM   16  C6  UNL     1      25.923  -0.884  54.309  1.00  0.00     0.037 C 
HETATM   17  C7  UNL     1      26.335   0.289  55.209  1.00  0.00     0.017 C 
BRANCH  16  18
HETATM   18  C5  UNL     1      26.723  -0.871  53.021  1.00  0.00     0.153 C 
BRANCH  18  19
HETATM   19  C3  UNL     1      27.970  -0.099  53.185  1.00  0.00    -0.059 C 
HETATM   20  C2  UNL     1      28.017   1.178  52.777  1.00  0.00    -0.026 C 
HETATM   21  C1  UNL     1      27.084   2.127  52.145  1.00  0.00     0.036 C 
HETATM   22  C4  UNL     1      29.119  -0.812  53.811  1.00  0.00     0.046 C 
ENDBRANCH  18  19
BRANCH  18  23
HETATM   23  O1  UNL     1      27.056  -2.215  52.776  1.00  0.00    -0.391 OA
HETATM   24  H9  UNL     1      27.994  -2.404  53.005  1.00  0.00     0.210 HD
ENDBRANCH  18  23
ENDBRANCH  16  18
ENDBRANCH  15  16
ENDBRANCH   1  14
BRANCH  12  25
HETATM   25  O2  UNL     1      20.778   1.151  52.013  1.00  0.00    -0.381 OA
HETATM   26  C22 UNL     1      19.885   0.317  51.444  1.00  0.00     0.203 C 
ENDBRANCH  12  25
TORSDOF 6
ENDMDL
