MODEL 1
REMARK VINA RESULT:      -8.9      0.000      0.000
REMARK  3 active torsions:
REMARK  status: ('A' for Active; 'I' for Inactive)
REMARK    1  A    between atoms: C3_3  and  C4_4 
REMARK    2  A    between atoms: C8_10  and  N3_11 
REMARK    3  A    between atoms: N3_11  and  C9_12 
ROOT
HETATM    1  C1  UNL     1      16.932  -1.358  52.773  1.00  0.00     0.012 C 
HETATM    2  C2  UNL     1      17.712  -0.602  52.226  1.00  0.00    -0.113 C 
HETATM    3  C3  UNL     1      18.631   0.322  51.568  1.00  0.00     0.127 C 
ENDROOT
BRANCH   3   4
HETATM    4  C4  UNL     1      19.995   0.126  52.159  1.00  0.00    -0.066 A 
HETATM    5  C5  UNL     1      20.120  -0.522  53.306  1.00  0.00     0.036 A 
HETATM    6  C6  UNL     1      21.500  -0.648  53.781  1.00  0.00     0.068 A 
HETATM    7  N1  UNL     1      21.650  -1.312  54.962  1.00  0.00    -0.241 NA
HETATM    8  C15 UNL     1      22.559  -0.126  53.068  1.00  0.00     0.017 A 
HETATM    9  C7  UNL     1      22.885  -1.448  55.427  1.00  0.00     0.235 A 
HETATM   10  N2  UNL     1      23.893  -0.945  54.741  1.00  0.00    -0.224 NA
HETATM   11  C8  UNL     1      23.851  -0.284  53.583  1.00  0.00     0.138 A 
HETATM   12  C16 UNL     1      22.427   0.596  51.789  1.00  0.00     0.049 A 
HETATM   13  C17 UNL     1      21.024   0.729  51.306  1.00  0.00     0.040 A 
BRANCH  11  14
HETATM   14  N3  UNL     1      24.959   0.231  52.895  1.00  0.00    -0.340 N 
HETATM   15  H6  UNL     1      24.757   0.912  52.102  1.00  0.00     0.167 HD
BRANCH  14  16
HETATM   16  C9  UNL     1      26.315  -0.026  53.103  1.00  0.00     0.035 A 
HETATM   17  C10 UNL     1      26.969  -1.212  52.851  1.00  0.00     0.032 A 
HETATM   18  C11 UNL     1      28.305  -1.481  53.051  1.00  0.00     0.046 A 
HETATM   19  C12 UNL     1      29.078  -0.458  53.557  1.00  0.00     0.138 A 
HETATM   20  F1  UNL     1      30.398  -0.645  53.781  1.00  0.00    -0.204 F 
HETATM   21  C13 UNL     1      28.514   0.766  53.840  1.00  0.00     0.074 A 
HETATM   22 CL1  UNL     1      29.485   2.072  54.484  1.00  0.00    -0.081 Cl
HETATM   23  C14 UNL     1      27.170   0.939  53.607  1.00  0.00     0.056 A 
ENDBRANCH  14  16
ENDBRANCH  11  14
ENDBRANCH   3   4
TORSDOF 3
ENDMDL
MODEL 2
REMARK VINA RESULT:      -8.6      4.604      6.163
REMARK  3 active torsions:
REMARK  status: ('A' for Active; 'I' for Inactive)
REMARK    1  A    between atoms: C3_3  and  C4_4 
REMARK    2  A    between atoms: C8_10  and  N3_11 
REMARK    3  A    between atoms: N3_11  and  C9_12 
ROOT
HETATM    1  C1  UNL     1      21.019  -0.351  54.600  1.00  0.00     0.012 C 
HETATM    2  C2  UNL     1      22.161  -0.735  54.760  1.00  0.00    -0.113 C 
HETATM    3  C3  UNL     1      23.525  -1.219  54.952  1.00  0.00     0.127 C 
ENDROOT
BRANCH   3   4
HETATM    4  C4  UNL     1      24.450  -0.338  54.163  1.00  0.00    -0.066 A 
HETATM    5  C5  UNL     1      25.615   0.011  54.683  1.00  0.00     0.036 A 
HETATM    6  C6  UNL     1      26.427   0.871  53.818  1.00  0.00     0.068 A 
HETATM    7  N1  UNL     1      27.632   1.242  54.336  1.00  0.00    -0.241 NA
HETATM    8  C15 UNL     1      25.986   1.265  52.573  1.00  0.00     0.017 A 
HETATM    9  C7  UNL     1      28.399   2.022  53.584  1.00  0.00     0.235 A 
HETATM   10  N2  UNL     1      27.971   2.396  52.394  1.00  0.00    -0.224 NA
HETATM   11  C8  UNL     1      26.815   2.088  51.802  1.00  0.00     0.138 A 
HETATM   12  C16 UNL     1      24.689   0.878  51.988  1.00  0.00     0.049 A 
HETATM   13  C17 UNL     1      23.860   0.007  52.866  1.00  0.00     0.040 A 
BRANCH  11  14
HETATM   14  N3  UNL     1      26.409   2.515  50.529  1.00  0.00    -0.340 N 
HETATM   15  H6  UNL     1      26.096   1.760  49.848  1.00  0.00     0.167 HD
BRANCH  14  16
HETATM   16  C9  UNL     1      26.356   3.813  50.018  1.00  0.00     0.035 A 
HETATM   17  C10 UNL     1      27.206   4.357  49.081  1.00  0.00     0.032 A 
HETATM   18  C11 UNL     1      27.166   5.633  48.566  1.00  0.00     0.046 A 
HETATM   19  C12 UNL     1      26.169   6.464  49.036  1.00  0.00     0.138 A 
HETATM   20  F1  UNL     1      26.064   7.731  48.579  1.00  0.00    -0.204 F 
HETATM   21  C13 UNL     1      25.270   6.009  49.974  1.00  0.00     0.074 A 
HETATM   22 CL1  UNL     1      24.002   7.053  50.578  1.00  0.00    -0.081 Cl
HETATM   23  C14 UNL     1      25.391   4.717  50.428  1.00  0.00     0.056 A 
ENDBRANCH  14  16
ENDBRANCH  11  14
ENDBRANCH   3   4
TORSDOF 3
ENDMDL
MODEL 3
REMARK VINA RESULT:      -8.5      5.082      7.578
REMARK  3 active torsions:
REMARK  status: ('A' for Active; 'I' for Inactive)
REMARK    1  A    between atoms: C3_3  and  C4_4 
REMARK    2  A    between atoms: C8_10  and  N3_11 
REMARK    3  A    between atoms: N3_11  and  C9_12 
ROOT
HETATM    1  C1  UNL     1      30.349   6.751  48.414  1.00  0.00     0.012 C 
HETATM    2  C2  UNL     1      29.166   6.867  48.157  1.00  0.00    -0.113 C 
HETATM    3  C3  UNL     1      27.752   7.008  47.825  1.00  0.00     0.127 C 
ENDROOT
BRANCH   3   4
HETATM    4  C4  UNL     1      26.967   6.094  48.720  1.00  0.00    -0.066 A 
HETATM    5  C5  UNL     1      25.960   6.581  49.424  1.00  0.00     0.036 A 
HETATM    6  C6  UNL     1      25.272   5.592  50.259  1.00  0.00     0.068 A 
HETATM    7  N1  UNL     1      24.231   6.075  50.994  1.00  0.00    -0.241 NA
HETATM    8  C15 UNL     1      25.667   4.271  50.284  1.00  0.00     0.017 A 
HETATM    9  C7  UNL     1      23.582   5.211  51.763  1.00  0.00     0.235 A 
HETATM   10  N2  UNL     1      23.965   3.949  51.784  1.00  0.00    -0.224 NA
HETATM   11  C8  UNL     1      24.964   3.382  51.106  1.00  0.00     0.138 A 
HETATM   12  C16 UNL     1      26.788   3.722  49.500  1.00  0.00     0.049 A 
HETATM   13  C17 UNL     1      27.490   4.726  48.654  1.00  0.00     0.040 A 
BRANCH  11  14
HETATM   14  N3  UNL     1      25.329   2.029  51.165  1.00  0.00    -0.340 N 
HETATM   15  H6  UNL     1      24.803   1.363  50.523  1.00  0.00     0.167 HD
BRANCH  14  16
HETATM   16  C9  UNL     1      26.300   1.419  51.960  1.00  0.00     0.035 A 
HETATM   17  C10 UNL     1      27.204   2.059  52.779  1.00  0.00     0.032 A 
HETATM   18  C11 UNL     1      28.167   1.473  53.569  1.00  0.00     0.046 A 
HETATM   19  C12 UNL     1      28.242   0.096  53.543  1.00  0.00     0.138 A 
HETATM   20  F1  UNL     1      29.161  -0.554  54.291  1.00  0.00    -0.204 F 
HETATM   21  C13 UNL     1      27.380  -0.632  52.754  1.00  0.00     0.074 A 
HETATM   22 CL1  UNL     1      27.464  -2.380  52.712  1.00  0.00    -0.081 Cl
HETATM   23  C14 UNL     1      26.450   0.043  51.999  1.00  0.00     0.056 A 
ENDBRANCH  14  16
ENDBRANCH  11  14
ENDBRANCH   3   4
TORSDOF 3
ENDMDL
MODEL 4
REMARK VINA RESULT:      -8.4      1.433      2.479
REMARK  3 active torsions:
REMARK  status: ('A' for Active; 'I' for Inactive)
REMARK    1  A    between atoms: C3_3  and  C4_4 
REMARK    2  A    between atoms: C8_10  and  N3_11 
REMARK    3  A    between atoms: N3_11  and  C9_12 
ROOT
HETATM    1  C1  UNL     1      18.094  -2.581  53.829  1.00  0.00     0.012 C 
HETATM    2  C2  UNL     1      18.166  -1.568  53.161  1.00  0.00    -0.113 C 
HETATM    3  C3  UNL     1      18.232  -0.344  52.368  1.00  0.00     0.127 C 
ENDROOT
BRANCH   3   4
HETATM    4  C4  UNL     1      19.665   0.094  52.301  1.00  0.00    -0.066 A 
HETATM    5  C5  UNL     1      20.103   0.724  51.223  1.00  0.00     0.036 A 
HETATM    6  C6  UNL     1      21.518   1.100  51.277  1.00  0.00     0.068 A 
HETATM    7  N1  UNL     1      21.988   1.750  50.175  1.00  0.00    -0.241 NA
HETATM    8  C15 UNL     1      22.301   0.809  52.374  1.00  0.00     0.017 A 
HETATM    9  C7  UNL     1      23.266   2.107  50.183  1.00  0.00     0.235 A 
HETATM   10  N2  UNL     1      24.010   1.825  51.235  1.00  0.00    -0.224 NA
HETATM   11  C8  UNL     1      23.645   1.198  52.355  1.00  0.00     0.138 A 
HETATM   12  C16 UNL     1      21.818   0.108  53.578  1.00  0.00     0.049 A 
HETATM   13  C17 UNL     1      20.381  -0.279  53.525  1.00  0.00     0.040 A 
BRANCH  11  14
HETATM   14  N3  UNL     1      24.481   0.922  53.447  1.00  0.00    -0.340 N 
HETATM   15  H6  UNL     1      24.084   1.119  54.415  1.00  0.00     0.167 HD
BRANCH  14  16
HETATM   16  C9  UNL     1      25.782   0.418  53.447  1.00  0.00     0.035 A 
HETATM   17  C10 UNL     1      26.176  -0.823  53.000  1.00  0.00     0.032 A 
HETATM   18  C11 UNL     1      27.455  -1.335  52.992  1.00  0.00     0.046 A 
HETATM   19  C12 UNL     1      28.455  -0.523  53.485  1.00  0.00     0.138 A 
HETATM   20  F1  UNL     1      29.735  -0.954  53.511  1.00  0.00    -0.204 F 
HETATM   21  C13 UNL     1      28.158   0.737  53.955  1.00  0.00     0.074 A 
HETATM   22 CL1  UNL     1      29.418   1.778  54.582  1.00  0.00    -0.081 Cl
HETATM   23  C14 UNL     1      26.851   1.160  53.921  1.00  0.00     0.056 A 
ENDBRANCH  14  16
ENDBRANCH  11  14
ENDBRANCH   3   4
TORSDOF 3
ENDMDL
MODEL 5
REMARK VINA RESULT:      -8.4      4.354      8.144
REMARK  3 active torsions:
REMARK  status: ('A' for Active; 'I' for Inactive)
REMARK    1  A    between atoms: C3_3  and  C4_4 
REMARK    2  A    between atoms: C8_10  and  N3_11 
REMARK    3  A    between atoms: N3_11  and  C9_12 
ROOT
HETATM    1  C1  UNL     1      28.831   0.213  54.697  1.00  0.00     0.012 C 
HETATM    2  C2  UNL     1      28.166  -0.286  53.808  1.00  0.00    -0.113 C 
HETATM    3  C3  UNL     1      27.378  -0.905  52.747  1.00  0.00     0.127 C 
ENDROOT
BRANCH   3   4
HETATM    4  C4  UNL     1      26.062  -0.190  52.664  1.00  0.00    -0.066 A 
HETATM    5  C5  UNL     1      25.958   0.896  51.916  1.00  0.00     0.036 A 
HETATM    6  C6  UNL     1      24.625   1.504  51.916  1.00  0.00     0.068 A 
HETATM    7  N1  UNL     1      24.497   2.625  51.151  1.00  0.00    -0.241 NA
HETATM    8  C15 UNL     1      23.586   0.964  52.643  1.00  0.00     0.017 A 
HETATM    9  C7  UNL     1      23.305   3.207  51.124  1.00  0.00     0.235 A 
HETATM   10  N2  UNL     1      22.315   2.686  51.823  1.00  0.00    -0.224 NA
HETATM   11  C8  UNL     1      22.339   1.598  52.596  1.00  0.00     0.138 A 
HETATM   12  C16 UNL     1      23.694  -0.247  53.477  1.00  0.00     0.049 A 
HETATM   13  C17 UNL     1      25.049  -0.865  53.483  1.00  0.00     0.040 A 
BRANCH  11  14
HETATM   14  N3  UNL     1      21.252   1.086  53.321  1.00  0.00    -0.340 N 
HETATM   15  H6  UNL     1      21.320   1.131  54.382  1.00  0.00     0.167 HD
BRANCH  14  16
HETATM   16  C9  UNL     1      20.072   0.516  52.840  1.00  0.00     0.035 A 
HETATM   17  C10 UNL     1      19.318   0.971  51.782  1.00  0.00     0.032 A 
HETATM   18  C11 UNL     1      18.154   0.420  51.295  1.00  0.00     0.046 A 
HETATM   19  C12 UNL     1      17.685  -0.710  51.932  1.00  0.00     0.138 A 
HETATM   20  F1  UNL     1      16.548  -1.309  51.513  1.00  0.00    -0.204 F 
HETATM   21  C13 UNL     1      18.372  -1.241  53.001  1.00  0.00     0.074 A 
HETATM   22 CL1  UNL     1      17.788  -2.674  53.817  1.00  0.00    -0.081 Cl
HETATM   23  C14 UNL     1      19.526  -0.619  53.414  1.00  0.00     0.056 A 
ENDBRANCH  14  16
ENDBRANCH  11  14
ENDBRANCH   3   4
TORSDOF 3
ENDMDL
MODEL 6
REMARK VINA RESULT:      -8.3      4.580      6.599
REMARK  3 active torsions:
REMARK  status: ('A' for Active; 'I' for Inactive)
REMARK    1  A    between atoms: C3_3  and  C4_4 
REMARK    2  A    between atoms: C8_10  and  N3_11 
REMARK    3  A    between atoms: N3_11  and  C9_12 
ROOT
HETATM    1  C1  UNL     1      27.060   9.063  49.994  1.00  0.00     0.012 C 
HETATM    2  C2  UNL     1      26.867   8.095  49.285  1.00  0.00    -0.113 C 
HETATM    3  C3  UNL     1      26.652   6.938  48.421  1.00  0.00     0.127 C 
ENDROOT
BRANCH   3   4
HETATM    4  C4  UNL     1      26.124   5.815  49.264  1.00  0.00    -0.066 A 
HETATM    5  C5  UNL     1      25.116   6.041  50.090  1.00  0.00     0.036 A 
HETATM    6  C6  UNL     1      24.690   4.868  50.858  1.00  0.00     0.068 A 
HETATM    7  N1  UNL     1      23.653   5.081  51.717  1.00  0.00    -0.241 NA
HETATM    8  C15 UNL     1      25.308   3.645  50.708  1.00  0.00     0.017 A 
HETATM    9  C7  UNL     1      23.237   4.044  52.431  1.00  0.00     0.235 A 
HETATM   10  N2  UNL     1      23.833   2.876  52.284  1.00  0.00    -0.224 NA
HETATM   11  C8  UNL     1      24.849   2.568  51.476  1.00  0.00     0.138 A 
HETATM   12  C16 UNL     1      26.430   3.386  49.788  1.00  0.00     0.049 A 
HETATM   13  C17 UNL     1      26.868   4.577  49.009  1.00  0.00     0.040 A 
BRANCH  11  14
HETATM   14  N3  UNL     1      25.446   1.304  51.358  1.00  0.00    -0.340 N 
HETATM   15  H6  UNL     1      25.074   0.669  50.590  1.00  0.00     0.167 HD
BRANCH  14  16
HETATM   16  C9  UNL     1      26.478   0.751  52.118  1.00  0.00     0.035 A 
HETATM   17  C10 UNL     1      26.750  -0.590  52.270  1.00  0.00     0.032 A 
HETATM   18  C11 UNL     1      27.764  -1.152  53.014  1.00  0.00     0.046 A 
HETATM   19  C12 UNL     1      28.601  -0.284  53.683  1.00  0.00     0.138 A 
HETATM   20  F1  UNL     1      29.619  -0.758  54.435  1.00  0.00    -0.204 F 
HETATM   21  C13 UNL     1      28.408   1.077  53.591  1.00  0.00     0.074 A 
HETATM   22 CL1  UNL     1      29.463   2.189  54.436  1.00  0.00    -0.081 Cl
HETATM   23  C14 UNL     1      27.368   1.543  52.823  1.00  0.00     0.056 A 
ENDBRANCH  14  16
ENDBRANCH  11  14
ENDBRANCH   3   4
TORSDOF 3
ENDMDL
MODEL 7
REMARK VINA RESULT:      -8.2      5.082      6.184
REMARK  3 active torsions:
REMARK  status: ('A' for Active; 'I' for Inactive)
REMARK    1  A    between atoms: C3_3  and  C4_4 
REMARK    2  A    between atoms: C8_10  and  N3_11 
REMARK    3  A    between atoms: N3_11  and  C9_12 
ROOT
HETATM    1  C1  UNL     1      21.819  -1.661  54.147  1.00  0.00     0.012 C 
HETATM    2  C2  UNL     1      21.658  -0.575  53.624  1.00  0.00    -0.113 C 
HETATM    3  C3  UNL     1      21.450   0.733  53.012  1.00  0.00     0.127 C 
ENDROOT
BRANCH   3   4
HETATM    4  C4  UNL     1      22.768   1.221  52.487  1.00  0.00    -0.066 A 
HETATM    5  C5  UNL     1      23.838   1.164  53.263  1.00  0.00     0.036 A 
HETATM    6  C6  UNL     1      25.063   1.669  52.638  1.00  0.00     0.068 A 
HETATM    7  N1  UNL     1      26.177   1.620  53.422  1.00  0.00    -0.241 NA
HETATM    8  C15 UNL     1      25.069   2.154  51.348  1.00  0.00     0.017 A 
HETATM    9  C7  UNL     1      27.309   2.068  52.894  1.00  0.00     0.235 A 
HETATM   10  N2  UNL     1      27.307   2.532  51.659  1.00  0.00    -0.224 NA
HETATM   11  C8  UNL     1      26.276   2.620  50.816  1.00  0.00     0.138 A 
HETATM   12  C16 UNL     1      23.880   2.217  50.477  1.00  0.00     0.049 A 
HETATM   13  C17 UNL     1      22.632   1.709  51.111  1.00  0.00     0.040 A 
BRANCH  11  14
HETATM   14  N3  UNL     1      26.331   3.123  49.508  1.00  0.00    -0.340 N 
HETATM   15  H6  UNL     1      26.187   2.423  48.719  1.00  0.00     0.167 HD
BRANCH  14  16
HETATM   16  C9  UNL     1      26.550   4.435  49.084  1.00  0.00     0.035 A 
HETATM   17  C10 UNL     1      25.609   5.438  49.015  1.00  0.00     0.032 A 
HETATM   18  C11 UNL     1      25.809   6.736  48.600  1.00  0.00     0.046 A 
HETATM   19  C12 UNL     1      27.088   7.076  48.210  1.00  0.00     0.138 A 
HETATM   20  F1  UNL     1      27.364   8.330  47.790  1.00  0.00    -0.204 F 
HETATM   21  C13 UNL     1      28.097   6.140  48.245  1.00  0.00     0.074 A 
HETATM   22 CL1  UNL     1      29.723   6.558  47.752  1.00  0.00    -0.081 Cl
HETATM   23  C14 UNL     1      27.799   4.868  48.675  1.00  0.00     0.056 A 
ENDBRANCH  14  16
ENDBRANCH  11  14
ENDBRANCH   3   4
TORSDOF 3
ENDMDL
MODEL 8
REMARK VINA RESULT:      -8.2      2.518      3.675
REMARK  3 active torsions:
REMARK  status: ('A' for Active; 'I' for Inactive)
REMARK    1  A    between atoms: C3_3  and  C4_4 
REMARK    2  A    between atoms: C8_10  and  N3_11 
REMARK    3  A    between atoms: N3_11  and  C9_12 
ROOT
HETATM    1  C1  UNL     1      20.462  -1.636  54.197  1.00  0.00     0.012 C 
HETATM    2  C2  UNL     1      20.354  -0.745  53.377  1.00  0.00    -0.113 C 
HETATM    3  C3  UNL     1      20.204   0.330  52.401  1.00  0.00     0.127 C 
ENDROOT
BRANCH   3   4
HETATM    4  C4  UNL     1      21.553   0.941  52.165  1.00  0.00    -0.066 A 
HETATM    5  C5  UNL     1      21.815   1.507  50.999  1.00  0.00     0.036 A 
HETATM    6  C6  UNL     1      23.165   2.067  50.890  1.00  0.00     0.068 A 
HETATM    7  N1  UNL     1      23.455   2.655  49.695  1.00  0.00    -0.241 NA
HETATM    8  C15 UNL     1      24.063   1.995  51.934  1.00  0.00     0.017 A 
HETATM    9  C7  UNL     1      24.668   3.175  49.555  1.00  0.00     0.235 A 
HETATM   10  N2  UNL     1      25.523   3.101  50.557  1.00  0.00    -0.224 NA
HETATM   11  C8  UNL     1      25.335   2.551  51.758  1.00  0.00     0.138 A 
HETATM   12  C16 UNL     1      23.776   1.366  53.236  1.00  0.00     0.049 A 
HETATM   13  C17 UNL     1      22.406   0.793  53.349  1.00  0.00     0.040 A 
BRANCH  11  14
HETATM   14  N3  UNL     1      26.282   2.501  52.792  1.00  0.00    -0.340 N 
HETATM   15  H6  UNL     1      26.269   3.301  53.493  1.00  0.00     0.167 HD
BRANCH  14  16
HETATM   16  C9  UNL     1      27.258   1.534  53.037  1.00  0.00     0.035 A 
HETATM   17  C10 UNL     1      28.526   1.759  53.524  1.00  0.00     0.032 A 
HETATM   18  C11 UNL     1      29.500   0.817  53.772  1.00  0.00     0.046 A 
HETATM   19  C12 UNL     1      29.177  -0.498  53.507  1.00  0.00     0.138 A 
HETATM   20  F1  UNL     1      30.078  -1.481  53.725  1.00  0.00    -0.204 F 
HETATM   21  C13 UNL     1      27.931  -0.823  53.018  1.00  0.00     0.074 A 
HETATM   22 CL1  UNL     1      27.509  -2.487  52.678  1.00  0.00    -0.081 Cl
HETATM   23  C14 UNL     1      27.026   0.189  52.803  1.00  0.00     0.056 A 
ENDBRANCH  14  16
ENDBRANCH  11  14
ENDBRANCH   3   4
TORSDOF 3
ENDMDL
MODEL 9
REMARK VINA RESULT:      -8.1      4.155      7.291
REMARK  3 active torsions:
REMARK  status: ('A' for Active; 'I' for Inactive)
REMARK    1  A    between atoms: C3_3  and  C4_4 
REMARK    2  A    between atoms: C8_10  and  N3_11 
REMARK    3  A    between atoms: N3_11  and  C9_12 
ROOT
HETATM    1  C1  UNL     1      29.768   0.105  53.790  1.00  0.00     0.012 C 
HETATM    2  C2  UNL     1      28.879  -0.626  53.399  1.00  0.00    -0.113 C 
HETATM    3  C3  UNL     1      27.819  -1.521  52.942  1.00  0.00     0.127 C 
ENDROOT
BRANCH   3   4
HETATM    4  C4  UNL     1      26.550  -0.729  52.838  1.00  0.00    -0.066 A 
HETATM    5  C5  UNL     1      25.490  -1.107  53.532  1.00  0.00     0.036 A 
HETATM    6  C6  UNL     1      24.312  -0.255  53.348  1.00  0.00     0.068 A 
HETATM    7  N1  UNL     1      23.208  -0.628  54.055  1.00  0.00    -0.241 NA
HETATM    8  C15 UNL     1      24.339   0.843  52.513  1.00  0.00     0.017 A 
HETATM    9  C7  UNL     1      22.120   0.118  53.915  1.00  0.00     0.235 A 
HETATM   10  N2  UNL     1      22.151   1.165  53.114  1.00  0.00    -0.224 NA
HETATM   11  C8  UNL     1      23.176   1.610  52.384  1.00  0.00     0.138 A 
HETATM   12  C16 UNL     1      25.518   1.269  51.737  1.00  0.00     0.049 A 
HETATM   13  C17 UNL     1      26.715   0.403  51.921  1.00  0.00     0.040 A 
BRANCH  11  14
HETATM   14  N3  UNL     1      23.155   2.735  51.546  1.00  0.00    -0.340 N 
HETATM   15  H6  UNL     1      23.434   3.664  51.985  1.00  0.00     0.167 HD
BRANCH  14  16
HETATM   16  C9  UNL     1      22.816   2.813  50.195  1.00  0.00     0.035 A 
HETATM   17  C10 UNL     1      22.309   1.793  49.421  1.00  0.00     0.032 A 
HETATM   18  C11 UNL     1      21.968   1.853  48.088  1.00  0.00     0.046 A 
HETATM   19  C12 UNL     1      22.152   3.063  47.452  1.00  0.00     0.138 A 
HETATM   20  F1  UNL     1      21.841   3.202  46.144  1.00  0.00    -0.204 F 
HETATM   21  C13 UNL     1      22.653   4.143  48.143  1.00  0.00     0.074 A 
HETATM   22 CL1  UNL     1      22.891   5.684  47.347  1.00  0.00    -0.081 Cl
HETATM   23  C14 UNL     1      22.964   3.985  49.473  1.00  0.00     0.056 A 
ENDBRANCH  14  16
ENDBRANCH  11  14
ENDBRANCH   3   4
TORSDOF 3
ENDMDL
