MODEL 1
REMARK VINA RESULT:      -8.2      0.000      0.000
REMARK  3 active torsions:
REMARK  status: ('A' for Active; 'I' for Inactive)
REMARK       I    between atoms: N1_1  and  C1_2 
REMARK       I    between atoms: C1_2  and  N2_4 
REMARK    1  A    between atoms: N2_4  and  C2_5 
REMARK    2  A    between atoms: C7_12  and  N5_13 
REMARK    3  A    between atoms: N5_13  and  C8_14 
ROOT
HETATM    1  C2  UNL     1      25.788   1.672  53.396  1.00  0.00     0.105 C 
HETATM    2  C3  UNL     1      24.905   0.696  53.381  1.00  0.00     0.050 C 
HETATM    3  C4  UNL     1      23.722   0.640  52.562  1.00  0.00     0.033 C 
HETATM    4  C5  UNL     1      23.464   1.622  51.725  1.00  0.00     0.066 C 
HETATM    5  N3  UNL     1      22.282   1.570  50.934  1.00  0.00    -0.244 NA
HETATM    6  C6  UNL     1      21.963   2.678  50.304  1.00  0.00     0.235 C 
HETATM    7  N4  UNL     1      22.762   3.842  50.387  1.00  0.00    -0.226 NA
HETATM    8  C7  UNL     1      23.863   3.909  51.049  1.00  0.00     0.134 C 
HETATM    9  C14 UNL     1      24.456   2.696  51.580  1.00  0.00     0.205 C 
HETATM   10  N6  UNL     1      25.430   2.791  52.597  1.00  0.00    -0.359 N 
HETATM   11  H13 UNL     1      25.896   3.718  52.755  1.00  0.00     0.162 HD
ENDROOT
BRANCH   8  12
HETATM   12  N5  UNL     1      24.527   5.139  51.054  1.00  0.00    -0.342 N 
HETATM   13  H7  UNL     1      24.236   5.835  51.801  1.00  0.00     0.167 HD
BRANCH  12  14
HETATM   14  C8  UNL     1      25.551   5.556  50.166  1.00  0.00     0.033 A 
HETATM   15  C9  UNL     1      26.396   4.741  49.451  1.00  0.00     0.031 A 
HETATM   16  C10 UNL     1      27.373   5.182  48.591  1.00  0.00     0.021 A 
HETATM   17  C11 UNL     1      27.549   6.538  48.406  1.00  0.00     0.011 A 
HETATM   18 BR1  UNL     1      28.881   7.222  47.230  1.00  0.00    -0.051 Br
HETATM   19  C12 UNL     1      26.732   7.405  49.097  1.00  0.00     0.021 A 
HETATM   20  C13 UNL     1      25.779   6.897  49.936  1.00  0.00     0.031 A 
ENDBRANCH  12  14
ENDBRANCH   8  12
BRANCH   1  21
HETATM   21  N2  UNL     1      26.972   1.795  54.160  1.00  0.00    -0.295 N 
HETATM   22  C1  UNL     1      28.261   2.181  53.718  1.00  0.00     0.319 C 
HETATM   23  N1  UNL     1      29.414   2.284  54.543  1.00  0.00    -0.352 N 
HETATM   24  O1  UNL     1      28.436   2.459  52.525  1.00  0.00    -0.247 OA
HETATM   25  H1  UNL     1      29.556   3.071  55.232  1.00  0.00     0.160 HD
HETATM   26  H2  UNL     1      30.035   1.478  54.331  1.00  0.00     0.160 HD
HETATM   27  H3  UNL     1      26.988   1.596  55.182  1.00  0.00     0.172 HD
ENDBRANCH   1  21
TORSDOF 3
ENDMDL
MODEL 2
REMARK VINA RESULT:      -8.0      3.155      5.553
REMARK  3 active torsions:
REMARK  status: ('A' for Active; 'I' for Inactive)
REMARK       I    between atoms: N1_1  and  C1_2 
REMARK       I    between atoms: C1_2  and  N2_4 
REMARK    1  A    between atoms: N2_4  and  C2_5 
REMARK    2  A    between atoms: C7_12  and  N5_13 
REMARK    3  A    between atoms: N5_13  and  C8_14 
ROOT
HETATM    1  C2  UNL     1      24.140   3.333  49.513  1.00  0.00     0.105 C 
HETATM    2  C3  UNL     1      23.205   2.868  48.710  1.00  0.00     0.050 C 
HETATM    3  C4  UNL     1      22.170   1.933  49.069  1.00  0.00     0.033 C 
HETATM    4  C5  UNL     1      22.100   1.485  50.304  1.00  0.00     0.066 C 
HETATM    5  N3  UNL     1      21.087   0.545  50.645  1.00  0.00    -0.244 NA
HETATM    6  C6  UNL     1      21.217  -0.037  51.816  1.00  0.00     0.235 C 
HETATM    7  N4  UNL     1      22.283   0.271  52.692  1.00  0.00    -0.226 NA
HETATM    8  C7  UNL     1      23.185   1.152  52.438  1.00  0.00     0.134 C 
HETATM    9  C14 UNL     1      23.022   2.041  51.304  1.00  0.00     0.205 C 
HETATM   10  N6  UNL     1      24.143   2.737  50.804  1.00  0.00    -0.359 N 
HETATM   11  H13 UNL     1      24.994   2.811  51.412  1.00  0.00     0.162 HD
ENDROOT
BRANCH   8  12
HETATM   12  N5  UNL     1      24.189   1.326  53.395  1.00  0.00    -0.342 N 
HETATM   13  H7  UNL     1      23.965   1.969  54.210  1.00  0.00     0.167 HD
BRANCH  12  14
HETATM   14  C8  UNL     1      25.477   0.733  53.394  1.00  0.00     0.033 A 
HETATM   15  C9  UNL     1      26.004  -0.077  52.417  1.00  0.00     0.031 A 
HETATM   16  C10 UNL     1      27.262  -0.629  52.446  1.00  0.00     0.021 A 
HETATM   17  C11 UNL     1      28.088  -0.372  53.520  1.00  0.00     0.011 A 
HETATM   18 BR1  UNL     1      29.845  -1.099  53.629  1.00  0.00    -0.051 Br
HETATM   19  C12 UNL     1      27.615   0.433  54.533  1.00  0.00     0.021 A 
HETATM   20  C13 UNL     1      26.351   0.950  54.439  1.00  0.00     0.031 A 
ENDBRANCH  12  14
ENDBRANCH   8  12
BRANCH   1  21
HETATM   21  N2  UNL     1      25.177   4.253  49.240  1.00  0.00    -0.295 N 
HETATM   22  C1  UNL     1      26.549   4.150  49.578  1.00  0.00     0.319 C 
HETATM   23  N1  UNL     1      27.544   5.117  49.271  1.00  0.00    -0.352 N 
HETATM   24  O1  UNL     1      26.950   3.152  50.189  1.00  0.00    -0.247 OA
HETATM   25  H1  UNL     1      27.927   5.255  48.297  1.00  0.00     0.160 HD
HETATM   26  H2  UNL     1      27.790   5.616  50.149  1.00  0.00     0.160 HD
HETATM   27  H3  UNL     1      25.000   5.144  48.731  1.00  0.00     0.172 HD
ENDBRANCH   1  21
TORSDOF 3
ENDMDL
MODEL 3
REMARK VINA RESULT:      -7.9      2.654      4.585
REMARK  3 active torsions:
REMARK  status: ('A' for Active; 'I' for Inactive)
REMARK       I    between atoms: N1_1  and  C1_2 
REMARK       I    between atoms: C1_2  and  N2_4 
REMARK    1  A    between atoms: N2_4  and  C2_5 
REMARK    2  A    between atoms: C7_12  and  N5_13 
REMARK    3  A    between atoms: N5_13  and  C8_14 
ROOT
HETATM    1  C2  UNL     1      24.169  -0.264  53.817  1.00  0.00     0.105 C 
HETATM    2  C3  UNL     1      25.009  -0.615  54.768  1.00  0.00     0.050 C 
HETATM    3  C4  UNL     1      26.329  -0.076  54.970  1.00  0.00     0.033 C 
HETATM    4  C5  UNL     1      26.776   0.867  54.167  1.00  0.00     0.066 C 
HETATM    5  N3  UNL     1      28.089   1.379  54.361  1.00  0.00    -0.244 NA
HETATM    6  C6  UNL     1      28.558   2.135  53.394  1.00  0.00     0.235 C 
HETATM    7  N4  UNL     1      27.793   2.440  52.245  1.00  0.00    -0.226 NA
HETATM    8  C7  UNL     1      26.585   2.038  52.062  1.00  0.00     0.134 C 
HETATM    9  C14 UNL     1      25.863   1.412  53.153  1.00  0.00     0.205 C 
HETATM   10  N6  UNL     1      24.710   0.649  52.872  1.00  0.00    -0.359 N 
HETATM   11  H13 UNL     1      24.250   0.769  51.937  1.00  0.00     0.162 HD
ENDROOT
BRANCH   8  12
HETATM   12  N5  UNL     1      25.969   2.404  50.862  1.00  0.00    -0.342 N 
HETATM   13  H7  UNL     1      25.348   1.676  50.402  1.00  0.00     0.167 HD
BRANCH  12  14
HETATM   14  C8  UNL     1      26.085   3.650  50.192  1.00  0.00     0.033 A 
HETATM   15  C9  UNL     1      27.050   4.001  49.279  1.00  0.00     0.031 A 
HETATM   16  C10 UNL     1      27.125   5.217  48.643  1.00  0.00     0.021 A 
HETATM   17  C11 UNL     1      26.178   6.182  48.915  1.00  0.00     0.011 A 
HETATM   18 BR1  UNL     1      26.217   7.889  48.070  1.00  0.00    -0.051 Br
HETATM   19  C12 UNL     1      25.185   5.888  49.823  1.00  0.00     0.021 A 
HETATM   20  C13 UNL     1      25.170   4.657  50.419  1.00  0.00     0.031 A 
ENDBRANCH  12  14
ENDBRANCH   8  12
BRANCH   1  21
HETATM   21  N2  UNL     1      22.862  -0.737  53.560  1.00  0.00    -0.295 N 
HETATM   22  C1  UNL     1      21.938  -1.297  54.477  1.00  0.00     0.319 C 
HETATM   23  N1  UNL     1      20.633  -1.755  54.150  1.00  0.00    -0.352 N 
HETATM   24  O1  UNL     1      22.258  -1.413  55.666  1.00  0.00    -0.247 OA
HETATM   25  H1  UNL     1      19.832  -1.100  53.943  1.00  0.00     0.160 HD
HETATM   26  H2  UNL     1      20.643  -2.794  54.161  1.00  0.00     0.160 HD
HETATM   27  H3  UNL     1      22.445  -0.708  52.605  1.00  0.00     0.172 HD
ENDBRANCH   1  21
TORSDOF 3
ENDMDL
MODEL 4
REMARK VINA RESULT:      -7.8      2.805      3.793
REMARK  3 active torsions:
REMARK  status: ('A' for Active; 'I' for Inactive)
REMARK       I    between atoms: N1_1  and  C1_2 
REMARK       I    between atoms: C1_2  and  N2_4 
REMARK    1  A    between atoms: N2_4  and  C2_5 
REMARK    2  A    between atoms: C7_12  and  N5_13 
REMARK    3  A    between atoms: N5_13  and  C8_14 
ROOT
HETATM    1  C2  UNL     1      24.566  -0.852  54.567  1.00  0.00     0.105 C 
HETATM    2  C3  UNL     1      23.590  -1.246  55.358  1.00  0.00     0.050 C 
HETATM    3  C4  UNL     1      22.180  -1.133  55.082  1.00  0.00     0.033 C 
HETATM    4  C5  UNL     1      21.782  -0.609  53.943  1.00  0.00     0.066 C 
HETATM    5  N3  UNL     1      20.388  -0.481  53.687  1.00  0.00    -0.244 NA
HETATM    6  C6  UNL     1      20.060   0.259  52.652  1.00  0.00     0.235 C 
HETATM    7  N4  UNL     1      21.035   0.868  51.828  1.00  0.00    -0.226 NA
HETATM    8  C7  UNL     1      22.303   0.730  51.999  1.00  0.00     0.134 C 
HETATM    9  C14 UNL     1      22.798  -0.254  52.942  1.00  0.00     0.205 C 
HETATM   10  N6  UNL     1      24.127  -0.160  53.405  1.00  0.00    -0.359 N 
HETATM   11  H13 UNL     1      24.800   0.438  52.867  1.00  0.00     0.162 HD
ENDROOT
BRANCH   8  12
HETATM   12  N5  UNL     1      23.140   1.415  51.114  1.00  0.00    -0.342 N 
HETATM   13  H7  UNL     1      23.651   0.830  50.391  1.00  0.00     0.167 HD
BRANCH  12  14
HETATM   14  C8  UNL     1      23.378   2.813  51.079  1.00  0.00     0.033 A 
HETATM   15  C9  UNL     1      23.230   3.695  52.122  1.00  0.00     0.031 A 
HETATM   16  C10 UNL     1      23.478   5.045  52.052  1.00  0.00     0.021 A 
HETATM   17  C11 UNL     1      23.911   5.592  50.862  1.00  0.00     0.011 A 
HETATM   18 BR1  UNL     1      24.277   7.453  50.691  1.00  0.00    -0.051 Br
HETATM   19  C12 UNL     1      24.077   4.757  49.779  1.00  0.00     0.021 A 
HETATM   20  C13 UNL     1      23.812   3.423  49.919  1.00  0.00     0.031 A 
ENDBRANCH  12  14
ENDBRANCH   8  12
BRANCH   1  21
HETATM   21  N2  UNL     1      25.963  -0.937  54.761  1.00  0.00    -0.295 N 
HETATM   22  C1  UNL     1      26.900   0.122  54.847  1.00  0.00     0.319 C 
HETATM   23  N1  UNL     1      28.299  -0.035  55.044  1.00  0.00    -0.352 N 
HETATM   24  O1  UNL     1      26.507   1.291  54.746  1.00  0.00    -0.247 OA
HETATM   25  H1  UNL     1      28.719  -0.309  55.973  1.00  0.00     0.160 HD
HETATM   26  H2  UNL     1      28.776   0.166  54.143  1.00  0.00     0.160 HD
HETATM   27  H3  UNL     1      26.448  -1.853  54.864  1.00  0.00     0.172 HD
ENDBRANCH   1  21
TORSDOF 3
ENDMDL
MODEL 5
REMARK VINA RESULT:      -7.5      3.319      4.237
REMARK  3 active torsions:
REMARK  status: ('A' for Active; 'I' for Inactive)
REMARK       I    between atoms: N1_1  and  C1_2 
REMARK       I    between atoms: C1_2  and  N2_4 
REMARK    1  A    between atoms: N2_4  and  C2_5 
REMARK    2  A    between atoms: C7_12  and  N5_13 
REMARK    3  A    between atoms: N5_13  and  C8_14 
ROOT
HETATM    1  C2  UNL     1      25.102  -0.726  54.546  1.00  0.00     0.105 C 
HETATM    2  C3  UNL     1      24.223  -1.311  55.332  1.00  0.00     0.050 C 
HETATM    3  C4  UNL     1      22.790  -1.194  55.231  1.00  0.00     0.033 C 
HETATM    4  C5  UNL     1      22.264  -0.459  54.275  1.00  0.00     0.066 C 
HETATM    5  N3  UNL     1      20.849  -0.332  54.196  1.00  0.00    -0.244 NA
HETATM    6  C6  UNL     1      20.402   0.595  53.378  1.00  0.00     0.235 C 
HETATM    7  N4  UNL     1      21.274   1.396  52.606  1.00  0.00    -0.226 NA
HETATM    8  C7  UNL     1      22.554   1.272  52.613  1.00  0.00     0.134 C 
HETATM    9  C14 UNL     1      23.162   0.132  53.273  1.00  0.00     0.205 C 
HETATM   10  N6  UNL     1      24.532   0.176  53.607  1.00  0.00    -0.359 N 
HETATM   11  H13 UNL     1      25.135   0.897  53.141  1.00  0.00     0.162 HD
ENDROOT
BRANCH   8  12
HETATM   12  N5  UNL     1      23.282   2.156  51.811  1.00  0.00    -0.342 N 
HETATM   13  H7  UNL     1      24.166   2.565  52.233  1.00  0.00     0.167 HD
BRANCH  12  14
HETATM   14  C8  UNL     1      22.964   2.564  50.490  1.00  0.00     0.033 A 
HETATM   15  C9  UNL     1      23.196   3.800  49.938  1.00  0.00     0.031 A 
HETATM   16  C10 UNL     1      22.881   4.157  48.648  1.00  0.00     0.021 A 
HETATM   17  C11 UNL     1      22.288   3.231  47.816  1.00  0.00     0.011 A 
HETATM   18 BR1  UNL     1      21.826   3.653  46.017  1.00  0.00    -0.051 Br
HETATM   19  C12 UNL     1      22.030   1.973  48.314  1.00  0.00     0.021 A 
HETATM   20  C13 UNL     1      22.370   1.685  49.608  1.00  0.00     0.031 A 
ENDBRANCH  12  14
ENDBRANCH   8  12
BRANCH   1  21
HETATM   21  N2  UNL     1      26.514  -0.799  54.574  1.00  0.00    -0.295 N 
HETATM   22  C1  UNL     1      27.442   0.265  54.690  1.00  0.00     0.319 C 
HETATM   23  N1  UNL     1      28.856   0.121  54.712  1.00  0.00    -0.352 N 
HETATM   24  O1  UNL     1      27.026   1.427  54.782  1.00  0.00    -0.247 OA
HETATM   25  H1  UNL     1      29.380  -0.256  55.547  1.00  0.00     0.160 HD
HETATM   26  H2  UNL     1      29.227   0.445  53.797  1.00  0.00     0.160 HD
HETATM   27  H3  UNL     1      27.018  -1.708  54.507  1.00  0.00     0.172 HD
ENDBRANCH   1  21
TORSDOF 3
ENDMDL
MODEL 6
REMARK VINA RESULT:      -7.3      4.943      7.972
REMARK  3 active torsions:
REMARK  status: ('A' for Active; 'I' for Inactive)
REMARK       I    between atoms: N1_1  and  C1_2 
REMARK       I    between atoms: C1_2  and  N2_4 
REMARK    1  A    between atoms: N2_4  and  C2_5 
REMARK    2  A    between atoms: C7_12  and  N5_13 
REMARK    3  A    between atoms: N5_13  and  C8_14 
ROOT
HETATM    1  C2  UNL     1      27.026   7.272  48.960  1.00  0.00     0.105 C 
HETATM    2  C3  UNL     1      26.373   8.345  48.564  1.00  0.00     0.050 C 
HETATM    3  C4  UNL     1      26.959   9.623  48.250  1.00  0.00     0.033 C 
HETATM    4  C5  UNL     1      28.263   9.778  48.336  1.00  0.00     0.066 C 
HETATM    5  N3  UNL     1      28.832  11.049  48.045  1.00  0.00    -0.244 NA
HETATM    6  C6  UNL     1      30.094  11.202  48.377  1.00  0.00     0.235 C 
HETATM    7  N4  UNL     1      30.846  10.158  48.964  1.00  0.00    -0.226 NA
HETATM    8  C7  UNL     1      30.379   8.981  49.192  1.00  0.00     0.134 C 
HETATM    9  C14 UNL     1      29.088   8.603  48.649  1.00  0.00     0.205 C 
HETATM   10  N6  UNL     1      28.412   7.487  49.186  1.00  0.00    -0.359 N 
HETATM   11  H13 UNL     1      28.960   6.805  49.765  1.00  0.00     0.162 HD
ENDROOT
BRANCH   8  12
HETATM   12  N5  UNL     1      31.240   8.064  49.800  1.00  0.00    -0.342 N 
HETATM   13  H7  UNL     1      31.339   8.128  50.855  1.00  0.00     0.167 HD
BRANCH  12  14
HETATM   14  C8  UNL     1      31.997   7.052  49.155  1.00  0.00     0.033 A 
HETATM   15  C9  UNL     1      31.605   5.754  48.932  1.00  0.00     0.031 A 
HETATM   16  C10 UNL     1      32.364   4.802  48.294  1.00  0.00     0.021 A 
HETATM   17  C11 UNL     1      33.618   5.137  47.828  1.00  0.00     0.011 A 
HETATM   18 BR1  UNL     1      34.726   3.872  46.934  1.00  0.00    -0.051 Br
HETATM   19  C12 UNL     1      34.067   6.425  48.024  1.00  0.00     0.021 A 
HETATM   20  C13 UNL     1      33.258   7.322  48.667  1.00  0.00     0.031 A 
ENDBRANCH  12  14
ENDBRANCH   8  12
BRANCH   1  21
HETATM   21  N2  UNL     1      26.526   5.988  49.275  1.00  0.00    -0.295 N 
HETATM   22  C1  UNL     1      27.131   4.730  49.033  1.00  0.00     0.319 C 
HETATM   23  N1  UNL     1      26.572   3.470  49.377  1.00  0.00    -0.352 N 
HETATM   24  O1  UNL     1      28.236   4.685  48.477  1.00  0.00    -0.247 OA
HETATM   25  H1  UNL     1      26.532   3.114  50.370  1.00  0.00     0.160 HD
HETATM   26  H2  UNL     1      26.239   3.015  48.504  1.00  0.00     0.160 HD
HETATM   27  H3  UNL     1      25.606   5.857  49.746  1.00  0.00     0.172 HD
ENDBRANCH   1  21
TORSDOF 3
ENDMDL
MODEL 7
REMARK VINA RESULT:      -7.2      4.043      6.526
REMARK  3 active torsions:
REMARK  status: ('A' for Active; 'I' for Inactive)
REMARK       I    between atoms: N1_1  and  C1_2 
REMARK       I    between atoms: C1_2  and  N2_4 
REMARK    1  A    between atoms: N2_4  and  C2_5 
REMARK    2  A    between atoms: C7_12  and  N5_13 
REMARK    3  A    between atoms: N5_13  and  C8_14 
ROOT
HETATM    1  C2  UNL     1      25.831   5.613  49.556  1.00  0.00     0.105 C 
HETATM    2  C3  UNL     1      24.984   6.338  48.856  1.00  0.00     0.050 C 
HETATM    3  C4  UNL     1      25.333   7.335  47.876  1.00  0.00     0.033 C 
HETATM    4  C5  UNL     1      26.600   7.567  47.610  1.00  0.00     0.066 C 
HETATM    5  N3  UNL     1      26.937   8.568  46.656  1.00  0.00    -0.244 NA
HETATM    6  C6  UNL     1      28.204   8.915  46.612  1.00  0.00     0.235 C 
HETATM    7  N4  UNL     1      29.175   8.311  47.443  1.00  0.00    -0.226 NA
HETATM    8  C7  UNL     1      28.915   7.367  48.278  1.00  0.00     0.134 C 
HETATM    9  C14 UNL     1      27.617   6.720  48.249  1.00  0.00     0.205 C 
HETATM   10  N6  UNL     1      27.194   5.969  49.366  1.00  0.00    -0.359 N 
HETATM   11  H13 UNL     1      27.915   5.670  50.067  1.00  0.00     0.162 HD
ENDROOT
BRANCH   8  12
HETATM   12  N5  UNL     1      29.980   6.888  49.047  1.00  0.00    -0.342 N 
HETATM   13  H7  UNL     1      29.990   7.165  50.072  1.00  0.00     0.167 HD
BRANCH  12  14
HETATM   14  C8  UNL     1      31.049   6.069  48.602  1.00  0.00     0.033 A 
HETATM   15  C9  UNL     1      30.952   4.974  47.778  1.00  0.00     0.031 A 
HETATM   16  C10 UNL     1      32.015   4.208  47.361  1.00  0.00     0.021 A 
HETATM   17  C11 UNL     1      33.288   4.533  47.778  1.00  0.00     0.011 A 
HETATM   18 BR1  UNL     1      34.808   3.519  47.239  1.00  0.00    -0.051 Br
HETATM   19  C12 UNL     1      33.448   5.622  48.606  1.00  0.00     0.021 A 
HETATM   20  C13 UNL     1      32.347   6.340  48.983  1.00  0.00     0.031 A 
ENDBRANCH  12  14
ENDBRANCH   8  12
BRANCH   1  21
HETATM   21  N2  UNL     1      25.568   4.616  50.522  1.00  0.00    -0.295 N 
HETATM   22  C1  UNL     1      26.130   3.319  50.616  1.00  0.00     0.319 C 
HETATM   23  N1  UNL     1      25.820   2.360  51.619  1.00  0.00    -0.352 N 
HETATM   24  O1  UNL     1      26.962   2.956  49.775  1.00  0.00    -0.247 OA
HETATM   25  H1  UNL     1      26.164   2.440  52.613  1.00  0.00     0.160 HD
HETATM   26  H2  UNL     1      25.228   1.623  51.187  1.00  0.00     0.160 HD
HETATM   27  H3  UNL     1      24.890   4.768  51.298  1.00  0.00     0.172 HD
ENDBRANCH   1  21
TORSDOF 3
ENDMDL
MODEL 8
REMARK VINA RESULT:      -7.1      4.789      7.586
REMARK  3 active torsions:
REMARK  status: ('A' for Active; 'I' for Inactive)
REMARK       I    between atoms: N1_1  and  C1_2 
REMARK       I    between atoms: C1_2  and  N2_4 
REMARK    1  A    between atoms: N2_4  and  C2_5 
REMARK    2  A    between atoms: C7_12  and  N5_13 
REMARK    3  A    between atoms: N5_13  and  C8_14 
ROOT
HETATM    1  C2  UNL     1      30.513   8.760  49.145  1.00  0.00     0.105 C 
HETATM    2  C3  UNL     1      30.704   9.626  48.171  1.00  0.00     0.050 C 
HETATM    3  C4  UNL     1      29.744  10.590  47.698  1.00  0.00     0.033 C 
HETATM    4  C5  UNL     1      28.560  10.662  48.268  1.00  0.00     0.066 C 
HETATM    5  N3  UNL     1      27.610  11.602  47.780  1.00  0.00    -0.244 NA
HETATM    6  C6  UNL     1      26.382  11.461  48.226  1.00  0.00     0.235 C 
HETATM    7  N4  UNL     1      26.034  10.452  49.154  1.00  0.00    -0.226 NA
HETATM    8  C7  UNL     1      26.877   9.620  49.656  1.00  0.00     0.134 C 
HETATM    9  C14 UNL     1      28.298   9.821  49.444  1.00  0.00     0.205 C 
HETATM   10  N6  UNL     1      29.188   8.747  49.658  1.00  0.00    -0.359 N 
HETATM   11  H13 UNL     1      28.850   7.925  50.214  1.00  0.00     0.162 HD
ENDROOT
BRANCH   8  12
HETATM   12  N5  UNL     1      26.374   8.665  50.544  1.00  0.00    -0.342 N 
HETATM   13  H7  UNL     1      26.416   8.905  51.577  1.00  0.00     0.167 HD
BRANCH  12  14
HETATM   14  C8  UNL     1      25.811   7.407  50.210  1.00  0.00     0.033 A 
HETATM   15  C9  UNL     1      26.285   6.520  49.273  1.00  0.00     0.031 A 
HETATM   16  C10 UNL     1      25.716   5.303  48.982  1.00  0.00     0.021 A 
HETATM   17  C11 UNL     1      24.583   4.908  49.661  1.00  0.00     0.011 A 
HETATM   18 BR1  UNL     1      23.740   3.236  49.313  1.00  0.00    -0.051 Br
HETATM   19  C12 UNL     1      24.059   5.756  50.612  1.00  0.00     0.021 A 
HETATM   20  C13 UNL     1      24.677   6.953  50.851  1.00  0.00     0.031 A 
ENDBRANCH  12  14
ENDBRANCH   8  12
BRANCH   1  21
HETATM   21  N2  UNL     1      31.403   7.796  49.670  1.00  0.00    -0.295 N 
HETATM   22  C1  UNL     1      31.364   6.389  49.505  1.00  0.00     0.319 C 
HETATM   23  N1  UNL     1      32.295   5.472  50.064  1.00  0.00    -0.352 N 
HETATM   24  O1  UNL     1      30.462   5.881  48.827  1.00  0.00    -0.247 OA
HETATM   25  H1  UNL     1      33.278   5.358  49.696  1.00  0.00     0.160 HD
HETATM   26  H2  UNL     1      31.829   4.978  50.851  1.00  0.00     0.160 HD
HETATM   27  H3  UNL     1      32.216   8.064  50.262  1.00  0.00     0.172 HD
ENDBRANCH   1  21
TORSDOF 3
ENDMDL
MODEL 9
REMARK VINA RESULT:      -7.1      4.016      5.149
REMARK  3 active torsions:
REMARK  status: ('A' for Active; 'I' for Inactive)
REMARK       I    between atoms: N1_1  and  C1_2 
REMARK       I    between atoms: C1_2  and  N2_4 
REMARK    1  A    between atoms: N2_4  and  C2_5 
REMARK    2  A    between atoms: C7_12  and  N5_13 
REMARK    3  A    between atoms: N5_13  and  C8_14 
ROOT
HETATM    1  C2  UNL     1      21.427   0.576  53.508  1.00  0.00     0.105 C 
HETATM    2  C3  UNL     1      20.276   0.797  52.907  1.00  0.00     0.050 C 
HETATM    3  C4  UNL     1      20.044   1.750  51.851  1.00  0.00     0.033 C 
HETATM    4  C5  UNL     1      21.044   2.478  51.402  1.00  0.00     0.066 C 
HETATM    5  N3  UNL     1      20.801   3.432  50.374  1.00  0.00    -0.244 NA
HETATM    6  C6  UNL     1      21.774   4.283  50.141  1.00  0.00     0.235 C 
HETATM    7  N4  UNL     1      22.997   4.236  50.851  1.00  0.00    -0.226 NA
HETATM    8  C7  UNL     1      23.269   3.356  51.748  1.00  0.00     0.134 C 
HETATM    9  C14 UNL     1      22.391   2.214  51.925  1.00  0.00     0.205 C 
HETATM   10  N6  UNL     1      22.466   1.463  53.117  1.00  0.00    -0.359 N 
HETATM   11  H13 UNL     1      23.317   1.571  53.721  1.00  0.00     0.162 HD
ENDROOT
BRANCH   8  12
HETATM   12  N5  UNL     1      24.513   3.456  52.378  1.00  0.00    -0.342 N 
HETATM   13  H7  UNL     1      24.775   4.408  52.768  1.00  0.00     0.167 HD
BRANCH  12  14
HETATM   14  C8  UNL     1      25.463   2.417  52.554  1.00  0.00     0.033 A 
HETATM   15  C9  UNL     1      25.931   1.564  51.584  1.00  0.00     0.031 A 
HETATM   16  C10 UNL     1      26.860   0.572  51.791  1.00  0.00     0.021 A 
HETATM   17  C11 UNL     1      27.387   0.391  53.053  1.00  0.00     0.011 A 
HETATM   18 BR1  UNL     1      28.680  -0.960  53.414  1.00  0.00    -0.051 Br
HETATM   19  C12 UNL     1      26.955   1.217  54.067  1.00  0.00     0.021 A 
HETATM   20  C13 UNL     1      26.027   2.184  53.791  1.00  0.00     0.031 A 
ENDBRANCH  12  14
ENDBRANCH   8  12
BRANCH   1  21
HETATM   21  N2  UNL     1      21.735  -0.342  54.538  1.00  0.00    -0.295 N 
HETATM   22  C1  UNL     1      22.968  -0.992  54.790  1.00  0.00     0.319 C 
HETATM   23  N1  UNL     1      23.211  -1.909  55.848  1.00  0.00    -0.352 N 
HETATM   24  O1  UNL     1      23.934  -0.770  54.049  1.00  0.00    -0.247 OA
HETATM   25  H1  UNL     1      23.313  -1.607  56.854  1.00  0.00     0.160 HD
HETATM   26  H2  UNL     1      23.262  -2.864  55.442  1.00  0.00     0.160 HD
HETATM   27  H3  UNL     1      21.026  -0.633  55.244  1.00  0.00     0.172 HD
ENDBRANCH   1  21
TORSDOF 3
ENDMDL
