MODEL 1
REMARK VINA RESULT:      -7.0      0.000      0.000
REMARK  3 active torsions:
REMARK  status: ('A' for Active; 'I' for Inactive)
REMARK    1  A    between atoms: O1_1  and  C1_2 
REMARK    2  A    between atoms: C6_8  and  N1_9 
REMARK    3  A    between atoms: N1_9  and  C7_10 
ROOT
HETATM    1  C7  UNL     1      25.270   3.946  50.229  1.00  0.00     0.304 C 
HETATM    2  N2  UNL     1      25.623   5.390  50.408  1.00  0.00    -0.273 N 
HETATM    3  N3  UNL     1      24.525   5.881  51.240  1.00  0.00    -0.179 NA
HETATM    4  C8  UNL     1      23.380   5.321  50.877  1.00  0.00     0.071 C 
HETATM    5  C9  UNL     1      22.427   4.971  51.926  1.00  0.00     0.030 C 
HETATM    6  C10 UNL     1      21.594   3.901  51.943  1.00  0.00     0.002 C 
HETATM    7  C11 UNL     1      21.591   2.642  51.152  1.00  0.00    -0.002 C 
HETATM    8  C12 UNL     1      22.391   2.327  50.127  1.00  0.00    -0.007 C 
HETATM    9  C13 UNL     1      23.359   2.791  49.137  1.00  0.00     0.148 C 
HETATM   10  N4  UNL     1      24.167   3.890  49.356  1.00  0.00    -0.367 N 
HETATM   11  C14 UNL     1      23.483   5.176  49.363  1.00  0.00     0.182 C 
HETATM   12  H7  UNL     1      26.308   6.153  50.187  1.00  0.00     0.186 HD
ENDROOT
BRANCH   1  13
HETATM   13  N1  UNL     1      25.162   3.307  51.502  1.00  0.00    -0.349 N 
HETATM   14  H5  UNL     1      24.540   3.858  52.177  1.00  0.00     0.163 HD
BRANCH  13  15
HETATM   15  C6  UNL     1      25.631   2.139  52.182  1.00  0.00     0.065 A 
HETATM   16  C1  UNL     1      26.966   1.897  52.534  1.00  0.00     0.109 A 
HETATM   17  C2  UNL     1      27.233   0.705  53.157  1.00  0.00     0.046 A 
HETATM   18 BR1  UNL     1      29.090   0.502  53.584  1.00  0.00    -0.048 Br
HETATM   19  C3  UNL     1      26.286  -0.246  53.451  1.00  0.00     0.022 A 
HETATM   20  C4  UNL     1      24.983  -0.011  53.107  1.00  0.00     0.004 A 
HETATM   21  C5  UNL     1      24.682   1.171  52.482  1.00  0.00     0.032 A 
BRANCH  16  22
HETATM   22  O1  UNL     1      27.891   2.883  52.221  1.00  0.00    -0.357 OA
HETATM   23  H1  UNL     1      27.588   3.788  51.855  1.00  0.00     0.217 HD
ENDBRANCH  16  22
ENDBRANCH  13  15
ENDBRANCH   1  13
TORSDOF 3
ENDMDL
MODEL 2
REMARK VINA RESULT:      -6.6      2.687      3.414
REMARK  3 active torsions:
REMARK  status: ('A' for Active; 'I' for Inactive)
REMARK    1  A    between atoms: O1_1  and  C1_2 
REMARK    2  A    between atoms: C6_8  and  N1_9 
REMARK    3  A    between atoms: N1_9  and  C7_10 
ROOT
HETATM    1  C7  UNL     1      23.233   3.620  51.380  1.00  0.00     0.304 C 
HETATM    2  N2  UNL     1      22.223   3.939  52.439  1.00  0.00    -0.273 N 
HETATM    3  N3  UNL     1      21.084   3.111  52.044  1.00  0.00    -0.179 NA
HETATM    4  C8  UNL     1      20.959   3.090  50.725  1.00  0.00     0.071 C 
HETATM    5  C9  UNL     1      20.553   1.836  50.097  1.00  0.00     0.030 C 
HETATM    6  C10 UNL     1      20.961   1.361  48.894  1.00  0.00     0.002 C 
HETATM    7  C11 UNL     1      22.108   1.733  48.024  1.00  0.00    -0.002 C 
HETATM    8  C12 UNL     1      22.968   2.742  48.205  1.00  0.00    -0.007 C 
HETATM    9  C13 UNL     1      23.280   3.976  48.921  1.00  0.00     0.148 C 
HETATM   10  N4  UNL     1      22.800   4.234  50.190  1.00  0.00    -0.367 N 
HETATM   11  C14 UNL     1      21.367   4.488  50.275  1.00  0.00     0.182 C 
HETATM   12  H7  UNL     1      22.017   4.490  53.307  1.00  0.00     0.186 HD
ENDROOT
BRANCH   1  13
HETATM   13  N1  UNL     1      23.500   2.216  51.363  1.00  0.00    -0.349 N 
HETATM   14  H5  UNL     1      23.186   1.759  50.448  1.00  0.00     0.163 HD
BRANCH  13  15
HETATM   15  C6  UNL     1      24.063   1.201  52.198  1.00  0.00     0.065 A 
HETATM   16  C1  UNL     1      23.364   0.494  53.186  1.00  0.00     0.109 A 
HETATM   17  C2  UNL     1      24.079  -0.425  53.910  1.00  0.00     0.046 A 
HETATM   18 BR1  UNL     1      23.007  -1.318  55.223  1.00  0.00    -0.048 Br
HETATM   19  C3  UNL     1      25.415  -0.688  53.725  1.00  0.00     0.022 A 
HETATM   20  C4  UNL     1      26.099   0.002  52.762  1.00  0.00     0.004 A 
HETATM   21  C5  UNL     1      25.413   0.929  52.020  1.00  0.00     0.032 A 
BRANCH  16  22
HETATM   22  O1  UNL     1      22.016   0.788  53.340  1.00  0.00    -0.357 OA
HETATM   23  H1  UNL     1      21.717   1.695  53.706  1.00  0.00     0.217 HD
ENDBRANCH  16  22
ENDBRANCH  13  15
ENDBRANCH   1  13
TORSDOF 3
ENDMDL
MODEL 3
REMARK VINA RESULT:      -6.5      1.821      2.583
REMARK  3 active torsions:
REMARK  status: ('A' for Active; 'I' for Inactive)
REMARK    1  A    between atoms: O1_1  and  C1_2 
REMARK    2  A    between atoms: C6_8  and  N1_9 
REMARK    3  A    between atoms: N1_9  and  C7_10 
ROOT
HETATM    1  C7  UNL     1      25.611   5.399  49.331  1.00  0.00     0.304 C 
HETATM    2  N2  UNL     1      26.653   6.435  49.619  1.00  0.00    -0.273 N 
HETATM    3  N3  UNL     1      25.913   7.409  50.421  1.00  0.00    -0.179 NA
HETATM    4  C8  UNL     1      24.678   7.548  49.962  1.00  0.00     0.071 C 
HETATM    5  C9  UNL     1      23.603   7.726  50.933  1.00  0.00     0.030 C 
HETATM    6  C10 UNL     1      22.335   7.256  50.838  1.00  0.00     0.002 C 
HETATM    7  C11 UNL     1      21.734   6.208  49.969  1.00  0.00    -0.002 C 
HETATM    8  C12 UNL     1      22.328   5.545  48.971  1.00  0.00    -0.007 C 
HETATM    9  C13 UNL     1      23.471   5.454  48.066  1.00  0.00     0.148 C 
HETATM   10  N4  UNL     1      24.715   5.955  48.398  1.00  0.00    -0.367 N 
HETATM   11  C14 UNL     1      24.809   7.408  48.449  1.00  0.00     0.182 C 
HETATM   12  H7  UNL     1      27.651   6.726  49.484  1.00  0.00     0.186 HD
ENDROOT
BRANCH   1  13
HETATM   13  N1  UNL     1      25.083   4.881  50.553  1.00  0.00    -0.349 N 
HETATM   14  H5  UNL     1      24.731   5.658  51.200  1.00  0.00     0.163 HD
BRANCH  13  15
HETATM   15  C6  UNL     1      24.871   3.626  51.206  1.00  0.00     0.065 A 
HETATM   16  C1  UNL     1      25.881   2.713  51.539  1.00  0.00     0.109 A 
HETATM   17  C2  UNL     1      25.484   1.546  52.138  1.00  0.00     0.046 A 
HETATM   18 BR1  UNL     1      26.960   0.390  52.539  1.00  0.00    -0.048 Br
HETATM   19  C3  UNL     1      24.180   1.226  52.426  1.00  0.00     0.022 A 
HETATM   20  C4  UNL     1      23.193   2.116  52.102  1.00  0.00     0.004 A 
HETATM   21  C5  UNL     1      23.556   3.294  51.501  1.00  0.00     0.032 A 
BRANCH  16  22
HETATM   22  O1  UNL     1      27.186   3.074  51.232  1.00  0.00    -0.357 OA
HETATM   23  H1  UNL     1      27.557   3.984  51.515  1.00  0.00     0.217 HD
ENDBRANCH  16  22
ENDBRANCH  13  15
ENDBRANCH   1  13
TORSDOF 3
ENDMDL
MODEL 4
REMARK VINA RESULT:      -6.5      3.603      5.145
REMARK  3 active torsions:
REMARK  status: ('A' for Active; 'I' for Inactive)
REMARK    1  A    between atoms: O1_1  and  C1_2 
REMARK    2  A    between atoms: C6_8  and  N1_9 
REMARK    3  A    between atoms: N1_9  and  C7_10 
ROOT
HETATM    1  C7  UNL     1      23.590   5.792  51.689  1.00  0.00     0.304 C 
HETATM    2  N2  UNL     1      23.660   5.158  53.044  1.00  0.00    -0.273 N 
HETATM    3  N3  UNL     1      23.665   3.731  52.722  1.00  0.00    -0.179 NA
HETATM    4  C8  UNL     1      22.853   3.481  51.705  1.00  0.00     0.071 C 
HETATM    5  C9  UNL     1      23.269   2.477  50.730  1.00  0.00     0.030 C 
HETATM    6  C10 UNL     1      23.033   2.494  49.394  1.00  0.00     0.002 C 
HETATM    7  C11 UNL     1      22.612   3.590  48.482  1.00  0.00    -0.002 C 
HETATM    8  C12 UNL     1      22.256   4.835  48.820  1.00  0.00    -0.007 C 
HETATM    9  C13 UNL     1      21.876   5.756  49.889  1.00  0.00     0.148 C 
HETATM   10  N4  UNL     1      22.289   5.580  51.195  1.00  0.00    -0.367 N 
HETATM   11  C14 UNL     1      21.690   4.448  51.891  1.00  0.00     0.182 C 
HETATM   12  H7  UNL     1      23.706   5.319  54.079  1.00  0.00     0.186 HD
ENDROOT
BRANCH   1  13
HETATM   13  N1  UNL     1      24.697   5.369  50.891  1.00  0.00    -0.349 N 
HETATM   14  H5  UNL     1      24.822   4.306  50.909  1.00  0.00     0.163 HD
BRANCH  13  15
HETATM   15  C6  UNL     1      25.718   5.924  50.057  1.00  0.00     0.065 A 
HETATM   16  C1  UNL     1      26.006   7.291  49.942  1.00  0.00     0.109 A 
HETATM   17  C2  UNL     1      27.003   7.640  49.069  1.00  0.00     0.046 A 
HETATM   18 BR1  UNL     1      27.294   9.533  49.008  1.00  0.00    -0.048 Br
HETATM   19  C3  UNL     1      27.723   6.745  48.315  1.00  0.00     0.022 A 
HETATM   20  C4  UNL     1      27.443   5.410  48.426  1.00  0.00     0.004 A 
HETATM   21  C5  UNL     1      26.450   5.027  49.291  1.00  0.00     0.032 A 
BRANCH  16  22
HETATM   22  O1  UNL     1      25.257   8.163  50.721  1.00  0.00    -0.357 OA
HETATM   23  H1  UNL     1      24.236   8.175  50.658  1.00  0.00     0.217 HD
ENDBRANCH  16  22
ENDBRANCH  13  15
ENDBRANCH   1  13
TORSDOF 3
ENDMDL
MODEL 5
REMARK VINA RESULT:      -6.5      3.158      4.161
REMARK  3 active torsions:
REMARK  status: ('A' for Active; 'I' for Inactive)
REMARK    1  A    between atoms: O1_1  and  C1_2 
REMARK    2  A    between atoms: C6_8  and  N1_9 
REMARK    3  A    between atoms: N1_9  and  C7_10 
ROOT
HETATM    1  C7  UNL     1      21.907   4.135  52.344  1.00  0.00     0.304 C 
HETATM    2  N2  UNL     1      20.462   3.799  52.138  1.00  0.00    -0.273 N 
HETATM    3  N3  UNL     1      20.443   3.340  50.749  1.00  0.00    -0.179 NA
HETATM    4  C8  UNL     1      21.263   4.069  50.006  1.00  0.00     0.071 C 
HETATM    5  C9  UNL     1      22.024   3.391  48.961  1.00  0.00     0.030 C 
HETATM    6  C10 UNL     1      23.285   3.680  48.557  1.00  0.00     0.002 C 
HETATM    7  C11 UNL     1      24.366   4.478  49.194  1.00  0.00    -0.002 C 
HETATM    8  C12 UNL     1      24.283   5.208  50.312  1.00  0.00    -0.007 C 
HETATM    9  C13 UNL     1      23.417   5.821  51.317  1.00  0.00     0.148 C 
HETATM   10  N4  UNL     1      22.169   5.315  51.622  1.00  0.00    -0.367 N 
HETATM   11  C14 UNL     1      21.160   5.476  50.583  1.00  0.00     0.182 C 
HETATM   12  H7  UNL     1      19.507   3.762  52.569  1.00  0.00     0.186 HD
ENDROOT
BRANCH   1  13
HETATM   13  N1  UNL     1      22.718   2.988  52.089  1.00  0.00    -0.349 N 
HETATM   14  H5  UNL     1      23.214   3.049  51.142  1.00  0.00     0.163 HD
BRANCH  13  15
HETATM   15  C6  UNL     1      23.089   1.752  52.707  1.00  0.00     0.065 A 
HETATM   16  C1  UNL     1      22.188   0.781  53.163  1.00  0.00     0.109 A 
HETATM   17  C2  UNL     1      22.727  -0.331  53.758  1.00  0.00     0.046 A 
HETATM   18 BR1  UNL     1      21.389  -1.576  54.334  1.00  0.00    -0.048 Br
HETATM   19  C3  UNL     1      24.074  -0.543  53.928  1.00  0.00     0.022 A 
HETATM   20  C4  UNL     1      24.954   0.404  53.483  1.00  0.00     0.004 A 
HETATM   21  C5  UNL     1      24.448   1.529  52.884  1.00  0.00     0.032 A 
BRANCH  16  22
HETATM   22  O1  UNL     1      20.836   1.032  52.972  1.00  0.00    -0.357 OA
HETATM   23  H1  UNL     1      20.483   1.991  52.930  1.00  0.00     0.217 HD
ENDBRANCH  16  22
ENDBRANCH  13  15
ENDBRANCH   1  13
TORSDOF 3
ENDMDL
MODEL 6
REMARK VINA RESULT:      -6.4      2.256      3.293
REMARK  3 active torsions:
REMARK  status: ('A' for Active; 'I' for Inactive)
REMARK    1  A    between atoms: O1_1  and  C1_2 
REMARK    2  A    between atoms: C6_8  and  N1_9 
REMARK    3  A    between atoms: N1_9  and  C7_10 
ROOT
HETATM    1  C7  UNL     1      21.867   3.362  52.027  1.00  0.00     0.304 C 
HETATM    2  N2  UNL     1      20.535   3.004  52.609  1.00  0.00    -0.273 N 
HETATM    3  N3  UNL     1      20.034   2.013  51.657  1.00  0.00    -0.179 NA
HETATM    4  C8  UNL     1      20.360   2.351  50.418  1.00  0.00     0.071 C 
HETATM    5  C9  UNL     1      20.735   1.285  49.494  1.00  0.00     0.030 C 
HETATM    6  C10 UNL     1      21.665   1.352  48.510  1.00  0.00     0.002 C 
HETATM    7  C11 UNL     1      22.769   2.318  48.261  1.00  0.00    -0.002 C 
HETATM    8  C12 UNL     1      23.025   3.446  48.933  1.00  0.00    -0.007 C 
HETATM    9  C13 UNL     1      22.550   4.438  49.893  1.00  0.00     0.148 C 
HETATM   10  N4  UNL     1      21.626   4.132  50.873  1.00  0.00    -0.367 N 
HETATM   11  C14 UNL     1      20.274   3.873  50.397  1.00  0.00     0.182 C 
HETATM   12  H7  UNL     1      19.852   3.170  53.387  1.00  0.00     0.186 HD
ENDROOT
BRANCH   1  13
HETATM   13  N1  UNL     1      22.680   2.193  51.907  1.00  0.00    -0.349 N 
HETATM   14  H5  UNL     1      22.402   1.596  51.063  1.00  0.00     0.163 HD
BRANCH  13  15
HETATM   15  C6  UNL     1      23.772   1.549  52.569  1.00  0.00     0.065 A 
HETATM   16  C1  UNL     1      25.073   2.062  52.657  1.00  0.00     0.109 A 
HETATM   17  C2  UNL     1      25.999   1.288  53.308  1.00  0.00     0.046 A 
HETATM   18 BR1  UNL     1      27.732   2.105  53.357  1.00  0.00    -0.048 Br
HETATM   19  C3  UNL     1      25.729   0.063  53.869  1.00  0.00     0.022 A 
HETATM   20  C4  UNL     1      24.460  -0.439  53.784  1.00  0.00     0.004 A 
HETATM   21  C5  UNL     1      23.510   0.310  53.138  1.00  0.00     0.032 A 
BRANCH  16  22
HETATM   22  O1  UNL     1      25.304   3.303  52.079  1.00  0.00    -0.357 OA
HETATM   23  H1  UNL     1      26.159   3.481  51.546  1.00  0.00     0.217 HD
ENDBRANCH  16  22
ENDBRANCH  13  15
ENDBRANCH   1  13
TORSDOF 3
ENDMDL
MODEL 7
REMARK VINA RESULT:      -6.4      7.774      9.741
REMARK  3 active torsions:
REMARK  status: ('A' for Active; 'I' for Inactive)
REMARK    1  A    between atoms: O1_1  and  C1_2 
REMARK    2  A    between atoms: C6_8  and  N1_9 
REMARK    3  A    between atoms: N1_9  and  C7_10 
ROOT
HETATM    1  C7  UNL     1      32.587   6.196  48.813  1.00  0.00     0.304 C 
HETATM    2  N2  UNL     1      33.045   7.615  48.937  1.00  0.00    -0.273 N 
HETATM    3  N3  UNL     1      33.175   8.026  47.539  1.00  0.00    -0.179 NA
HETATM    4  C8  UNL     1      33.660   7.035  46.806  1.00  0.00     0.071 C 
HETATM    5  C9  UNL     1      33.133   6.862  45.456  1.00  0.00     0.030 C 
HETATM    6  C10 UNL     1      32.937   5.689  44.804  1.00  0.00     0.002 C 
HETATM    7  C11 UNL     1      32.868   4.287  45.295  1.00  0.00    -0.002 C 
HETATM    8  C12 UNL     1      33.103   3.853  46.539  1.00  0.00    -0.007 C 
HETATM    9  C13 UNL     1      33.639   4.153  47.864  1.00  0.00     0.148 C 
HETATM   10  N4  UNL     1      33.686   5.439  48.366  1.00  0.00    -0.367 N 
HETATM   11  C14 UNL     1      34.649   6.324  47.723  1.00  0.00     0.182 C 
HETATM   12  H7  UNL     1      33.297   8.395  49.592  1.00  0.00     0.186 HD
ENDROOT
BRANCH   1  13
HETATM   13  N1  UNL     1      31.372   6.136  48.063  1.00  0.00    -0.349 N 
HETATM   14  H5  UNL     1      31.533   5.789  47.064  1.00  0.00     0.163 HD
BRANCH  13  15
HETATM   15  C6  UNL     1      29.975   6.400  48.223  1.00  0.00     0.065 A 
HETATM   16  C1  UNL     1      29.411   7.674  48.372  1.00  0.00     0.109 A 
HETATM   17  C2  UNL     1      28.052   7.731  48.544  1.00  0.00     0.046 A 
HETATM   18 BR1  UNL     1      27.412   9.528  48.734  1.00  0.00    -0.048 Br
HETATM   19  C3  UNL     1      27.228   6.633  48.577  1.00  0.00     0.022 A 
HETATM   20  C4  UNL     1      27.777   5.388  48.432  1.00  0.00     0.004 A 
HETATM   21  C5  UNL     1      29.134   5.296  48.259  1.00  0.00     0.032 A 
BRANCH  16  22
HETATM   22  O1  UNL     1      30.277   8.758  48.332  1.00  0.00    -0.357 OA
HETATM   23  H1  UNL     1      31.285   8.628  48.445  1.00  0.00     0.217 HD
ENDBRANCH  16  22
ENDBRANCH  13  15
ENDBRANCH   1  13
TORSDOF 3
ENDMDL
MODEL 8
REMARK VINA RESULT:      -6.4      7.804      9.276
REMARK  3 active torsions:
REMARK  status: ('A' for Active; 'I' for Inactive)
REMARK    1  A    between atoms: O1_1  and  C1_2 
REMARK    2  A    between atoms: C6_8  and  N1_9 
REMARK    3  A    between atoms: N1_9  and  C7_10 
ROOT
HETATM    1  C7  UNL     1      30.700   7.330  49.147  1.00  0.00     0.304 C 
HETATM    2  N2  UNL     1      29.513   6.432  48.987  1.00  0.00    -0.273 N 
HETATM    3  N3  UNL     1      29.208   6.566  47.563  1.00  0.00    -0.179 NA
HETATM    4  C8  UNL     1      29.391   7.816  47.163  1.00  0.00     0.071 C 
HETATM    5  C9  UNL     1      29.957   8.034  45.835  1.00  0.00     0.030 C 
HETATM    6  C10 UNL     1      30.802   9.027  45.465  1.00  0.00     0.002 C 
HETATM    7  C11 UNL     1      31.643   9.956  46.266  1.00  0.00    -0.002 C 
HETATM    8  C12 UNL     1      31.666  10.085  47.597  1.00  0.00    -0.007 C 
HETATM    9  C13 UNL     1      31.022   9.779  48.872  1.00  0.00     0.148 C 
HETATM   10  N4  UNL     1      30.238   8.656  49.051  1.00  0.00    -0.367 N 
HETATM   11  C14 UNL     1      28.960   8.669  48.351  1.00  0.00     0.182 C 
HETATM   12  H7  UNL     1      28.846   5.777  49.463  1.00  0.00     0.186 HD
ENDROOT
BRANCH   1  13
HETATM   13  N1  UNL     1      31.752   6.912  48.275  1.00  0.00    -0.349 N 
HETATM   14  H5  UNL     1      31.904   7.601  47.470  1.00  0.00     0.163 HD
BRANCH  13  15
HETATM   15  C6  UNL     1      32.688   5.841  48.127  1.00  0.00     0.065 A 
HETATM   16  C1  UNL     1      32.360   4.534  47.743  1.00  0.00     0.109 A 
HETATM   17  C2  UNL     1      33.389   3.631  47.683  1.00  0.00     0.046 A 
HETATM   18 BR1  UNL     1      32.804   1.887  47.145  1.00  0.00    -0.048 Br
HETATM   19  C3  UNL     1      34.699   3.927  47.973  1.00  0.00     0.022 A 
HETATM   20  C4  UNL     1      35.022   5.203  48.348  1.00  0.00     0.004 A 
HETATM   21  C5  UNL     1      34.015   6.131  48.418  1.00  0.00     0.032 A 
BRANCH  16  22
HETATM   22  O1  UNL     1      31.026   4.275  47.458  1.00  0.00    -0.357 OA
HETATM   23  H1  UNL     1      30.718   4.109  46.497  1.00  0.00     0.217 HD
ENDBRANCH  16  22
ENDBRANCH  13  15
ENDBRANCH   1  13
TORSDOF 3
ENDMDL
MODEL 9
REMARK VINA RESULT:      -6.2      3.280      5.313
REMARK  3 active torsions:
REMARK  status: ('A' for Active; 'I' for Inactive)
REMARK    1  A    between atoms: O1_1  and  C1_2 
REMARK    2  A    between atoms: C6_8  and  N1_9 
REMARK    3  A    between atoms: N1_9  and  C7_10 
ROOT
HETATM    1  C7  UNL     1      24.545   5.285  50.770  1.00  0.00     0.304 C 
HETATM    2  N2  UNL     1      25.275   4.085  51.288  1.00  0.00    -0.273 N 
HETATM    3  N3  UNL     1      24.894   3.048  50.329  1.00  0.00    -0.179 NA
HETATM    4  C8  UNL     1      23.625   3.186  49.973  1.00  0.00     0.071 C 
HETATM    5  C9  UNL     1      23.271   2.917  48.583  1.00  0.00     0.030 C 
HETATM    6  C10 UNL     1      22.330   3.556  47.846  1.00  0.00     0.002 C 
HETATM    7  C11 UNL     1      21.629   4.851  48.050  1.00  0.00    -0.002 C 
HETATM    8  C12 UNL     1      21.707   5.655  49.117  1.00  0.00    -0.007 C 
HETATM    9  C13 UNL     1      22.131   5.816  50.505  1.00  0.00     0.148 C 
HETATM   10  N4  UNL     1      23.177   5.093  51.045  1.00  0.00    -0.367 N 
HETATM   11  C14 UNL     1      22.921   3.671  51.235  1.00  0.00     0.182 C 
HETATM   12  H7  UNL     1      25.918   3.709  52.026  1.00  0.00     0.186 HD
ENDROOT
BRANCH   1  13
HETATM   13  N1  UNL     1      24.936   5.554  49.423  1.00  0.00    -0.349 N 
HETATM   14  H5  UNL     1      24.220   5.189  48.716  1.00  0.00     0.163 HD
BRANCH  13  15
HETATM   15  C6  UNL     1      26.006   6.167  48.698  1.00  0.00     0.065 A 
HETATM   16  C1  UNL     1      27.344   5.751  48.735  1.00  0.00     0.109 A 
HETATM   17  C2  UNL     1      28.238   6.481  47.995  1.00  0.00     0.046 A 
HETATM   18 BR1  UNL     1      30.026   5.807  48.133  1.00  0.00    -0.048 Br
HETATM   19  C3  UNL     1      27.904   7.574  47.233  1.00  0.00     0.022 A 
HETATM   20  C4  UNL     1      26.598   7.981  47.195  1.00  0.00     0.004 A 
HETATM   21  C5  UNL     1      25.679   7.273  47.925  1.00  0.00     0.032 A 
BRANCH  16  22
HETATM   22  O1  UNL     1      27.640   4.642  49.516  1.00  0.00    -0.357 OA
HETATM   23  H1  UNL     1      27.298   4.572  50.477  1.00  0.00     0.217 HD
ENDBRANCH  16  22
ENDBRANCH  13  15
ENDBRANCH   1  13
TORSDOF 3
ENDMDL
