MODEL 1
REMARK VINA RESULT:      -7.9      0.000      0.000
REMARK  5 active torsions:
REMARK  status: ('A' for Active; 'I' for Inactive)
REMARK    1  A    between atoms: C2_2  and  C3_3 
REMARK    2  A    between atoms: N2_7  and  C6_8 
REMARK    3  A    between atoms: C9_11  and  O1_12 
REMARK    4  A    between atoms: O1_12  and  C10_13 
REMARK    5  A    between atoms: C10_13  and  C11_14 
ROOT
HETATM    1  C6  UNL     1      24.604   3.373  51.069  1.00  0.00     0.038 A 
HETATM    2  C7  UNL     1      24.021   3.794  52.181  1.00  0.00     0.029 A 
HETATM    3  C8  UNL     1      23.728   2.641  53.032  1.00  0.00     0.036 A 
HETATM    4  C9  UNL     1      24.145   1.549  52.403  1.00  0.00     0.071 A 
HETATM    5  C17 UNL     1      24.746   1.894  51.089  1.00  0.00     0.188 A 
HETATM    6 CL1  UNL     1      26.503   1.576  51.092  1.00  0.00    -0.111 Cl
ENDROOT
BRANCH   1   7
HETATM    7  N2  UNL     1      24.926   4.439  50.175  1.00  0.00    -0.335 N 
HETATM    8  C4  UNL     1      23.787   5.272  49.846  1.00  0.00     0.208 A 
HETATM    9  N1  UNL     1      24.217   6.318  48.942  1.00  0.00    -0.268 NA
HETATM   10  C5  UNL     1      22.760   4.441  49.086  1.00  0.00     0.058 C 
HETATM   11  C3  UNL     1      25.414   6.445  48.527  1.00  0.00     0.038 A 
HETATM   12  C19 UNL     1      26.498   5.556  48.913  1.00  0.00    -0.022 A 
HETATM   13  C18 UNL     1      26.276   4.543  49.737  1.00  0.00     0.102 A 
HETATM   14  C20 UNL     1      27.889   5.735  48.408  1.00  0.00     0.052 C 
BRANCH  11  15
HETATM   15  C2  UNL     1      25.798   7.548  47.593  1.00  0.00     0.055 C 
HETATM   16  C1  UNL     1      24.659   7.902  46.686  1.00  0.00     0.011 C 
ENDBRANCH  11  15
ENDBRANCH   1   7
BRANCH   4  17
HETATM   17  O1  UNL     1      24.124   0.202  52.734  1.00  0.00    -0.349 OA
BRANCH  17  18
HETATM   18  C10 UNL     1      24.586  -0.285  53.982  1.00  0.00     0.214 C 
BRANCH  18  19
HETATM   19  C11 UNL     1      26.057  -0.444  53.879  1.00  0.00    -0.031 A 
HETATM   20  C12 UNL     1      26.609  -1.376  53.025  1.00  0.00     0.009 A 
HETATM   21  C13 UNL     1      27.976  -1.567  52.889  1.00  0.00     0.004 A 
HETATM   22  C14 UNL     1      28.768  -0.747  53.680  1.00  0.00     0.042 A 
HETATM   23  C15 UNL     1      28.282   0.204  54.554  1.00  0.00     0.117 A 
HETATM   24  F1  UNL     1      29.092   0.980  55.304  1.00  0.00    -0.206 F 
HETATM   25  C16 UNL     1      26.911   0.344  54.641  1.00  0.00     0.051 A 
ENDBRANCH  18  19
ENDBRANCH  17  18
ENDBRANCH   4  17
TORSDOF 5
ENDMDL
MODEL 2
REMARK VINA RESULT:      -7.9      2.305      3.568
REMARK  5 active torsions:
REMARK  status: ('A' for Active; 'I' for Inactive)
REMARK    1  A    between atoms: C2_2  and  C3_3 
REMARK    2  A    between atoms: N2_7  and  C6_8 
REMARK    3  A    between atoms: C9_11  and  O1_12 
REMARK    4  A    between atoms: O1_12  and  C10_13 
REMARK    5  A    between atoms: C10_13  and  C11_14 
ROOT
HETATM    1  C6  UNL     1      24.046   3.242  49.998  1.00  0.00     0.038 A 
HETATM    2  C7  UNL     1      23.274   2.789  49.022  1.00  0.00     0.029 A 
HETATM    3  C8  UNL     1      22.195   1.989  49.601  1.00  0.00     0.036 A 
HETATM    4  C9  UNL     1      22.351   1.980  50.919  1.00  0.00     0.071 A 
HETATM    5  C17 UNL     1      23.541   2.775  51.315  1.00  0.00     0.188 A 
HETATM    6 CL1  UNL     1      23.056   4.249  52.199  1.00  0.00    -0.111 Cl
ENDROOT
BRANCH   1   7
HETATM    7  N2  UNL     1      25.131   4.039  49.520  1.00  0.00    -0.335 N 
HETATM    8  C4  UNL     1      26.388   3.321  49.472  1.00  0.00     0.208 A 
HETATM    9  N1  UNL     1      27.417   4.210  48.976  1.00  0.00    -0.268 NA
HETATM   10  C5  UNL     1      26.800   2.935  50.888  1.00  0.00     0.058 C 
HETATM   11  C3  UNL     1      27.205   5.422  48.647  1.00  0.00     0.038 A 
HETATM   12  C19 UNL     1      25.902   6.061  48.729  1.00  0.00    -0.022 A 
HETATM   13  C18 UNL     1      24.848   5.388  49.165  1.00  0.00     0.102 A 
HETATM   14  C20 UNL     1      25.690   7.484  48.336  1.00  0.00     0.052 C 
BRANCH  11  15
HETATM   15  C2  UNL     1      28.310   6.292  48.140  1.00  0.00     0.055 C 
HETATM   16  C1  UNL     1      29.608   5.545  48.106  1.00  0.00     0.011 C 
ENDBRANCH  11  15
ENDBRANCH   1   7
BRANCH   4  17
HETATM   17  O1  UNL     1      21.634   1.392  51.952  1.00  0.00    -0.349 OA
BRANCH  17  18
HETATM   18  C10 UNL     1      21.515  -0.014  52.094  1.00  0.00     0.214 C 
BRANCH  18  19
HETATM   19  C11 UNL     1      22.409  -0.426  53.203  1.00  0.00    -0.031 A 
HETATM   20  C12 UNL     1      21.896  -1.007  54.344  1.00  0.00     0.009 A 
HETATM   21  C13 UNL     1      22.685  -1.411  55.411  1.00  0.00     0.004 A 
HETATM   22  C14 UNL     1      24.046  -1.191  55.256  1.00  0.00     0.042 A 
HETATM   23  C15 UNL     1      24.623  -0.615  54.143  1.00  0.00     0.117 A 
HETATM   24  F1  UNL     1      25.955  -0.419  54.036  1.00  0.00    -0.206 F 
HETATM   25  C16 UNL     1      23.782  -0.235  53.116  1.00  0.00     0.051 A 
ENDBRANCH  18  19
ENDBRANCH  17  18
ENDBRANCH   4  17
TORSDOF 5
ENDMDL
MODEL 3
REMARK VINA RESULT:      -7.7      3.978      6.526
REMARK  5 active torsions:
REMARK  status: ('A' for Active; 'I' for Inactive)
REMARK    1  A    between atoms: C2_2  and  C3_3 
REMARK    2  A    between atoms: N2_7  and  C6_8 
REMARK    3  A    between atoms: C9_11  and  O1_12 
REMARK    4  A    between atoms: O1_12  and  C10_13 
REMARK    5  A    between atoms: C10_13  and  C11_14 
ROOT
HETATM    1  C6  UNL     1      22.327   1.693  52.118  1.00  0.00     0.038 A 
HETATM    2  C7  UNL     1      22.460   2.649  53.024  1.00  0.00     0.029 A 
HETATM    3  C8  UNL     1      23.711   3.367  52.778  1.00  0.00     0.036 A 
HETATM    4  C9  UNL     1      24.301   2.818  51.724  1.00  0.00     0.071 A 
HETATM    5  C17 UNL     1      23.487   1.696  51.190  1.00  0.00     0.188 A 
HETATM    6 CL1  UNL     1      22.822   2.103  49.583  1.00  0.00    -0.111 Cl
ENDROOT
BRANCH   1   7
HETATM    7  N2  UNL     1      21.126   0.938  52.284  1.00  0.00    -0.335 N 
HETATM    8  C4  UNL     1      21.103   0.165  53.509  1.00  0.00     0.208 A 
HETATM    9  N1  UNL     1      19.851  -0.559  53.582  1.00  0.00    -0.268 NA
HETATM   10  C5  UNL     1      22.205  -0.887  53.460  1.00  0.00     0.058 C 
HETATM   11  C3  UNL     1      18.945  -0.497  52.689  1.00  0.00     0.038 A 
HETATM   12  C19 UNL     1      19.058   0.311  51.485  1.00  0.00    -0.022 A 
HETATM   13  C18 UNL     1      20.141   1.037  51.261  1.00  0.00     0.102 A 
HETATM   14  C20 UNL     1      17.976   0.360  50.460  1.00  0.00     0.052 C 
BRANCH  11  15
HETATM   15  C2  UNL     1      17.671  -1.268  52.822  1.00  0.00     0.055 C 
HETATM   16  C1  UNL     1      17.883  -2.518  53.619  1.00  0.00     0.011 C 
ENDBRANCH  11  15
ENDBRANCH   1   7
BRANCH   4  17
HETATM   17  O1  UNL     1      25.487   3.088  51.057  1.00  0.00    -0.349 OA
BRANCH  17  18
HETATM   18  C10 UNL     1      26.371   2.066  50.627  1.00  0.00     0.214 C 
BRANCH  18  19
HETATM   19  C11 UNL     1      27.001   1.486  51.838  1.00  0.00    -0.031 A 
HETATM   20  C12 UNL     1      26.747   0.183  52.210  1.00  0.00     0.009 A 
HETATM   21  C13 UNL     1      27.307  -0.411  53.332  1.00  0.00     0.004 A 
HETATM   22  C14 UNL     1      28.156   0.403  54.068  1.00  0.00     0.042 A 
HETATM   23  C15 UNL     1      28.453   1.713  53.752  1.00  0.00     0.117 A 
HETATM   24  F1  UNL     1      29.286   2.468  54.500  1.00  0.00    -0.206 F 
HETATM   25  C16 UNL     1      27.862   2.244  52.623  1.00  0.00     0.051 A 
ENDBRANCH  18  19
ENDBRANCH  17  18
ENDBRANCH   4  17
TORSDOF 5
ENDMDL
MODEL 4
REMARK VINA RESULT:      -7.6      3.403      3.954
REMARK  5 active torsions:
REMARK  status: ('A' for Active; 'I' for Inactive)
REMARK    1  A    between atoms: C2_2  and  C3_3 
REMARK    2  A    between atoms: N2_7  and  C6_8 
REMARK    3  A    between atoms: C9_11  and  O1_12 
REMARK    4  A    between atoms: O1_12  and  C10_13 
REMARK    5  A    between atoms: C10_13  and  C11_14 
ROOT
HETATM    1  C6  UNL     1      22.588   1.404  52.404  1.00  0.00     0.038 A 
HETATM    2  C7  UNL     1      21.867   0.616  53.186  1.00  0.00     0.029 A 
HETATM    3  C8  UNL     1      22.759  -0.318  53.873  1.00  0.00     0.036 A 
HETATM    4  C9  UNL     1      24.001  -0.066  53.481  1.00  0.00     0.071 A 
HETATM    5  C17 UNL     1      24.030   1.054  52.506  1.00  0.00     0.188 A 
HETATM    6 CL1  UNL     1      24.827   2.488  53.210  1.00  0.00    -0.111 Cl
ENDROOT
BRANCH   1   7
HETATM    7  N2  UNL     1      21.794   2.352  51.691  1.00  0.00    -0.335 N 
HETATM    8  C4  UNL     1      20.747   1.740  50.899  1.00  0.00     0.208 A 
HETATM    9  N1  UNL     1      20.002   2.780  50.222  1.00  0.00    -0.268 NA
HETATM   10  C5  UNL     1      21.378   0.882  49.809  1.00  0.00     0.058 C 
HETATM   11  C3  UNL     1      20.263   4.022  50.332  1.00  0.00     0.038 A 
HETATM   12  C19 UNL     1      21.341   4.547  51.154  1.00  0.00    -0.022 A 
HETATM   13  C18 UNL     1      22.122   3.729  51.843  1.00  0.00     0.102 A 
HETATM   14  C20 UNL     1      21.618   6.008  51.259  1.00  0.00     0.052 C 
BRANCH  11  15
HETATM   15  C2  UNL     1      19.457   5.051  49.606  1.00  0.00     0.055 C 
HETATM   16  C1  UNL     1      19.801   5.070  48.148  1.00  0.00     0.011 C 
ENDBRANCH  11  15
ENDBRANCH   1   7
BRANCH   4  17
HETATM   17  O1  UNL     1      25.227  -0.632  53.801  1.00  0.00    -0.349 OA
BRANCH  17  18
HETATM   18  C10 UNL     1      26.125  -1.117  52.817  1.00  0.00     0.214 C 
BRANCH  18  19
HETATM   19  C11 UNL     1      27.466  -0.568  53.131  1.00  0.00    -0.031 A 
HETATM   20  C12 UNL     1      28.561  -1.400  53.243  1.00  0.00     0.009 A 
HETATM   21  C13 UNL     1      29.837  -0.942  53.535  1.00  0.00     0.004 A 
HETATM   22  C14 UNL     1      29.946   0.430  53.708  1.00  0.00     0.042 A 
HETATM   23  C15 UNL     1      28.894   1.317  53.610  1.00  0.00     0.117 A 
HETATM   24  F1  UNL     1      29.048   2.647  53.787  1.00  0.00    -0.206 F 
HETATM   25  C16 UNL     1      27.649   0.797  53.317  1.00  0.00     0.051 A 
ENDBRANCH  18  19
ENDBRANCH  17  18
ENDBRANCH   4  17
TORSDOF 5
ENDMDL
MODEL 5
REMARK VINA RESULT:      -7.6      4.157      5.768
REMARK  5 active torsions:
REMARK  status: ('A' for Active; 'I' for Inactive)
REMARK    1  A    between atoms: C2_2  and  C3_3 
REMARK    2  A    between atoms: N2_7  and  C6_8 
REMARK    3  A    between atoms: C9_11  and  O1_12 
REMARK    4  A    between atoms: O1_12  and  C10_13 
REMARK    5  A    between atoms: C10_13  and  C11_14 
ROOT
HETATM    1  C6  UNL     1      23.978   2.839  50.062  1.00  0.00     0.038 A 
HETATM    2  C7  UNL     1      23.010   2.671  49.175  1.00  0.00     0.029 A 
HETATM    3  C8  UNL     1      22.016   1.749  49.723  1.00  0.00     0.036 A 
HETATM    4  C9  UNL     1      22.418   1.382  50.933  1.00  0.00     0.071 A 
HETATM    5  C17 UNL     1      23.707   2.033  51.281  1.00  0.00     0.188 A 
HETATM    6 CL1  UNL     1      23.485   3.214  52.602  1.00  0.00    -0.111 Cl
ENDROOT
BRANCH   1   7
HETATM    7  N2  UNL     1      24.997   3.730  49.607  1.00  0.00    -0.335 N 
HETATM    8  C4  UNL     1      26.315   3.128  49.587  1.00  0.00     0.208 A 
HETATM    9  N1  UNL     1      27.270   4.107  49.112  1.00  0.00    -0.268 NA
HETATM   10  C5  UNL     1      26.729   2.779  51.012  1.00  0.00     0.058 C 
HETATM   11  C3  UNL     1      26.957   5.295  48.778  1.00  0.00     0.038 A 
HETATM   12  C19 UNL     1      25.600   5.815  48.832  1.00  0.00    -0.022 A 
HETATM   13  C18 UNL     1      24.602   5.049  49.245  1.00  0.00     0.102 A 
HETATM   14  C20 UNL     1      25.270   7.213  48.433  1.00  0.00     0.052 C 
BRANCH  11  15
HETATM   15  C2  UNL     1      27.990   6.262  48.294  1.00  0.00     0.055 C 
HETATM   16  C1  UNL     1      29.333   5.606  48.195  1.00  0.00     0.011 C 
ENDBRANCH  11  15
ENDBRANCH   1   7
BRANCH   4  17
HETATM   17  O1  UNL     1      21.878   0.538  51.894  1.00  0.00    -0.349 OA
BRANCH  17  18
HETATM   18  C10 UNL     1      20.944   0.983  52.863  1.00  0.00     0.214 C 
BRANCH  18  19
HETATM   19  C11 UNL     1      19.685   0.230  52.643  1.00  0.00    -0.031 A 
HETATM   20  C12 UNL     1      18.838   0.559  51.604  1.00  0.00     0.009 A 
HETATM   21  C13 UNL     1      17.649  -0.110  51.353  1.00  0.00     0.004 A 
HETATM   22  C14 UNL     1      17.360  -1.149  52.226  1.00  0.00     0.042 A 
HETATM   23  C15 UNL     1      18.161  -1.528  53.283  1.00  0.00     0.117 A 
HETATM   24  F1  UNL     1      17.838  -2.547  54.108  1.00  0.00    -0.206 F 
HETATM   25  C16 UNL     1      19.331  -0.822  53.478  1.00  0.00     0.051 A 
ENDBRANCH  18  19
ENDBRANCH  17  18
ENDBRANCH   4  17
TORSDOF 5
ENDMDL
MODEL 6
REMARK VINA RESULT:      -7.5      1.868      2.428
REMARK  5 active torsions:
REMARK  status: ('A' for Active; 'I' for Inactive)
REMARK    1  A    between atoms: C2_2  and  C3_3 
REMARK    2  A    between atoms: N2_7  and  C6_8 
REMARK    3  A    between atoms: C9_11  and  O1_12 
REMARK    4  A    between atoms: O1_12  and  C10_13 
REMARK    5  A    between atoms: C10_13  and  C11_14 
ROOT
HETATM    1  C6  UNL     1      24.038   3.759  50.802  1.00  0.00     0.038 A 
HETATM    2  C7  UNL     1      23.474   4.226  51.905  1.00  0.00     0.029 A 
HETATM    3  C8  UNL     1      23.950   3.449  53.049  1.00  0.00     0.036 A 
HETATM    4  C9  UNL     1      24.792   2.527  52.599  1.00  0.00     0.071 A 
HETATM    5  C17 UNL     1      24.940   2.622  51.124  1.00  0.00     0.188 A 
HETATM    6 CL1  UNL     1      26.582   3.168  50.685  1.00  0.00    -0.111 Cl
ENDROOT
BRANCH   1   7
HETATM    7  N2  UNL     1      23.627   4.463  49.630  1.00  0.00    -0.335 N 
HETATM    8  C4  UNL     1      22.447   3.897  49.007  1.00  0.00     0.208 A 
HETATM    9  N1  UNL     1      22.114   4.680  47.836  1.00  0.00    -0.268 NA
HETATM   10  C5  UNL     1      22.768   2.493  48.509  1.00  0.00     0.058 C 
HETATM   11  C3  UNL     1      22.780   5.695  47.451  1.00  0.00     0.038 A 
HETATM   12  C19 UNL     1      23.958   6.193  48.144  1.00  0.00    -0.022 A 
HETATM   13  C18 UNL     1      24.401   5.591  49.236  1.00  0.00     0.102 A 
HETATM   14  C20 UNL     1      24.714   7.385  47.664  1.00  0.00     0.052 C 
BRANCH  11  15
HETATM   15  C2  UNL     1      22.386   6.464  46.232  1.00  0.00     0.055 C 
HETATM   16  C1  UNL     1      22.085   5.542  45.090  1.00  0.00     0.011 C 
ENDBRANCH  11  15
ENDBRANCH   1   7
BRANCH   4  17
HETATM   17  O1  UNL     1      25.530   1.533  53.227  1.00  0.00    -0.349 OA
BRANCH  17  18
HETATM   18  C10 UNL     1      25.819   0.291  52.607  1.00  0.00     0.214 C 
BRANCH  18  19
HETATM   19  C11 UNL     1      27.211  -0.071  52.968  1.00  0.00    -0.031 A 
HETATM   20  C12 UNL     1      28.131   0.903  53.297  1.00  0.00     0.009 A 
HETATM   21  C13 UNL     1      29.445   0.623  53.641  1.00  0.00     0.004 A 
HETATM   22  C14 UNL     1      29.782  -0.723  53.636  1.00  0.00     0.042 A 
HETATM   23  C15 UNL     1      28.913  -1.746  53.318  1.00  0.00     0.117 A 
HETATM   24  F1  UNL     1      29.286  -3.044  53.327  1.00  0.00    -0.206 F 
HETATM   25  C16 UNL     1      27.618  -1.399  52.984  1.00  0.00     0.051 A 
ENDBRANCH  18  19
ENDBRANCH  17  18
ENDBRANCH   4  17
TORSDOF 5
ENDMDL
MODEL 7
REMARK VINA RESULT:      -7.4      1.726      2.607
REMARK  5 active torsions:
REMARK  status: ('A' for Active; 'I' for Inactive)
REMARK    1  A    between atoms: C2_2  and  C3_3 
REMARK    2  A    between atoms: N2_7  and  C6_8 
REMARK    3  A    between atoms: C9_11  and  O1_12 
REMARK    4  A    between atoms: O1_12  and  C10_13 
REMARK    5  A    between atoms: C10_13  and  C11_14 
ROOT
HETATM    1  C6  UNL     1      23.550   2.592  51.340  1.00  0.00     0.038 A 
HETATM    2  C7  UNL     1      22.570   1.703  51.320  1.00  0.00     0.029 A 
HETATM    3  C8  UNL     1      22.929   0.578  52.183  1.00  0.00     0.036 A 
HETATM    4  C9  UNL     1      24.126   0.823  52.701  1.00  0.00     0.071 A 
HETATM    5  C17 UNL     1      24.652   2.127  52.223  1.00  0.00     0.188 A 
HETATM    6 CL1  UNL     1      24.731   3.307  53.561  1.00  0.00    -0.111 Cl
ENDROOT
BRANCH   1   7
HETATM    7  N2  UNL     1      23.282   3.731  50.520  1.00  0.00    -0.335 N 
HETATM    8  C4  UNL     1      23.869   3.633  49.199  1.00  0.00     0.208 A 
HETATM    9  N1  UNL     1      23.540   4.828  48.451  1.00  0.00    -0.268 NA
HETATM   10  C5  UNL     1      25.388   3.610  49.325  1.00  0.00     0.058 C 
HETATM   11  C3  UNL     1      22.844   5.786  48.920  1.00  0.00     0.038 A 
HETATM   12  C19 UNL     1      22.294   5.796  50.266  1.00  0.00    -0.022 A 
HETATM   13  C18 UNL     1      22.501   4.778  51.086  1.00  0.00     0.102 A 
HETATM   14  C20 UNL     1      21.483   6.936  50.782  1.00  0.00     0.052 C 
BRANCH  11  15
HETATM   15  C2  UNL     1      22.536   6.996  48.097  1.00  0.00     0.055 C 
HETATM   16  C1  UNL     1      23.680   7.331  47.189  1.00  0.00     0.011 C 
ENDBRANCH  11  15
ENDBRANCH   1   7
BRANCH   4  17
HETATM   17  O1  UNL     1      24.942   0.114  53.571  1.00  0.00    -0.349 OA
BRANCH  17  18
HETATM   18  C10 UNL     1      25.781  -0.945  53.140  1.00  0.00     0.214 C 
BRANCH  18  19
HETATM   19  C11 UNL     1      27.184  -0.506  53.335  1.00  0.00    -0.031 A 
HETATM   20  C12 UNL     1      28.227  -1.401  53.209  1.00  0.00     0.009 A 
HETATM   21  C13 UNL     1      29.557  -1.047  53.381  1.00  0.00     0.004 A 
HETATM   22  C14 UNL     1      29.777   0.288  53.692  1.00  0.00     0.042 A 
HETATM   23  C15 UNL     1      28.782   1.232  53.832  1.00  0.00     0.117 A 
HETATM   24  F1  UNL     1      29.044   2.522  54.136  1.00  0.00    -0.206 F 
HETATM   25  C16 UNL     1      27.479   0.815  53.648  1.00  0.00     0.051 A 
ENDBRANCH  18  19
ENDBRANCH  17  18
ENDBRANCH   4  17
TORSDOF 5
ENDMDL
MODEL 8
REMARK VINA RESULT:      -7.3      3.921      7.417
REMARK  5 active torsions:
REMARK  status: ('A' for Active; 'I' for Inactive)
REMARK    1  A    between atoms: C2_2  and  C3_3 
REMARK    2  A    between atoms: N2_7  and  C6_8 
REMARK    3  A    between atoms: C9_11  and  O1_12 
REMARK    4  A    between atoms: O1_12  and  C10_13 
REMARK    5  A    between atoms: C10_13  and  C11_14 
ROOT
HETATM    1  C6  UNL     1      23.969   0.965  52.980  1.00  0.00     0.038 A 
HETATM    2  C7  UNL     1      23.273  -0.129  52.713  1.00  0.00     0.029 A 
HETATM    3  C8  UNL     1      21.912   0.252  52.336  1.00  0.00     0.036 A 
HETATM    4  C9  UNL     1      21.826   1.575  52.389  1.00  0.00     0.071 A 
HETATM    5  C17 UNL     1      23.121   2.173  52.803  1.00  0.00     0.188 A 
HETATM    6 CL1  UNL     1      23.857   3.088  51.458  1.00  0.00    -0.111 Cl
ENDROOT
BRANCH   1   7
HETATM    7  N2  UNL     1      25.317   0.684  53.359  1.00  0.00    -0.335 N 
HETATM    8  C4  UNL     1      25.512  -0.681  53.805  1.00  0.00     0.208 A 
HETATM    9  N1  UNL     1      26.903  -0.862  54.162  1.00  0.00    -0.268 NA
HETATM   10  C5  UNL     1      24.707  -0.913  55.078  1.00  0.00     0.058 C 
HETATM   11  C3  UNL     1      27.779   0.058  54.083  1.00  0.00     0.038 A 
HETATM   12  C19 UNL     1      27.489   1.406  53.621  1.00  0.00    -0.022 A 
HETATM   13  C18 UNL     1      26.262   1.743  53.255  1.00  0.00     0.102 A 
HETATM   14  C20 UNL     1      28.541   2.460  53.541  1.00  0.00     0.052 C 
BRANCH  11  15
HETATM   15  C2  UNL     1      29.203  -0.191  54.466  1.00  0.00     0.055 C 
HETATM   16  C1  UNL     1      29.842  -1.179  53.540  1.00  0.00     0.011 C 
ENDBRANCH  11  15
ENDBRANCH   1   7
BRANCH   4  17
HETATM   17  O1  UNL     1      20.792   2.466  52.138  1.00  0.00    -0.349 OA
BRANCH  17  18
HETATM   18  C10 UNL     1      19.994   2.400  50.968  1.00  0.00     0.214 C 
BRANCH  18  19
HETATM   19  C11 UNL     1      20.816   2.904  49.841  1.00  0.00    -0.031 A 
HETATM   20  C12 UNL     1      20.948   4.259  49.615  1.00  0.00     0.009 A 
HETATM   21  C13 UNL     1      21.703   4.785  48.577  1.00  0.00     0.004 A 
HETATM   22  C14 UNL     1      22.329   3.849  47.767  1.00  0.00     0.042 A 
HETATM   23  C15 UNL     1      22.238   2.482  47.938  1.00  0.00     0.117 A 
HETATM   24  F1  UNL     1      22.866   1.607  47.124  1.00  0.00    -0.206 F 
HETATM   25  C16 UNL     1      21.471   2.023  48.990  1.00  0.00     0.051 A 
ENDBRANCH  18  19
ENDBRANCH  17  18
ENDBRANCH   4  17
TORSDOF 5
ENDMDL
MODEL 9
REMARK VINA RESULT:      -7.2      5.215      8.032
REMARK  5 active torsions:
REMARK  status: ('A' for Active; 'I' for Inactive)
REMARK    1  A    between atoms: C2_2  and  C3_3 
REMARK    2  A    between atoms: N2_7  and  C6_8 
REMARK    3  A    between atoms: C9_11  and  O1_12 
REMARK    4  A    between atoms: O1_12  and  C10_13 
REMARK    5  A    between atoms: C10_13  and  C11_14 
ROOT
HETATM    1  C6  UNL     1      23.887   0.924  52.725  1.00  0.00     0.038 A 
HETATM    2  C7  UNL     1      23.487   2.158  52.987  1.00  0.00     0.029 A 
HETATM    3  C8  UNL     1      22.122   2.332  52.491  1.00  0.00     0.036 A 
HETATM    4  C9  UNL     1      21.736   1.189  51.939  1.00  0.00     0.071 A 
HETATM    5  C17 UNL     1      22.813   0.170  52.027  1.00  0.00     0.188 A 
HETATM    6 CL1  UNL     1      22.348  -1.150  53.135  1.00  0.00    -0.111 Cl
ENDROOT
BRANCH   1   7
HETATM    7  N2  UNL     1      25.217   0.665  53.177  1.00  0.00    -0.335 N 
HETATM    8  C4  UNL     1      25.394  -0.678  53.691  1.00  0.00     0.208 A 
HETATM    9  N1  UNL     1      26.767  -0.839  54.119  1.00  0.00    -0.268 NA
HETATM   10  C5  UNL     1      24.531  -0.857  54.935  1.00  0.00     0.058 C 
HETATM   11  C3  UNL     1      27.644   0.081  54.040  1.00  0.00     0.038 A 
HETATM   12  C19 UNL     1      27.373   1.406  53.507  1.00  0.00    -0.022 A 
HETATM   13  C18 UNL     1      26.164   1.722  53.070  1.00  0.00     0.102 A 
HETATM   14  C20 UNL     1      28.425   2.460  53.429  1.00  0.00     0.052 C 
BRANCH  11  15
HETATM   15  C2  UNL     1      29.049  -0.145  54.499  1.00  0.00     0.055 C 
HETATM   16  C1  UNL     1      29.765  -1.093  53.585  1.00  0.00     0.011 C 
ENDBRANCH  11  15
ENDBRANCH   1   7
BRANCH   4  17
HETATM   17  O1  UNL     1      20.560   0.787  51.321  1.00  0.00    -0.349 OA
BRANCH  17  18
HETATM   18  C10 UNL     1      19.291   1.305  51.684  1.00  0.00     0.214 C 
BRANCH  18  19
HETATM   19  C11 UNL     1      18.433   0.154  52.057  1.00  0.00    -0.031 A 
HETATM   20  C12 UNL     1      18.789  -0.686  53.092  1.00  0.00     0.009 A 
HETATM   21  C13 UNL     1      18.026  -1.777  53.482  1.00  0.00     0.004 A 
HETATM   22  C14 UNL     1      16.861  -1.973  52.755  1.00  0.00     0.042 A 
HETATM   23  C15 UNL     1      16.447  -1.172  51.710  1.00  0.00     0.117 A 
HETATM   24  F1  UNL     1      15.303  -1.402  51.029  1.00  0.00    -0.206 F 
HETATM   25  C16 UNL     1      17.252  -0.103  51.371  1.00  0.00     0.051 A 
ENDBRANCH  18  19
ENDBRANCH  17  18
ENDBRANCH   4  17
TORSDOF 5
ENDMDL
