MODEL 1
REMARK VINA RESULT:      -8.9      0.000      0.000
REMARK  3 active torsions:
REMARK  status: ('A' for Active; 'I' for Inactive)
REMARK    1  A    between atoms: C3_3  and  C4_4 
REMARK    2  A    between atoms: C8_8  and  C9_9 
REMARK    3  A    between atoms: C13_15  and  C14_16 
ROOT
HETATM    1  C1  UNL     1      29.834   6.448  47.658  1.00  0.00     0.112 C 
HETATM    2  C2  UNL     1      28.667   5.756  48.208  1.00  0.00    -0.105 C 
HETATM    3  C3  UNL     1      27.703   5.201  48.670  1.00  0.00    -0.067 C 
ENDROOT
BRANCH   3   4
HETATM    4  C4  UNL     1      26.553   4.556  49.241  1.00  0.00     0.018 A 
HETATM    5  C5  UNL     1      25.328   5.095  48.924  1.00  0.00     0.020 A 
HETATM    6  C6  UNL     1      24.225   4.485  49.466  1.00  0.00     0.002 A 
HETATM    7  C7  UNL     1      24.238   3.391  50.292  1.00  0.00     0.014 A 
HETATM    8  C8  UNL     1      25.465   2.865  50.597  1.00  0.00    -0.005 A 
HETATM    9  C20 UNL     1      26.612   3.437  50.082  1.00  0.00     0.034 A 
BRANCH   8  10
HETATM   10  C9  UNL     1      25.834   1.716  51.411  1.00  0.00     0.077 C 
HETATM   11  N1  UNL     1      26.829   0.868  51.526  1.00  0.00    -0.241 NA
HETATM   12  C10 UNL     1      26.806  -0.141  52.520  1.00  0.00     0.228 C 
HETATM   13  N2  UNL     1      25.883  -0.381  53.455  1.00  0.00    -0.269 NA
HETATM   14  C11 UNL     1      24.762   0.521  53.475  1.00  0.00     0.168 A 
HETATM   15  C12 UNL     1      23.438   0.033  53.782  1.00  0.00     0.017 A 
HETATM   16  C19 UNL     1      24.668   1.118  52.139  1.00  0.00     0.001 A 
HETATM   17  C13 UNL     1      22.576   0.324  52.822  1.00  0.00    -0.024 A 
HETATM   18  C18 UNL     1      23.362   1.001  51.796  1.00  0.00     0.024 A 
BRANCH  17  19
HETATM   19  C14 UNL     1      21.157  -0.004  52.788  1.00  0.00     0.010 A 
HETATM   20  C15 UNL     1      20.425  -0.764  53.704  1.00  0.00     0.152 A 
HETATM   21  N3  UNL     1      19.145  -0.797  53.257  1.00  0.00    -0.185 NA
HETATM   22  N4  UNL     1      19.061  -0.104  52.128  1.00  0.00    -0.285 N 
HETATM   23  C16 UNL     1      17.881   0.117  51.319  1.00  0.00     0.179 C 
HETATM   24  C17 UNL     1      20.278   0.401  51.806  1.00  0.00     0.125 A 
ENDBRANCH  17  19
ENDBRANCH   8  10
ENDBRANCH   3   4
TORSDOF 3
ENDMDL
MODEL 2
REMARK VINA RESULT:      -8.9      2.759      8.520
REMARK  3 active torsions:
REMARK  status: ('A' for Active; 'I' for Inactive)
REMARK    1  A    between atoms: C3_3  and  C4_4 
REMARK    2  A    between atoms: C8_8  and  C9_9 
REMARK    3  A    between atoms: C13_15  and  C14_16 
ROOT
HETATM    1  C1  UNL     1      15.861  -5.414  54.259  1.00  0.00     0.112 C 
HETATM    2  C2  UNL     1      16.741  -4.283  53.958  1.00  0.00    -0.105 C 
HETATM    3  C3  UNL     1      17.453  -3.341  53.717  1.00  0.00    -0.067 C 
ENDROOT
BRANCH   3   4
HETATM    4  C4  UNL     1      18.281  -2.203  53.434  1.00  0.00     0.018 A 
HETATM    5  C5  UNL     1      17.728  -1.225  52.641  1.00  0.00     0.020 A 
HETATM    6  C6  UNL     1      18.514  -0.134  52.364  1.00  0.00     0.002 A 
HETATM    7  C7  UNL     1      19.797   0.063  52.808  1.00  0.00     0.014 A 
HETATM    8  C8  UNL     1      20.333  -0.920  53.597  1.00  0.00    -0.005 A 
HETATM    9  C20 UNL     1      19.590  -2.042  53.908  1.00  0.00     0.034 A 
BRANCH   8  10
HETATM   10  C9  UNL     1      21.634  -1.021  54.243  1.00  0.00     0.077 C 
HETATM   11  N1  UNL     1      22.140  -1.435  55.380  1.00  0.00    -0.241 NA
HETATM   12  C10 UNL     1      23.537  -1.379  55.611  1.00  0.00     0.228 C 
HETATM   13  N2  UNL     1      24.510  -0.969  54.793  1.00  0.00    -0.269 NA
HETATM   14  C11 UNL     1      24.090  -0.541  53.485  1.00  0.00     0.168 A 
HETATM   15  C12 UNL     1      24.746   0.569  52.835  1.00  0.00     0.017 A 
HETATM   16  C19 UNL     1      22.676  -0.164  53.590  1.00  0.00     0.001 A 
HETATM   17  C13 UNL     1      23.885   1.514  52.495  1.00  0.00    -0.024 A 
HETATM   18  C18 UNL     1      22.592   1.043  52.979  1.00  0.00     0.024 A 
BRANCH  17  19
HETATM   19  C14 UNL     1      24.182   2.771  51.822  1.00  0.00     0.010 A 
HETATM   20  C15 UNL     1      25.105   3.005  50.799  1.00  0.00     0.152 A 
HETATM   21  N3  UNL     1      25.031   4.324  50.493  1.00  0.00    -0.185 NA
HETATM   22  N4  UNL     1      24.120   4.899  51.269  1.00  0.00    -0.285 N 
HETATM   23  C16 UNL     1      23.724   6.292  51.274  1.00  0.00     0.179 C 
HETATM   24  C17 UNL     1      23.575   3.977  52.100  1.00  0.00     0.125 A 
ENDBRANCH  17  19
ENDBRANCH   8  10
ENDBRANCH   3   4
TORSDOF 3
ENDMDL
MODEL 3
REMARK VINA RESULT:      -8.8      2.714      5.352
REMARK  3 active torsions:
REMARK  status: ('A' for Active; 'I' for Inactive)
REMARK    1  A    between atoms: C3_3  and  C4_4 
REMARK    2  A    between atoms: C8_8  and  C9_9 
REMARK    3  A    between atoms: C13_15  and  C14_16 
ROOT
HETATM    1  C1  UNL     1      26.346  11.099  48.245  1.00  0.00     0.112 C 
HETATM    2  C2  UNL     1      26.399   9.650  48.454  1.00  0.00    -0.105 C 
HETATM    3  C3  UNL     1      26.444   8.462  48.643  1.00  0.00    -0.067 C 
ENDROOT
BRANCH   3   4
HETATM    4  C4  UNL     1      26.508   7.049  48.891  1.00  0.00     0.018 A 
HETATM    5  C5  UNL     1      27.561   6.373  48.319  1.00  0.00     0.020 A 
HETATM    6  C6  UNL     1      27.628   5.022  48.551  1.00  0.00     0.002 A 
HETATM    7  C7  UNL     1      26.741   4.291  49.299  1.00  0.00     0.014 A 
HETATM    8  C8  UNL     1      25.699   4.978  49.863  1.00  0.00    -0.005 A 
HETATM    9  C20 UNL     1      25.578   6.340  49.664  1.00  0.00     0.034 A 
BRANCH   8  10
HETATM   10  C9  UNL     1      24.609   4.527  50.716  1.00  0.00     0.077 C 
HETATM   11  N1  UNL     1      23.606   5.040  51.388  1.00  0.00    -0.241 NA
HETATM   12  C10 UNL     1      22.716   4.204  52.106  1.00  0.00     0.228 C 
HETATM   13  N2  UNL     1      22.705   2.872  52.204  1.00  0.00    -0.269 NA
HETATM   14  C11 UNL     1      23.726   2.182  51.462  1.00  0.00     0.168 A 
HETATM   15  C12 UNL     1      24.347   0.996  52.003  1.00  0.00     0.017 A 
HETATM   16  C19 UNL     1      24.816   3.138  51.239  1.00  0.00     0.001 A 
HETATM   17  C13 UNL     1      25.662   1.120  52.067  1.00  0.00    -0.024 A 
HETATM   18  C18 UNL     1      25.942   2.469  51.588  1.00  0.00     0.024 A 
BRANCH  17  19
HETATM   19  C14 UNL     1      26.614   0.129  52.553  1.00  0.00     0.010 A 
HETATM   20  C15 UNL     1      26.401  -1.232  52.783  1.00  0.00     0.152 A 
HETATM   21  N3  UNL     1      27.573  -1.746  53.231  1.00  0.00    -0.185 NA
HETATM   22  N4  UNL     1      28.479  -0.778  53.286  1.00  0.00    -0.285 N 
HETATM   23  C16 UNL     1      29.860  -0.889  53.708  1.00  0.00     0.179 C 
HETATM   24  C17 UNL     1      27.928   0.392  52.876  1.00  0.00     0.125 A 
ENDBRANCH  17  19
ENDBRANCH   8  10
ENDBRANCH   3   4
TORSDOF 3
ENDMDL
MODEL 4
REMARK VINA RESULT:      -8.6      3.097      8.999
REMARK  3 active torsions:
REMARK  status: ('A' for Active; 'I' for Inactive)
REMARK    1  A    between atoms: C3_3  and  C4_4 
REMARK    2  A    between atoms: C8_8  and  C9_9 
REMARK    3  A    between atoms: C13_15  and  C14_16 
ROOT
HETATM    1  C1  UNL     1      22.260  -1.276  54.832  1.00  0.00     0.112 C 
HETATM    2  C2  UNL     1      23.151  -0.475  53.989  1.00  0.00    -0.105 C 
HETATM    3  C3  UNL     1      23.897   0.175  53.302  1.00  0.00    -0.067 C 
ENDROOT
BRANCH   3   4
HETATM    4  C4  UNL     1      24.806   0.944  52.499  1.00  0.00     0.018 A 
HETATM    5  C5  UNL     1      26.146   0.708  52.696  1.00  0.00     0.020 A 
HETATM    6  C6  UNL     1      27.022   1.440  51.932  1.00  0.00     0.002 A 
HETATM    7  C7  UNL     1      26.677   2.380  50.995  1.00  0.00     0.014 A 
HETATM    8  C8  UNL     1      25.338   2.602  50.810  1.00  0.00    -0.005 A 
HETATM    9  C20 UNL     1      24.409   1.896  51.551  1.00  0.00     0.034 A 
BRANCH   8  10
HETATM   10  C9  UNL     1      24.636   3.496  49.901  1.00  0.00     0.077 C 
HETATM   11  N1  UNL     1      23.526   3.519  49.202  1.00  0.00    -0.241 NA
HETATM   12  C10 UNL     1      23.185   4.653  48.425  1.00  0.00     0.228 C 
HETATM   13  N2  UNL     1      23.840   5.810  48.292  1.00  0.00    -0.269 NA
HETATM   14  C11 UNL     1      25.051   5.936  49.057  1.00  0.00     0.168 A 
HETATM   15  C12 UNL     1      26.191   6.634  48.510  1.00  0.00     0.017 A 
HETATM   16  C19 UNL     1      25.517   4.576  49.351  1.00  0.00     0.001 A 
HETATM   17  C13 UNL     1      27.273   5.872  48.505  1.00  0.00    -0.024 A 
HETATM   18  C18 UNL     1      26.834   4.584  49.031  1.00  0.00     0.024 A 
BRANCH  17  19
HETATM   19  C14 UNL     1      28.601   6.238  48.032  1.00  0.00     0.010 A 
HETATM   20  C15 UNL     1      29.776   5.485  48.090  1.00  0.00     0.152 A 
HETATM   21  N3  UNL     1      30.756   6.236  47.529  1.00  0.00    -0.185 NA
HETATM   22  N4  UNL     1      30.244   7.396  47.139  1.00  0.00    -0.285 N 
HETATM   23  C16 UNL     1      30.939   8.491  46.494  1.00  0.00     0.179 C 
HETATM   24  C17 UNL     1      28.920   7.437  47.430  1.00  0.00     0.125 A 
ENDBRANCH  17  19
ENDBRANCH   8  10
ENDBRANCH   3   4
TORSDOF 3
ENDMDL
MODEL 5
REMARK VINA RESULT:      -8.6      2.754      6.629
REMARK  3 active torsions:
REMARK  status: ('A' for Active; 'I' for Inactive)
REMARK    1  A    between atoms: C3_3  and  C4_4 
REMARK    2  A    between atoms: C8_8  and  C9_9 
REMARK    3  A    between atoms: C13_15  and  C14_16 
ROOT
HETATM    1  C1  UNL     1      19.627   1.212  49.614  1.00  0.00     0.112 C 
HETATM    2  C2  UNL     1      20.380   0.709  50.766  1.00  0.00    -0.105 C 
HETATM    3  C3  UNL     1      20.989   0.282  51.712  1.00  0.00    -0.067 C 
ENDROOT
BRANCH   3   4
HETATM    4  C4  UNL     1      21.699  -0.247  52.844  1.00  0.00     0.018 A 
HETATM    5  C5  UNL     1      20.945  -0.908  53.785  1.00  0.00     0.020 A 
HETATM    6  C6  UNL     1      21.615  -1.415  54.870  1.00  0.00     0.002 A 
HETATM    7  C7  UNL     1      22.964  -1.319  55.096  1.00  0.00     0.014 A 
HETATM    8  C8  UNL     1      23.701  -0.658  54.150  1.00  0.00    -0.005 A 
HETATM    9  C20 UNL     1      23.081  -0.126  53.036  1.00  0.00     0.034 A 
BRANCH   8  10
HETATM   10  C9  UNL     1      25.131  -0.397  54.065  1.00  0.00     0.077 C 
HETATM   11  N1  UNL     1      26.210  -0.578  54.788  1.00  0.00    -0.241 NA
HETATM   12  C10 UNL     1      27.480  -0.181  54.301  1.00  0.00     0.228 C 
HETATM   13  N2  UNL     1      27.797   0.366  53.124  1.00  0.00    -0.269 NA
HETATM   14  C11 UNL     1      26.703   0.564  52.211  1.00  0.00     0.168 A 
HETATM   15  C12 UNL     1      26.665   1.731  51.361  1.00  0.00     0.017 A 
HETATM   16  C19 UNL     1      25.477   0.613  53.013  1.00  0.00     0.001 A 
HETATM   17  C13 UNL     1      25.545   2.417  51.525  1.00  0.00    -0.024 A 
HETATM   18  C18 UNL     1      24.812   1.706  52.566  1.00  0.00     0.024 A 
BRANCH  17  19
HETATM   19  C14 UNL     1      25.159   3.641  50.837  1.00  0.00     0.010 A 
HETATM   20  C15 UNL     1      25.891   4.372  49.898  1.00  0.00     0.152 A 
HETATM   21  N3  UNL     1      25.126   5.433  49.539  1.00  0.00    -0.185 NA
HETATM   22  N4  UNL     1      23.979   5.386  50.203  1.00  0.00    -0.285 N 
HETATM   23  C16 UNL     1      22.877   6.322  50.120  1.00  0.00     0.179 C 
HETATM   24  C17 UNL     1      23.959   4.298  51.012  1.00  0.00     0.125 A 
ENDBRANCH  17  19
ENDBRANCH   8  10
ENDBRANCH   3   4
TORSDOF 3
ENDMDL
MODEL 6
REMARK VINA RESULT:      -8.2      6.901     12.591
REMARK  3 active torsions:
REMARK  status: ('A' for Active; 'I' for Inactive)
REMARK    1  A    between atoms: C3_3  and  C4_4 
REMARK    2  A    between atoms: C8_8  and  C9_9 
REMARK    3  A    between atoms: C13_15  and  C14_16 
ROOT
HETATM    1  C1  UNL     1      26.001   3.538  49.562  1.00  0.00     0.112 C 
HETATM    2  C2  UNL     1      27.048   4.393  48.999  1.00  0.00    -0.105 C 
HETATM    3  C3  UNL     1      27.918   5.095  48.550  1.00  0.00    -0.067 C 
ENDROOT
BRANCH   3   4
HETATM    4  C4  UNL     1      28.964   5.936  48.039  1.00  0.00     0.018 A 
HETATM    5  C5  UNL     1      28.567   7.086  47.398  1.00  0.00     0.020 A 
HETATM    6  C6  UNL     1      29.561   7.894  46.905  1.00  0.00     0.002 A 
HETATM    7  C7  UNL     1      30.909   7.655  46.996  1.00  0.00     0.014 A 
HETATM    8  C8  UNL     1      31.288   6.506  47.639  1.00  0.00    -0.005 A 
HETATM    9  C20 UNL     1      30.332   5.653  48.155  1.00  0.00     0.034 A 
BRANCH   8  10
HETATM   10  C9  UNL     1      32.608   5.966  47.927  1.00  0.00     0.077 C 
HETATM   11  N1  UNL     1      33.516   6.034  48.872  1.00  0.00    -0.241 NA
HETATM   12  C10 UNL     1      34.719   5.291  48.772  1.00  0.00     0.228 C 
HETATM   13  N2  UNL     1      35.108   4.443  47.816  1.00  0.00    -0.269 NA
HETATM   14  C11 UNL     1      34.170   4.234  46.745  1.00  0.00     0.168 A 
HETATM   15  C12 UNL     1      34.638   4.058  45.390  1.00  0.00     0.017 A 
HETATM   16  C19 UNL     1      33.285   5.404  46.714  1.00  0.00     0.001 A 
HETATM   17  C13 UNL     1      34.090   4.938  44.567  1.00  0.00    -0.024 A 
HETATM   18  C18 UNL     1      33.248   5.778  45.412  1.00  0.00     0.024 A 
BRANCH  17  19
HETATM   19  C14 UNL     1      34.321   5.060  43.134  1.00  0.00     0.010 A 
HETATM   20  C15 UNL     1      33.670   4.390  42.095  1.00  0.00     0.152 A 
HETATM   21  N3  UNL     1      34.222   4.826  40.936  1.00  0.00    -0.185 NA
HETATM   22  N4  UNL     1      35.166   5.717  41.212  1.00  0.00    -0.285 N 
HETATM   23  C16 UNL     1      36.003   6.431  40.270  1.00  0.00     0.179 C 
HETATM   24  C17 UNL     1      35.258   5.889  42.554  1.00  0.00     0.125 A 
ENDBRANCH  17  19
ENDBRANCH   8  10
ENDBRANCH   3   4
TORSDOF 3
ENDMDL
MODEL 7
REMARK VINA RESULT:      -8.2      1.997      6.647
REMARK  3 active torsions:
REMARK  status: ('A' for Active; 'I' for Inactive)
REMARK    1  A    between atoms: C3_3  and  C4_4 
REMARK    2  A    between atoms: C8_8  and  C9_9 
REMARK    3  A    between atoms: C13_15  and  C14_16 
ROOT
HETATM    1  C1  UNL     1      20.474   2.443  47.723  1.00  0.00     0.112 C 
HETATM    2  C2  UNL     1      20.492   1.733  49.004  1.00  0.00    -0.105 C 
HETATM    3  C3  UNL     1      20.490   1.149  50.057  1.00  0.00    -0.067 C 
ENDROOT
BRANCH   3   4
HETATM    4  C4  UNL     1      20.463   0.458  51.316  1.00  0.00     0.018 A 
HETATM    5  C5  UNL     1      19.227   0.055  51.766  1.00  0.00     0.020 A 
HETATM    6  C6  UNL     1      19.192  -0.605  52.969  1.00  0.00     0.002 A 
HETATM    7  C7  UNL     1      20.277  -0.895  53.757  1.00  0.00     0.014 A 
HETATM    8  C8  UNL     1      21.500  -0.487  53.295  1.00  0.00    -0.005 A 
HETATM    9  C20 UNL     1      21.597   0.182  52.090  1.00  0.00     0.034 A 
BRANCH   8  10
HETATM   10  C9  UNL     1      22.833  -0.646  53.856  1.00  0.00     0.077 C 
HETATM   11  N1  UNL     1      23.391  -1.038  54.977  1.00  0.00    -0.241 NA
HETATM   12  C10 UNL     1      24.801  -1.068  55.110  1.00  0.00     0.228 C 
HETATM   13  N2  UNL     1      25.738  -0.768  54.208  1.00  0.00    -0.269 NA
HETATM   14  C11 UNL     1      25.256  -0.378  52.910  1.00  0.00     0.168 A 
HETATM   15  C12 UNL     1      25.936   0.649  52.156  1.00  0.00     0.017 A 
HETATM   16  C19 UNL     1      23.881   0.101  53.089  1.00  0.00     0.001 A 
HETATM   17  C13 UNL     1      25.118   1.633  51.824  1.00  0.00    -0.024 A 
HETATM   18  C18 UNL     1      23.834   1.279  52.418  1.00  0.00     0.024 A 
BRANCH  17  19
HETATM   19  C14 UNL     1      25.449   2.831  51.064  1.00  0.00     0.010 A 
HETATM   20  C15 UNL     1      24.778   4.056  51.047  1.00  0.00     0.152 A 
HETATM   21  N3  UNL     1      25.453   4.865  50.193  1.00  0.00    -0.185 NA
HETATM   22  N4  UNL     1      26.489   4.202  49.694  1.00  0.00    -0.285 N 
HETATM   23  C16 UNL     1      27.470   4.690  48.747  1.00  0.00     0.179 C 
HETATM   24  C17 UNL     1      26.522   2.947  50.205  1.00  0.00     0.125 A 
ENDBRANCH  17  19
ENDBRANCH   8  10
ENDBRANCH   3   4
TORSDOF 3
ENDMDL
MODEL 8
REMARK VINA RESULT:      -8.2      3.366      7.843
REMARK  3 active torsions:
REMARK  status: ('A' for Active; 'I' for Inactive)
REMARK    1  A    between atoms: C3_3  and  C4_4 
REMARK    2  A    between atoms: C8_8  and  C9_9 
REMARK    3  A    between atoms: C13_15  and  C14_16 
ROOT
HETATM    1  C1  UNL     1      15.556  -0.060  49.900  1.00  0.00     0.112 C 
HETATM    2  C2  UNL     1      16.777  -0.015  50.708  1.00  0.00    -0.105 C 
HETATM    3  C3  UNL     1      17.783   0.038  51.367  1.00  0.00    -0.067 C 
ENDROOT
BRANCH   3   4
HETATM    4  C4  UNL     1      18.992   0.121  52.139  1.00  0.00     0.018 A 
HETATM    5  C5  UNL     1      19.151  -0.820  53.129  1.00  0.00     0.020 A 
HETATM    6  C6  UNL     1      20.303  -0.747  53.873  1.00  0.00     0.002 A 
HETATM    7  C7  UNL     1      21.303   0.178  53.714  1.00  0.00     0.014 A 
HETATM    8  C8  UNL     1      21.130   1.107  52.723  1.00  0.00    -0.005 A 
HETATM    9  C20 UNL     1      19.989   1.084  51.943  1.00  0.00     0.034 A 
BRANCH   8  10
HETATM   10  C9  UNL     1      21.986   2.197  52.276  1.00  0.00     0.077 C 
HETATM   11  N1  UNL     1      21.973   3.158  51.383  1.00  0.00    -0.241 NA
HETATM   12  C10 UNL     1      23.053   4.070  51.289  1.00  0.00     0.228 C 
HETATM   13  N2  UNL     1      24.161   4.143  52.033  1.00  0.00    -0.269 NA
HETATM   14  C11 UNL     1      24.269   3.175  53.092  1.00  0.00     0.168 A 
HETATM   15  C12 UNL     1      25.551   2.600  53.426  1.00  0.00     0.017 A 
HETATM   16  C19 UNL     1      23.406   2.046  52.731  1.00  0.00     0.001 A 
HETATM   17  C13 UNL     1      25.523   1.279  53.364  1.00  0.00    -0.024 A 
HETATM   18  C18 UNL     1      24.174   0.945  52.924  1.00  0.00     0.024 A 
BRANCH  17  19
HETATM   19  C14 UNL     1      26.625   0.365  53.639  1.00  0.00     0.010 A 
HETATM   20  C15 UNL     1      27.516   0.385  54.715  1.00  0.00     0.152 A 
HETATM   21  N3  UNL     1      28.365  -0.657  54.545  1.00  0.00    -0.185 NA
HETATM   22  N4  UNL     1      28.041  -1.305  53.433  1.00  0.00    -0.285 N 
HETATM   23  C16 UNL     1      28.687  -2.476  52.878  1.00  0.00     0.179 C 
HETATM   24  C17 UNL     1      26.975  -0.707  52.845  1.00  0.00     0.125 A 
ENDBRANCH  17  19
ENDBRANCH   8  10
ENDBRANCH   3   4
TORSDOF 3
ENDMDL
MODEL 9
REMARK VINA RESULT:      -8.1      2.147      7.275
REMARK  3 active torsions:
REMARK  status: ('A' for Active; 'I' for Inactive)
REMARK    1  A    between atoms: C3_3  and  C4_4 
REMARK    2  A    between atoms: C8_8  and  C9_9 
REMARK    3  A    between atoms: C13_15  and  C14_16 
ROOT
HETATM    1  C1  UNL     1      27.376  -0.823  52.866  1.00  0.00     0.112 C 
HETATM    2  C2  UNL     1      25.957  -0.632  53.175  1.00  0.00    -0.105 C 
HETATM    3  C3  UNL     1      24.786  -0.474  53.411  1.00  0.00    -0.067 C 
ENDROOT
BRANCH   3   4
HETATM    4  C4  UNL     1      23.388  -0.275  53.670  1.00  0.00     0.018 A 
HETATM    5  C5  UNL     1      22.798  -1.151  54.551  1.00  0.00     0.020 A 
HETATM    6  C6  UNL     1      21.461  -0.969  54.803  1.00  0.00     0.002 A 
HETATM    7  C7  UNL     1      20.667   0.006  54.255  1.00  0.00     0.014 A 
HETATM    8  C8  UNL     1      21.269   0.870  53.380  1.00  0.00    -0.005 A 
HETATM    9  C20 UNL     1      22.613   0.736  53.087  1.00  0.00     0.034 A 
BRANCH   8  10
HETATM   10  C9  UNL     1      20.738   2.011  52.648  1.00  0.00     0.077 C 
HETATM   11  N1  UNL     1      19.602   2.400  52.119  1.00  0.00    -0.241 NA
HETATM   12  C10 UNL     1      19.497   3.662  51.483  1.00  0.00     0.228 C 
HETATM   13  N2  UNL     1      20.424   4.613  51.342  1.00  0.00    -0.269 NA
HETATM   14  C11 UNL     1      21.705   4.332  51.934  1.00  0.00     0.168 A 
HETATM   15  C12 UNL     1      22.920   4.762  51.281  1.00  0.00     0.017 A 
HETATM   16  C19 UNL     1      21.810   2.875  52.057  1.00  0.00     0.001 A 
HETATM   17  C13 UNL     1      23.742   3.748  51.066  1.00  0.00    -0.024 A 
HETATM   18  C18 UNL     1      23.032   2.571  51.553  1.00  0.00     0.024 A 
BRANCH  17  19
HETATM   19  C14 UNL     1      25.054   3.801  50.436  1.00  0.00     0.010 A 
HETATM   20  C15 UNL     1      26.055   2.827  50.442  1.00  0.00     0.152 A 
HETATM   21  N3  UNL     1      27.095   3.323  49.727  1.00  0.00    -0.185 NA
HETATM   22  N4  UNL     1      26.782   4.537  49.291  1.00  0.00    -0.285 N 
HETATM   23  C16 UNL     1      27.604   5.421  48.490  1.00  0.00     0.179 C 
HETATM   24  C17 UNL     1      25.534   4.868  49.706  1.00  0.00     0.125 A 
ENDBRANCH  17  19
ENDBRANCH   8  10
ENDBRANCH   3   4
TORSDOF 3
ENDMDL
