MODEL 1
REMARK VINA RESULT:      -7.6      0.000      0.000
REMARK  8 active torsions:
REMARK  status: ('A' for Active; 'I' for Inactive)
REMARK    1  A    between atoms: C2_2  and  C3_3 
REMARK    2  A    between atoms: C3_3  and  C4_5 
REMARK    3  A    between atoms: C6_7  and  O2_8 
REMARK    4  A    between atoms: C6_7  and  N1_10 
REMARK    5  A    between atoms: C13_17  and  C14_18 
REMARK    6  A    between atoms: C18_22  and  N3_23 
REMARK    7  A    between atoms: C21_26  and  N4_27 
REMARK    8  A    between atoms: C25_31  and  N5_32 
ROOT
HETATM    1  C4  UNL     1      29.347   6.537  48.166  1.00  0.00     0.042 A 
HETATM    2  C5  UNL     1      30.388   5.693  48.198  1.00  0.00     0.056 A 
HETATM    3  C6  UNL     1      31.621   6.435  47.721  1.00  0.00     0.178 A 
HETATM    4  C17 UNL     1      31.097   7.734  47.456  1.00  0.00     0.068 A 
HETATM    5  C18 UNL     1      29.775   7.870  47.689  1.00  0.00     0.047 A 
ENDROOT
BRANCH   3   6
HETATM    6  O2  UNL     1      32.410   6.462  48.933  1.00  0.00    -0.358 OA
HETATM    7  C7  UNL     1      33.159   7.611  48.906  1.00  0.00     0.205 C 
ENDBRANCH   3   6
BRANCH   3   8
HETATM    8  N1  UNL     1      32.223   5.572  46.795  1.00  0.00    -0.328 N 
HETATM    9  C8  UNL     1      31.860   4.207  47.256  1.00  0.00     0.276 C 
HETATM   10  N2  UNL     1      32.987   3.493  47.796  1.00  0.00    -0.282 NA
HETATM   11  C9  UNL     1      34.159   3.090  47.443  1.00  0.00     0.112 C 
HETATM   12  C10 UNL     1      34.818   3.271  46.142  1.00  0.00     0.019 C 
HETATM   13  C11 UNL     1      34.765   4.212  45.183  1.00  0.00     0.003 C 
HETATM   14  C12 UNL     1      33.989   5.442  45.107  1.00  0.00     0.025 C 
HETATM   15  C13 UNL     1      32.981   6.063  45.690  1.00  0.00     0.016 C 
BRANCH  15  16
HETATM   16  C14 UNL     1      32.431   7.352  45.286  1.00  0.00     0.036 A 
HETATM   17  C15 UNL     1      33.045   8.233  44.277  1.00  0.00     0.011 A 
HETATM   18  C16 UNL     1      31.883   7.453  43.857  1.00  0.00     0.011 A 
ENDBRANCH  15  16
ENDBRANCH   3   8
BRANCH   1  19
HETATM   19  C3  UNL     1      28.014   6.173  48.551  1.00  0.00     0.183 C 
HETATM   20  O1  UNL     1      27.110   6.987  48.860  1.00  0.00    -0.288 OA
BRANCH  19  21
HETATM   21  C2  UNL     1      27.605   4.776  48.613  1.00  0.00     0.045 C 
HETATM   22  C1  UNL     1      26.414   4.816  49.193  1.00  0.00     0.015 C 
ENDBRANCH  19  21
ENDBRANCH   1  19
BRANCH   5  23
HETATM   23  N3  UNL     1      28.888   8.973  47.552  1.00  0.00    -0.350 N 
HETATM   24  C19 UNL     1      27.897   9.190  46.553  1.00  0.00     0.127 C 
HETATM   25  C20 UNL     1      28.098  10.620  46.029  1.00  0.00     0.055 C 
HETATM   26  C21 UNL     1      27.821  11.605  47.138  1.00  0.00     0.227 C 
HETATM   27  C24 UNL     1      28.114  11.099  48.505  1.00  0.00     0.092 C 
HETATM   28  C25 UNL     1      29.074   9.959  48.589  1.00  0.00     0.321 C 
BRANCH  26  29
HETATM   29  N4  UNL     1      28.429  12.860  46.790  1.00  0.00     0.084 N 
HETATM   30  C22 UNL     1      28.462  13.664  48.000  1.00  0.00     0.309 C 
HETATM   31  C23 UNL     1      29.762  12.761  46.279  1.00  0.00     0.309 C 
ENDBRANCH  26  29
BRANCH  28  32
HETATM   32  N5  UNL     1      28.890   9.338  49.909  1.00  0.00     0.101 N 
HETATM   33  H34 UNL     1      27.870   9.369  50.196  1.00  0.00     0.315 HD
HETATM   34  H35 UNL     1      29.398   9.855  50.644  1.00  0.00     0.315 HD
ENDBRANCH  28  32
ENDBRANCH   5  23
TORSDOF 8
ENDMDL
MODEL 2
REMARK VINA RESULT:      -7.6      9.200     12.567
REMARK  8 active torsions:
REMARK  status: ('A' for Active; 'I' for Inactive)
REMARK    1  A    between atoms: C2_2  and  C3_3 
REMARK    2  A    between atoms: C3_3  and  C4_5 
REMARK    3  A    between atoms: C6_7  and  O2_8 
REMARK    4  A    between atoms: C6_7  and  N1_10 
REMARK    5  A    between atoms: C13_17  and  C14_18 
REMARK    6  A    between atoms: C18_22  and  N3_23 
REMARK    7  A    between atoms: C21_26  and  N4_27 
REMARK    8  A    between atoms: C25_31  and  N5_32 
ROOT
HETATM    1  C4  UNL     1      22.715   0.556  52.312  1.00  0.00     0.042 A 
HETATM    2  C5  UNL     1      21.497   0.635  51.755  1.00  0.00     0.056 A 
HETATM    3  C6  UNL     1      21.547   1.665  50.642  1.00  0.00     0.178 A 
HETATM    4  C17 UNL     1      22.908   2.084  50.691  1.00  0.00     0.068 A 
HETATM    5  C18 UNL     1      23.652   1.484  51.643  1.00  0.00     0.047 A 
ENDROOT
BRANCH   3   6
HETATM    6  O2  UNL     1      21.333   0.825  49.484  1.00  0.00    -0.358 OA
HETATM    7  C7  UNL     1      21.917   1.452  48.413  1.00  0.00     0.205 C 
ENDBRANCH   3   6
BRANCH   3   8
HETATM    8  N1  UNL     1      20.417   2.469  50.847  1.00  0.00    -0.328 N 
HETATM    9  C8  UNL     1      19.425   1.572  51.495  1.00  0.00     0.276 C 
HETATM   10  N2  UNL     1      18.330   1.244  50.620  1.00  0.00    -0.282 NA
HETATM   11  C9  UNL     1      17.401   1.826  49.945  1.00  0.00     0.112 C 
HETATM   12  C10 UNL     1      17.128   3.267  49.846  1.00  0.00     0.019 C 
HETATM   13  C11 UNL     1      17.889   4.374  49.907  1.00  0.00     0.003 C 
HETATM   14  C12 UNL     1      19.324   4.526  50.104  1.00  0.00     0.025 C 
HETATM   15  C13 UNL     1      20.393   3.844  50.468  1.00  0.00     0.016 C 
BRANCH  15  16
HETATM   16  C14 UNL     1      21.743   4.381  50.585  1.00  0.00     0.036 A 
HETATM   17  C15 UNL     1      22.135   5.734  50.149  1.00  0.00     0.011 A 
HETATM   18  C16 UNL     1      21.947   5.528  51.583  1.00  0.00     0.011 A 
ENDBRANCH  15  16
ENDBRANCH   3   8
BRANCH   1  19
HETATM   19  C3  UNL     1      23.037  -0.320  53.401  1.00  0.00     0.183 C 
HETATM   20  O1  UNL     1      24.036  -1.077  53.441  1.00  0.00    -0.288 OA
BRANCH  19  21
HETATM   21  C2  UNL     1      22.186  -0.394  54.582  1.00  0.00     0.045 C 
HETATM   22  C1  UNL     1      21.746  -1.643  54.583  1.00  0.00     0.015 C 
ENDBRANCH  19  21
ENDBRANCH   1  19
BRANCH   5  23
HETATM   23  N3  UNL     1      25.018   1.618  52.016  1.00  0.00    -0.350 N 
HETATM   24  C19 UNL     1      26.174   1.193  51.301  1.00  0.00     0.127 C 
HETATM   25  C20 UNL     1      27.055   0.423  52.297  1.00  0.00     0.055 C 
HETATM   26  C21 UNL     1      27.531   1.361  53.377  1.00  0.00     0.227 C 
HETATM   27  C24 UNL     1      26.603   2.482  53.679  1.00  0.00     0.092 C 
HETATM   28  C25 UNL     1      25.177   2.274  53.291  1.00  0.00     0.321 C 
BRANCH  26  29
HETATM   29  N4  UNL     1      27.954   0.576  54.505  1.00  0.00     0.084 N 
HETATM   30  C22 UNL     1      26.785  -0.142  54.983  1.00  0.00     0.309 C 
HETATM   31  C23 UNL     1      28.982  -0.378  54.220  1.00  0.00     0.309 C 
ENDBRANCH  26  29
BRANCH  28  32
HETATM   32  N5  UNL     1      24.542   3.600  53.255  1.00  0.00     0.101 N 
HETATM   33  H34 UNL     1      23.753   3.615  52.549  1.00  0.00     0.315 HD
HETATM   34  H35 UNL     1      25.205   4.328  52.943  1.00  0.00     0.315 HD
ENDBRANCH  28  32
ENDBRANCH   5  23
TORSDOF 8
ENDMDL
MODEL 3
REMARK VINA RESULT:      -7.4      7.231     10.067
REMARK  8 active torsions:
REMARK  status: ('A' for Active; 'I' for Inactive)
REMARK    1  A    between atoms: C2_2  and  C3_3 
REMARK    2  A    between atoms: C3_3  and  C4_5 
REMARK    3  A    between atoms: C6_7  and  O2_8 
REMARK    4  A    between atoms: C6_7  and  N1_10 
REMARK    5  A    between atoms: C13_17  and  C14_18 
REMARK    6  A    between atoms: C18_22  and  N3_23 
REMARK    7  A    between atoms: C21_26  and  N4_27 
REMARK    8  A    between atoms: C25_31  and  N5_32 
ROOT
HETATM    1  C4  UNL     1      22.913   3.274  50.262  1.00  0.00     0.042 A 
HETATM    2  C5  UNL     1      22.995   2.079  50.865  1.00  0.00     0.056 A 
HETATM    3  C6  UNL     1      22.761   2.277  52.350  1.00  0.00     0.178 A 
HETATM    4  C17 UNL     1      22.545   3.684  52.428  1.00  0.00     0.068 A 
HETATM    5  C18 UNL     1      22.622   4.335  51.249  1.00  0.00     0.047 A 
ENDROOT
BRANCH   3   6
HETATM    6  O2  UNL     1      21.506   1.578  52.524  1.00  0.00    -0.358 OA
HETATM    7  C7  UNL     1      20.537   2.526  52.735  1.00  0.00     0.205 C 
ENDBRANCH   3   6
BRANCH   3   8
HETATM    8  N1  UNL     1      23.786   1.554  52.975  1.00  0.00    -0.328 N 
HETATM    9  C8  UNL     1      24.848   2.557  53.245  1.00  0.00     0.276 C 
HETATM   10  N2  UNL     1      26.003   2.372  52.407  1.00  0.00    -0.282 NA
HETATM   11  C9  UNL     1      26.885   1.475  52.130  1.00  0.00     0.112 C 
HETATM   12  C10 UNL     1      26.999   0.121  52.691  1.00  0.00     0.019 C 
HETATM   13  C11 UNL     1      26.118  -0.777  53.166  1.00  0.00     0.003 C 
HETATM   14  C12 UNL     1      24.669  -0.704  53.293  1.00  0.00     0.025 C 
HETATM   15  C13 UNL     1      23.670   0.156  53.236  1.00  0.00     0.016 C 
BRANCH  15  16
HETATM   16  C14 UNL     1      22.265  -0.158  53.466  1.00  0.00     0.036 A 
HETATM   17  C15 UNL     1      21.758  -1.511  53.757  1.00  0.00     0.011 A 
HETATM   18  C16 UNL     1      21.877  -0.591  54.886  1.00  0.00     0.011 A 
ENDBRANCH  15  16
ENDBRANCH   3   8
BRANCH   1  19
HETATM   19  C3  UNL     1      23.084   3.467  48.850  1.00  0.00     0.183 C 
HETATM   20  O1  UNL     1      23.811   4.347  48.330  1.00  0.00    -0.288 OA
BRANCH  19  21
HETATM   21  C2  UNL     1      22.395   2.617  47.887  1.00  0.00     0.045 C 
HETATM   22  C1  UNL     1      21.966   3.464  46.962  1.00  0.00     0.015 C 
ENDBRANCH  19  21
ENDBRANCH   1  19
BRANCH   5  23
HETATM   23  N3  UNL     1      22.475   5.706  50.902  1.00  0.00    -0.350 N 
HETATM   24  C19 UNL     1      21.296   6.394  50.499  1.00  0.00     0.127 C 
HETATM   25  C20 UNL     1      21.653   7.184  49.230  1.00  0.00     0.055 C 
HETATM   26  C21 UNL     1      22.678   8.239  49.567  1.00  0.00     0.227 C 
HETATM   27  C24 UNL     1      23.584   7.887  50.692  1.00  0.00     0.092 C 
HETATM   28  C25 UNL     1      23.720   6.431  50.992  1.00  0.00     0.321 C 
BRANCH  26  29
HETATM   29  N4  UNL     1      23.320   8.650  48.348  1.00  0.00     0.084 N 
HETATM   30  C22 UNL     1      24.630   9.165  48.714  1.00  0.00     0.309 C 
HETATM   31  C23 UNL     1      23.500   7.610  47.383  1.00  0.00     0.309 C 
ENDBRANCH  26  29
BRANCH  28  32
HETATM   32  N5  UNL     1      24.268   6.322  52.352  1.00  0.00     0.101 N 
HETATM   33  H34 UNL     1      25.195   6.829  52.421  1.00  0.00     0.315 HD
HETATM   34  H35 UNL     1      24.471   5.341  52.599  1.00  0.00     0.315 HD
ENDBRANCH  28  32
ENDBRANCH   5  23
TORSDOF 8
ENDMDL
MODEL 4
REMARK VINA RESULT:      -7.1      5.220      9.238
REMARK  8 active torsions:
REMARK  status: ('A' for Active; 'I' for Inactive)
REMARK    1  A    between atoms: C2_2  and  C3_3 
REMARK    2  A    between atoms: C3_3  and  C4_5 
REMARK    3  A    between atoms: C6_7  and  O2_8 
REMARK    4  A    between atoms: C6_7  and  N1_10 
REMARK    5  A    between atoms: C13_17  and  C14_18 
REMARK    6  A    between atoms: C18_22  and  N3_23 
REMARK    7  A    between atoms: C21_26  and  N4_27 
REMARK    8  A    between atoms: C25_31  and  N5_32 
ROOT
HETATM    1  C4  UNL     1      23.313   4.594  49.573  1.00  0.00     0.042 A 
HETATM    2  C5  UNL     1      22.593   3.707  50.275  1.00  0.00     0.056 A 
HETATM    3  C6  UNL     1      23.318   3.428  51.578  1.00  0.00     0.178 A 
HETATM    4  C17 UNL     1      24.463   4.267  51.462  1.00  0.00     0.068 A 
HETATM    5  C18 UNL     1      24.532   4.977  50.317  1.00  0.00     0.047 A 
ENDROOT
BRANCH   3   6
HETATM    6  O2  UNL     1      22.389   3.992  52.533  1.00  0.00    -0.358 OA
HETATM    7  C7  UNL     1      23.102   4.845  53.338  1.00  0.00     0.205 C 
ENDBRANCH   3   6
BRANCH   3   8
HETATM    8  N1  UNL     1      23.314   2.031  51.698  1.00  0.00    -0.328 N 
HETATM    9  C8  UNL     1      22.167   1.582  50.866  1.00  0.00     0.276 C 
HETATM   10  N2  UNL     1      21.076   1.084  51.662  1.00  0.00    -0.282 NA
HETATM   11  C9  UNL     1      20.831   0.171  52.538  1.00  0.00     0.112 C 
HETATM   12  C10 UNL     1      21.767  -0.820  53.090  1.00  0.00     0.019 C 
HETATM   13  C11 UNL     1      23.090  -0.834  53.326  1.00  0.00     0.003 C 
HETATM   14  C12 UNL     1      24.102   0.189  53.100  1.00  0.00     0.025 C 
HETATM   15  C13 UNL     1      24.286   1.339  52.481  1.00  0.00     0.016 C 
BRANCH  15  16
HETATM   16  C14 UNL     1      25.530   2.100  52.454  1.00  0.00     0.036 A 
HETATM   17  C15 UNL     1      26.721   1.764  53.254  1.00  0.00     0.011 A 
HETATM   18  C16 UNL     1      26.751   1.406  51.838  1.00  0.00     0.011 A 
ENDBRANCH  15  16
ENDBRANCH   3   8
BRANCH   1  19
HETATM   19  C3  UNL     1      22.928   5.090  48.283  1.00  0.00     0.183 C 
HETATM   20  O1  UNL     1      22.818   4.388  47.249  1.00  0.00    -0.288 OA
BRANCH  19  21
HETATM   21  C2  UNL     1      22.629   6.501  48.080  1.00  0.00     0.045 C 
HETATM   22  C1  UNL     1      23.058   6.746  46.850  1.00  0.00     0.015 C 
ENDBRANCH  19  21
ENDBRANCH   1  19
BRANCH   5  23
HETATM   23  N3  UNL     1      25.490   5.905  49.824  1.00  0.00    -0.350 N 
HETATM   24  C19 UNL     1      25.666   7.270  50.187  1.00  0.00     0.127 C 
HETATM   25  C20 UNL     1      25.750   8.072  48.880  1.00  0.00     0.055 C 
HETATM   26  C21 UNL     1      26.986   7.663  48.118  1.00  0.00     0.227 C 
HETATM   27  C24 UNL     1      27.413   6.256  48.339  1.00  0.00     0.092 C 
HETATM   28  C25 UNL     1      26.359   5.321  48.830  1.00  0.00     0.321 C 
BRANCH  26  29
HETATM   29  N4  UNL     1      26.824   8.062  46.746  1.00  0.00     0.084 N 
HETATM   30  C22 UNL     1      25.946   9.220  46.742  1.00  0.00     0.309 C 
HETATM   31  C23 UNL     1      28.038   8.416  46.077  1.00  0.00     0.309 C 
ENDBRANCH  26  29
BRANCH  28  32
HETATM   32  N5  UNL     1      27.050   4.152  49.394  1.00  0.00     0.101 N 
HETATM   33  H34 UNL     1      26.564   3.822  50.275  1.00  0.00     0.315 HD
HETATM   34  H35 UNL     1      28.013   4.384  49.681  1.00  0.00     0.315 HD
ENDBRANCH  28  32
ENDBRANCH   5  23
TORSDOF 8
ENDMDL
MODEL 5
REMARK VINA RESULT:      -6.9      6.323     10.730
REMARK  8 active torsions:
REMARK  status: ('A' for Active; 'I' for Inactive)
REMARK    1  A    between atoms: C2_2  and  C3_3 
REMARK    2  A    between atoms: C3_3  and  C4_5 
REMARK    3  A    between atoms: C6_7  and  O2_8 
REMARK    4  A    between atoms: C6_7  and  N1_10 
REMARK    5  A    between atoms: C13_17  and  C14_18 
REMARK    6  A    between atoms: C18_22  and  N3_23 
REMARK    7  A    between atoms: C21_26  and  N4_27 
REMARK    8  A    between atoms: C25_31  and  N5_32 
ROOT
HETATM    1  C4  UNL     1      24.216   3.864  51.014  1.00  0.00     0.042 A 
HETATM    2  C5  UNL     1      24.641   5.007  50.456  1.00  0.00     0.056 A 
HETATM    3  C6  UNL     1      23.456   5.686  49.797  1.00  0.00     0.178 A 
HETATM    4  C17 UNL     1      22.398   4.777  50.087  1.00  0.00     0.068 A 
HETATM    5  C18 UNL     1      22.765   3.687  50.792  1.00  0.00     0.047 A 
ENDROOT
BRANCH   3   6
HETATM    6  O2  UNL     1      23.326   6.869  50.620  1.00  0.00    -0.358 OA
HETATM    7  C7  UNL     1      21.991   7.177  50.683  1.00  0.00     0.205 C 
ENDBRANCH   3   6
BRANCH   3   8
HETATM    8  N1  UNL     1      23.915   6.055  48.525  1.00  0.00    -0.328 N 
HETATM    9  C8  UNL     1      25.376   6.269  48.697  1.00  0.00     0.276 C 
HETATM   10  N2  UNL     1      25.740   7.659  48.606  1.00  0.00    -0.282 NA
HETATM   11  C9  UNL     1      25.666   8.644  47.780  1.00  0.00     0.112 C 
HETATM   12  C10 UNL     1      25.080   8.646  46.431  1.00  0.00     0.019 C 
HETATM   13  C11 UNL     1      24.080   7.970  45.840  1.00  0.00     0.003 C 
HETATM   14  C12 UNL     1      23.188   6.948  46.368  1.00  0.00     0.025 C 
HETATM   15  C13 UNL     1      23.038   6.144  47.403  1.00  0.00     0.016 C 
BRANCH  15  16
HETATM   16  C14 UNL     1      21.965   5.171  47.576  1.00  0.00     0.036 A 
HETATM   17  C15 UNL     1      20.813   5.042  46.664  1.00  0.00     0.011 A 
HETATM   18  C16 UNL     1      21.877   4.049  46.534  1.00  0.00     0.011 A 
ENDBRANCH  15  16
ENDBRANCH   3   8
BRANCH   1  19
HETATM   19  C3  UNL     1      25.072   2.959  51.726  1.00  0.00     0.183 C 
HETATM   20  O1  UNL     1      24.966   2.683  52.945  1.00  0.00    -0.288 OA
BRANCH  19  21
HETATM   21  C2  UNL     1      26.168   2.274  51.052  1.00  0.00     0.045 C 
HETATM   22  C1  UNL     1      26.385   1.203  51.801  1.00  0.00     0.015 C 
ENDBRANCH  19  21
ENDBRANCH   1  19
BRANCH   5  23
HETATM   23  N3  UNL     1      22.033   2.566  51.271  1.00  0.00    -0.350 N 
HETATM   24  C19 UNL     1      21.108   2.511  52.353  1.00  0.00     0.127 C 
HETATM   25  C20 UNL     1      21.509   1.309  53.221  1.00  0.00     0.055 C 
HETATM   26  C21 UNL     1      21.328   0.037  52.431  1.00  0.00     0.227 C 
HETATM   27  C24 UNL     1      21.511   0.187  50.963  1.00  0.00     0.092 C 
HETATM   28  C25 UNL     1      22.312   1.366  50.520  1.00  0.00     0.321 C 
BRANCH  26  29
HETATM   29  N4  UNL     1      22.104  -0.999  53.057  1.00  0.00     0.084 N 
HETATM   30  C22 UNL     1      23.347  -0.388  53.500  1.00  0.00     0.309 C 
HETATM   31  C23 UNL     1      21.480  -1.617  54.187  1.00  0.00     0.309 C 
ENDBRANCH  26  29
BRANCH  28  32
HETATM   32  N5  UNL     1      22.009   1.582  49.097  1.00  0.00     0.101 N 
HETATM   33  H34 UNL     1      21.313   0.862  48.752  1.00  0.00     0.315 HD
HETATM   34  H35 UNL     1      22.848   1.458  48.509  1.00  0.00     0.315 HD
ENDBRANCH  28  32
ENDBRANCH   5  23
TORSDOF 8
ENDMDL
MODEL 6
REMARK VINA RESULT:      -6.9      6.531     10.686
REMARK  8 active torsions:
REMARK  status: ('A' for Active; 'I' for Inactive)
REMARK    1  A    between atoms: C2_2  and  C3_3 
REMARK    2  A    between atoms: C3_3  and  C4_5 
REMARK    3  A    between atoms: C6_7  and  O2_8 
REMARK    4  A    between atoms: C6_7  and  N1_10 
REMARK    5  A    between atoms: C13_17  and  C14_18 
REMARK    6  A    between atoms: C18_22  and  N3_23 
REMARK    7  A    between atoms: C21_26  and  N4_27 
REMARK    8  A    between atoms: C25_31  and  N5_32 
ROOT
HETATM    1  C4  UNL     1      21.329   3.654  49.786  1.00  0.00     0.042 A 
HETATM    2  C5  UNL     1      20.812   2.716  50.592  1.00  0.00     0.056 A 
HETATM    3  C6  UNL     1      21.523   2.791  51.929  1.00  0.00     0.178 A 
HETATM    4  C17 UNL     1      22.438   3.862  51.715  1.00  0.00     0.068 A 
HETATM    5  C18 UNL     1      22.385   4.415  50.486  1.00  0.00     0.047 A 
ENDROOT
BRANCH   3   6
HETATM    6  O2  UNL     1      20.445   3.229  52.788  1.00  0.00    -0.358 OA
HETATM    7  C7  UNL     1      19.368   3.501  51.983  1.00  0.00     0.205 C 
ENDBRANCH   3   6
BRANCH   3   8
HETATM    8  N1  UNL     1      21.850   1.462  52.237  1.00  0.00    -0.328 N 
HETATM    9  C8  UNL     1      20.787   0.651  51.589  1.00  0.00     0.276 C 
HETATM   10  N2  UNL     1      19.893   0.054  52.547  1.00  0.00    -0.282 NA
HETATM   11  C9  UNL     1      19.923  -0.744  53.558  1.00  0.00     0.112 C 
HETATM   12  C10 UNL     1      21.096  -1.409  54.145  1.00  0.00     0.019 C 
HETATM   13  C11 UNL     1      22.399  -1.097  54.251  1.00  0.00     0.003 C 
HETATM   14  C12 UNL     1      23.131   0.075  53.790  1.00  0.00     0.025 C 
HETATM   15  C13 UNL     1      23.004   1.129  53.007  1.00  0.00     0.016 C 
BRANCH  15  16
HETATM   16  C14 UNL     1      24.034   2.130  52.756  1.00  0.00     0.036 A 
HETATM   17  C15 UNL     1      25.363   2.126  53.394  1.00  0.00     0.011 A 
HETATM   18  C16 UNL     1      25.289   1.658  52.012  1.00  0.00     0.011 A 
ENDBRANCH  15  16
ENDBRANCH   3   8
BRANCH   1  19
HETATM   19  C3  UNL     1      20.893   3.872  48.436  1.00  0.00     0.183 C 
HETATM   20  O1  UNL     1      20.409   4.945  48.004  1.00  0.00    -0.288 OA
BRANCH  19  21
HETATM   21  C2  UNL     1      20.988   2.815  47.437  1.00  0.00     0.045 C 
HETATM   22  C1  UNL     1      22.267   2.469  47.458  1.00  0.00     0.015 C 
ENDBRANCH  19  21
ENDBRANCH   1  19
BRANCH   5  23
HETATM   23  N3  UNL     1      23.113   5.478  49.883  1.00  0.00    -0.350 N 
HETATM   24  C19 UNL     1      23.689   5.528  48.582  1.00  0.00     0.127 C 
HETATM   25  C20 UNL     1      25.134   6.019  48.753  1.00  0.00     0.055 C 
HETATM   26  C21 UNL     1      25.126   7.433  49.278  1.00  0.00     0.227 C 
HETATM   27  C24 UNL     1      23.955   7.771  50.129  1.00  0.00     0.092 C 
HETATM   28  C25 UNL     1      23.247   6.618  50.759  1.00  0.00     0.321 C 
BRANCH  26  29
HETATM   29  N4  UNL     1      26.416   7.712  49.847  1.00  0.00     0.084 N 
HETATM   30  C22 UNL     1      27.408   7.328  48.856  1.00  0.00     0.309 C 
HETATM   31  C23 UNL     1      26.636   9.083  50.194  1.00  0.00     0.309 C 
ENDBRANCH  26  29
BRANCH  28  32
HETATM   32  N5  UNL     1      21.918   7.097  51.165  1.00  0.00     0.101 N 
HETATM   33  H34 UNL     1      21.447   7.608  50.366  1.00  0.00     0.315 HD
HETATM   34  H35 UNL     1      21.983   7.786  51.931  1.00  0.00     0.315 HD
ENDBRANCH  28  32
ENDBRANCH   5  23
TORSDOF 8
ENDMDL
MODEL 7
REMARK VINA RESULT:      -6.8     10.318     14.936
REMARK  8 active torsions:
REMARK  status: ('A' for Active; 'I' for Inactive)
REMARK    1  A    between atoms: C2_2  and  C3_3 
REMARK    2  A    between atoms: C3_3  and  C4_5 
REMARK    3  A    between atoms: C6_7  and  O2_8 
REMARK    4  A    between atoms: C6_7  and  N1_10 
REMARK    5  A    between atoms: C13_17  and  C14_18 
REMARK    6  A    between atoms: C18_22  and  N3_23 
REMARK    7  A    between atoms: C21_26  and  N4_27 
REMARK    8  A    between atoms: C25_31  and  N5_32 
ROOT
HETATM    1  C4  UNL     1      18.247   2.817  51.212  1.00  0.00     0.042 A 
HETATM    2  C5  UNL     1      19.521   3.227  51.119  1.00  0.00     0.056 A 
HETATM    3  C6  UNL     1      20.405   2.005  50.963  1.00  0.00     0.178 A 
HETATM    4  C17 UNL     1      19.450   0.947  50.979  1.00  0.00     0.068 A 
HETATM    5  C18 UNL     1      18.169   1.343  51.124  1.00  0.00     0.047 A 
ENDROOT
BRANCH   3   6
HETATM    6  O2  UNL     1      20.903   2.198  49.619  1.00  0.00    -0.358 OA
HETATM    7  C7  UNL     1      21.284   0.967  49.146  1.00  0.00     0.205 C 
ENDBRANCH   3   6
BRANCH   3   8
HETATM    8  N1  UNL     1      21.451   2.201  51.877  1.00  0.00    -0.328 N 
HETATM    9  C8  UNL     1      21.715   3.662  51.843  1.00  0.00     0.276 C 
HETATM   10  N2  UNL     1      22.970   3.977  51.211  1.00  0.00    -0.282 NA
HETATM   11  C9  UNL     1      24.227   3.726  51.338  1.00  0.00     0.112 C 
HETATM   12  C10 UNL     1      24.879   2.888  52.355  1.00  0.00     0.019 C 
HETATM   13  C11 UNL     1      24.509   1.803  53.057  1.00  0.00     0.003 C 
HETATM   14  C12 UNL     1      23.263   1.050  53.048  1.00  0.00     0.025 C 
HETATM   15  C13 UNL     1      22.019   1.119  52.615  1.00  0.00     0.016 C 
BRANCH  15  16
HETATM   16  C14 UNL     1      20.983   0.118  52.842  1.00  0.00     0.036 A 
HETATM   17  C15 UNL     1      21.164  -1.082  53.678  1.00  0.00     0.011 A 
HETATM   18  C16 UNL     1      20.412   0.025  54.263  1.00  0.00     0.011 A 
ENDBRANCH  15  16
ENDBRANCH   3   8
BRANCH   1  19
HETATM   19  C3  UNL     1      17.133   3.708  51.369  1.00  0.00     0.183 C 
HETATM   20  O1  UNL     1      16.756   4.198  52.461  1.00  0.00    -0.288 OA
BRANCH  19  21
HETATM   21  C2  UNL     1      16.332   4.117  50.224  1.00  0.00     0.045 C 
HETATM   22  C1  UNL     1      15.095   3.780  50.561  1.00  0.00     0.015 C 
ENDBRANCH  19  21
ENDBRANCH   1  19
BRANCH   5  23
HETATM   23  N3  UNL     1      16.946   0.620  51.190  1.00  0.00    -0.350 N 
HETATM   24  C19 UNL     1      15.996   0.586  52.250  1.00  0.00     0.127 C 
HETATM   25  C20 UNL     1      15.683  -0.894  52.520  1.00  0.00     0.055 C 
HETATM   26  C21 UNL     1      15.007  -1.492  51.312  1.00  0.00     0.227 C 
HETATM   27  C24 UNL     1      15.396  -0.877  50.015  1.00  0.00     0.092 C 
HETATM   28  C25 UNL     1      16.702  -0.156  49.998  1.00  0.00     0.321 C 
BRANCH  26  29
HETATM   29  N4  UNL     1      15.127  -2.923  51.388  1.00  0.00     0.084 N 
HETATM   30  C22 UNL     1      15.748  -3.228  52.667  1.00  0.00     0.309 C 
HETATM   31  C23 UNL     1      13.887  -3.634  51.311  1.00  0.00     0.309 C 
ENDBRANCH  26  29
BRANCH  28  32
HETATM   32  N5  UNL     1      16.693   0.724  48.820  1.00  0.00     0.101 N 
HETATM   33  H34 UNL     1      15.708   1.050  48.607  1.00  0.00     0.315 HD
HETATM   34  H35 UNL     1      17.006   0.224  47.973  1.00  0.00     0.315 HD
ENDBRANCH  28  32
ENDBRANCH   5  23
TORSDOF 8
ENDMDL
MODEL 8
REMARK VINA RESULT:      -6.6      1.615      2.076
REMARK  8 active torsions:
REMARK  status: ('A' for Active; 'I' for Inactive)
REMARK    1  A    between atoms: C2_2  and  C3_3 
REMARK    2  A    between atoms: C3_3  and  C4_5 
REMARK    3  A    between atoms: C6_7  and  O2_8 
REMARK    4  A    between atoms: C6_7  and  N1_10 
REMARK    5  A    between atoms: C13_17  and  C14_18 
REMARK    6  A    between atoms: C18_22  and  N3_23 
REMARK    7  A    between atoms: C21_26  and  N4_27 
REMARK    8  A    between atoms: C25_31  and  N5_32 
ROOT
HETATM    1  C4  UNL     1      29.659   6.819  47.470  1.00  0.00     0.042 A 
HETATM    2  C5  UNL     1      30.817   6.181  47.697  1.00  0.00     0.056 A 
HETATM    3  C6  UNL     1      31.858   6.726  46.738  1.00  0.00     0.178 A 
HETATM    4  C17 UNL     1      31.111   7.702  46.018  1.00  0.00     0.068 A 
HETATM    5  C18 UNL     1      29.818   7.813  46.386  1.00  0.00     0.047 A 
ENDROOT
BRANCH   3   6
HETATM    6  O2  UNL     1      32.762   7.379  47.659  1.00  0.00    -0.358 OA
HETATM    7  C7  UNL     1      32.973   8.650  47.188  1.00  0.00     0.205 C 
ENDBRANCH   3   6
BRANCH   3   8
HETATM    8  N1  UNL     1      32.482   5.589  46.203  1.00  0.00    -0.328 N 
HETATM    9  C8  UNL     1      32.093   4.480  47.113  1.00  0.00     0.276 C 
HETATM   10  N2  UNL     1      33.198   4.012  47.909  1.00  0.00    -0.282 NA
HETATM   11  C9  UNL     1      34.376   3.514  47.762  1.00  0.00     0.112 C 
HETATM   12  C10 UNL     1      35.077   3.217  46.504  1.00  0.00     0.019 C 
HETATM   13  C11 UNL     1      35.061   3.750  45.270  1.00  0.00     0.003 C 
HETATM   14  C12 UNL     1      34.297   4.868  44.733  1.00  0.00     0.025 C 
HETATM   15  C13 UNL     1      33.277   5.653  45.020  1.00  0.00     0.016 C 
BRANCH  15  16
HETATM   16  C14 UNL     1      32.750   6.709  44.164  1.00  0.00     0.036 A 
HETATM   17  C15 UNL     1      33.526   7.377  43.103  1.00  0.00     0.011 A 
HETATM   18  C16 UNL     1      32.560   6.365  42.681  1.00  0.00     0.011 A 
ENDBRANCH  15  16
ENDBRANCH   3   8
BRANCH   1  19
HETATM   19  C3  UNL     1      28.450   6.558  48.197  1.00  0.00     0.183 C 
HETATM   20  O1  UNL     1      27.682   7.440  48.651  1.00  0.00    -0.288 OA
BRANCH  19  21
HETATM   21  C2  UNL     1      28.017   5.193  48.468  1.00  0.00     0.045 C 
HETATM   22  C1  UNL     1      26.741   5.322  48.801  1.00  0.00     0.015 C 
ENDBRANCH  19  21
ENDBRANCH   1  19
BRANCH   5  23
HETATM   23  N3  UNL     1      28.760   8.644  45.927  1.00  0.00    -0.350 N 
HETATM   24  C19 UNL     1      27.592   8.269  45.204  1.00  0.00     0.127 C 
HETATM   25  C20 UNL     1      27.477   9.233  44.013  1.00  0.00     0.055 C 
HETATM   26  C21 UNL     1      27.241  10.633  44.522  1.00  0.00     0.227 C 
HETATM   27  C24 UNL     1      27.836  10.918  45.855  1.00  0.00     0.092 C 
HETATM   28  C25 UNL     1      28.962  10.031  46.272  1.00  0.00     0.321 C 
BRANCH  26  29
HETATM   29  N4  UNL     1      27.579  11.558  43.474  1.00  0.00     0.084 N 
HETATM   30  C22 UNL     1      28.448  10.850  42.549  1.00  0.00     0.309 C 
HETATM   31  C23 UNL     1      26.461  12.068  42.740  1.00  0.00     0.309 C 
ENDBRANCH  26  29
BRANCH  28  32
HETATM   32  N5  UNL     1      29.103  10.170  47.729  1.00  0.00     0.101 N 
HETATM   33  H34 UNL     1      29.825   9.489  48.099  1.00  0.00     0.315 HD
HETATM   34  H35 UNL     1      28.225   9.933  48.218  1.00  0.00     0.315 HD
ENDBRANCH  28  32
ENDBRANCH   5  23
TORSDOF 8
ENDMDL
MODEL 9
REMARK VINA RESULT:      -6.5      1.646      3.283
REMARK  8 active torsions:
REMARK  status: ('A' for Active; 'I' for Inactive)
REMARK    1  A    between atoms: C2_2  and  C3_3 
REMARK    2  A    between atoms: C3_3  and  C4_5 
REMARK    3  A    between atoms: C6_7  and  O2_8 
REMARK    4  A    between atoms: C6_7  and  N1_10 
REMARK    5  A    between atoms: C13_17  and  C14_18 
REMARK    6  A    between atoms: C18_22  and  N3_23 
REMARK    7  A    between atoms: C21_26  and  N4_27 
REMARK    8  A    between atoms: C25_31  and  N5_32 
ROOT
HETATM    1  C4  UNL     1      30.512   6.907  47.475  1.00  0.00     0.042 A 
HETATM    2  C5  UNL     1      31.473   6.058  47.083  1.00  0.00     0.056 A 
HETATM    3  C6  UNL     1      32.776   6.826  46.979  1.00  0.00     0.178 A 
HETATM    4  C17 UNL     1      32.375   8.138  47.366  1.00  0.00     0.068 A 
HETATM    5  C18 UNL     1      31.067   8.265  47.668  1.00  0.00     0.047 A 
ENDROOT
BRANCH   3   6
HETATM    6  O2  UNL     1      33.541   6.212  48.043  1.00  0.00    -0.358 OA
HETATM    7  C7  UNL     1      34.370   7.177  48.557  1.00  0.00     0.205 C 
ENDBRANCH   3   6
BRANCH   3   8
HETATM    8  N1  UNL     1      33.317   6.449  45.742  1.00  0.00    -0.328 N 
HETATM    9  C8  UNL     1      33.651   7.731  45.067  1.00  0.00     0.276 C 
HETATM   10  N2  UNL     1      32.778   8.009  43.958  1.00  0.00    -0.282 NA
HETATM   11  C9  UNL     1      32.408   7.487  42.839  1.00  0.00     0.112 C 
HETATM   12  C10 UNL     1      32.850   6.214  42.251  1.00  0.00     0.019 C 
HETATM   13  C11 UNL     1      33.265   5.039  42.756  1.00  0.00     0.003 C 
HETATM   14  C12 UNL     1      33.426   4.607  44.137  1.00  0.00     0.025 C 
HETATM   15  C13 UNL     1      33.461   5.080  45.369  1.00  0.00     0.016 C 
BRANCH  15  16
HETATM   16  C14 UNL     1      33.691   4.292  46.574  1.00  0.00     0.036 A 
HETATM   17  C15 UNL     1      33.586   2.823  46.634  1.00  0.00     0.011 A 
HETATM   18  C16 UNL     1      34.931   3.390  46.584  1.00  0.00     0.011 A 
ENDBRANCH  15  16
ENDBRANCH   3   8
BRANCH   1  19
HETATM   19  C3  UNL     1      29.144   6.524  47.678  1.00  0.00     0.183 C 
HETATM   20  O1  UNL     1      28.151   7.169  47.265  1.00  0.00    -0.288 OA
BRANCH  19  21
HETATM   21  C2  UNL     1      28.805   5.310  48.408  1.00  0.00     0.045 C 
HETATM   22  C1  UNL     1      27.490   5.381  48.555  1.00  0.00     0.015 C 
ENDBRANCH  19  21
ENDBRANCH   1  19
BRANCH   5  23
HETATM   23  N3  UNL     1      30.284   9.376  48.085  1.00  0.00    -0.350 N 
HETATM   24  C19 UNL     1      29.963   9.782  49.411  1.00  0.00     0.127 C 
HETATM   25  C20 UNL     1      28.447  10.024  49.449  1.00  0.00     0.055 C 
HETATM   26  C21 UNL     1      28.100  11.180  48.545  1.00  0.00     0.227 C 
HETATM   27  C24 UNL     1      29.009  11.353  47.381  1.00  0.00     0.092 C 
HETATM   28  C25 UNL     1      29.784  10.145  46.971  1.00  0.00     0.321 C 
BRANCH  26  29
HETATM   29  N4  UNL     1      26.697  11.110  48.239  1.00  0.00     0.084 N 
HETATM   30  C22 UNL     1      26.537  11.583  46.874  1.00  0.00     0.309 C 
HETATM   31  C23 UNL     1      26.126   9.801  48.331  1.00  0.00     0.309 C 
ENDBRANCH  26  29
BRANCH  28  32
HETATM   32  N5  UNL     1      30.904  10.613  46.141  1.00  0.00     0.101 N 
HETATM   33  H34 UNL     1      31.615   9.839  46.006  1.00  0.00     0.315 HD
HETATM   34  H35 UNL     1      31.417  11.382  46.598  1.00  0.00     0.315 HD
ENDBRANCH  28  32
ENDBRANCH   5  23
TORSDOF 8
ENDMDL
