MODEL 1
REMARK VINA RESULT:      -9.0      0.000      0.000
REMARK  2 active torsions:
REMARK  status: ('A' for Active; 'I' for Inactive)
REMARK    1  A    between atoms: C16_18  and  N1_19 
REMARK    2  A    between atoms: N1_19  and  C17_20 
ROOT
HETATM    1  C1  UNL     1      22.898   2.586  49.559  1.00  0.00     0.051 C 
HETATM    2  C2  UNL     1      23.181   2.305  50.979  1.00  0.00    -0.028 C 
HETATM    3  C3  UNL     1      22.481   1.244  51.324  1.00  0.00     0.051 C 
HETATM    4 CL1  UNL     1      21.538   0.657  49.938  1.00  0.00    -0.083 Cl
HETATM    5  C4  UNL     1      22.205   0.371  52.454  1.00  0.00    -0.005 A 
HETATM    6  C5  UNL     1      20.875   0.244  52.798  1.00  0.00     0.014 A 
HETATM    7  C6  UNL     1      20.375  -0.534  53.851  1.00  0.00     0.001 A 
HETATM    8  C7  UNL     1      21.368  -1.190  54.539  1.00  0.00     0.001 A 
HETATM    9  C8  UNL     1      22.710  -1.109  54.250  1.00  0.00     0.011 A 
HETATM   10  C9  UNL     1      23.127  -0.325  53.205  1.00  0.00    -0.017 A 
HETATM   11  C10 UNL     1      24.614  -0.287  52.977  1.00  0.00     0.157 C 
HETATM   12  C11 UNL     1      25.293  -0.421  54.316  1.00  0.00     0.045 C 
HETATM   13  O1  UNL     1      24.972   0.864  52.258  1.00  0.00    -0.353 OA
HETATM   14  C12 UNL     1      26.096   1.584  52.602  1.00  0.00     0.147 C 
HETATM   15  C13 UNL     1      25.503   2.241  53.558  1.00  0.00    -0.001 C 
HETATM   16  C14 UNL     1      24.535   3.062  53.182  1.00  0.00     0.027 C 
HETATM   17  C15 UNL     1      24.084   3.102  51.796  1.00  0.00    -0.012 C 
HETATM   18  C16 UNL     1      24.703   4.160  51.233  1.00  0.00     0.100 C 
ENDROOT
BRANCH  18  19
HETATM   19  N1  UNL     1      24.906   4.965  50.046  1.00  0.00    -0.368 N 
HETATM   20  H15 UNL     1      24.130   5.561  49.623  1.00  0.00     0.165 HD
BRANCH  19  21
HETATM   21  C17 UNL     1      26.162   5.038  49.340  1.00  0.00     0.009 A 
HETATM   22  C18 UNL     1      27.335   4.497  48.916  1.00  0.00     0.004 A 
HETATM   23  C19 UNL     1      27.080   5.894  48.517  1.00  0.00     0.085 A 
ENDBRANCH  19  21
ENDBRANCH  18  19
TORSDOF 2
ENDMDL
MODEL 2
REMARK VINA RESULT:      -8.2      1.064      1.282
REMARK  2 active torsions:
REMARK  status: ('A' for Active; 'I' for Inactive)
REMARK    1  A    between atoms: C16_18  and  N1_19 
REMARK    2  A    between atoms: N1_19  and  C17_20 
ROOT
HETATM    1  C1  UNL     1      22.962   2.339  49.426  1.00  0.00     0.051 C 
HETATM    2  C2  UNL     1      23.295   2.155  50.851  1.00  0.00    -0.028 C 
HETATM    3  C3  UNL     1      22.527   1.194  51.320  1.00  0.00     0.051 C 
HETATM    4 CL1  UNL     1      21.465   0.578  50.036  1.00  0.00    -0.083 Cl
HETATM    5  C4  UNL     1      22.237   0.448  52.535  1.00  0.00    -0.005 A 
HETATM    6  C5  UNL     1      20.921   0.469  52.949  1.00  0.00     0.014 A 
HETATM    7  C6  UNL     1      20.414  -0.170  54.088  1.00  0.00     0.001 A 
HETATM    8  C7  UNL     1      21.383  -0.850  54.786  1.00  0.00     0.001 A 
HETATM    9  C8  UNL     1      22.709  -0.913  54.431  1.00  0.00     0.011 A 
HETATM   10  C9  UNL     1      23.136  -0.261  53.302  1.00  0.00    -0.017 A 
HETATM   11  C10 UNL     1      24.606  -0.375  53.006  1.00  0.00     0.157 C 
HETATM   12  C11 UNL     1      25.341  -0.454  54.319  1.00  0.00     0.045 C 
HETATM   13  O1  UNL     1      25.022   0.676  52.172  1.00  0.00    -0.353 OA
HETATM   14  C12 UNL     1      26.219   1.319  52.399  1.00  0.00     0.147 C 
HETATM   15  C13 UNL     1      25.735   2.105  53.318  1.00  0.00    -0.001 C 
HETATM   16  C14 UNL     1      24.821   2.973  52.914  1.00  0.00     0.027 C 
HETATM   17  C15 UNL     1      24.303   2.936  51.552  1.00  0.00    -0.012 C 
HETATM   18  C16 UNL     1      24.979   3.883  50.870  1.00  0.00     0.100 C 
ENDROOT
BRANCH  18  19
HETATM   19  N1  UNL     1      25.186   4.563  49.608  1.00  0.00    -0.368 N 
HETATM   20  H15 UNL     1      26.000   4.326  48.961  1.00  0.00     0.165 HD
BRANCH  19  21
HETATM   21  C17 UNL     1      24.317   5.603  49.113  1.00  0.00     0.009 A 
HETATM   22  C18 UNL     1      23.179   6.344  49.166  1.00  0.00     0.004 A 
HETATM   23  C19 UNL     1      24.114   6.666  48.071  1.00  0.00     0.085 A 
ENDBRANCH  19  21
ENDBRANCH  18  19
TORSDOF 2
ENDMDL
MODEL 3
REMARK VINA RESULT:      -7.9      2.794      4.759
REMARK  2 active torsions:
REMARK  status: ('A' for Active; 'I' for Inactive)
REMARK    1  A    between atoms: C16_18  and  N1_19 
REMARK    2  A    between atoms: N1_19  and  C17_20 
ROOT
HETATM    1  C1  UNL     1      24.090  -0.895  54.816  1.00  0.00     0.051 C 
HETATM    2  C2  UNL     1      23.853  -0.082  53.608  1.00  0.00    -0.028 C 
HETATM    3  C3  UNL     1      22.555   0.118  53.510  1.00  0.00     0.051 C 
HETATM    4 CL1  UNL     1      21.710  -0.673  54.858  1.00  0.00    -0.083 Cl
HETATM    5  C4  UNL     1      21.556   0.768  52.676  1.00  0.00    -0.005 A 
HETATM    6  C5  UNL     1      20.553  -0.051  52.200  1.00  0.00     0.014 A 
HETATM    7  C6  UNL     1      19.492   0.352  51.378  1.00  0.00     0.001 A 
HETATM    8  C7  UNL     1      19.539   1.693  51.076  1.00  0.00     0.001 A 
HETATM    9  C8  UNL     1      20.507   2.564  51.516  1.00  0.00     0.011 A 
HETATM   10  C9  UNL     1      21.518   2.098  52.318  1.00  0.00    -0.017 A 
HETATM   11  C10 UNL     1      22.537   3.122  52.735  1.00  0.00     0.157 C 
HETATM   12  C11 UNL     1      22.679   4.121  51.616  1.00  0.00     0.045 C 
HETATM   13  O1  UNL     1      23.738   2.497  53.108  1.00  0.00    -0.353 OA
HETATM   14  C12 UNL     1      24.952   3.026  52.725  1.00  0.00     0.147 C 
HETATM   15  C13 UNL     1      24.922   2.489  51.538  1.00  0.00    -0.001 C 
HETATM   16  C14 UNL     1      24.969   1.167  51.499  1.00  0.00     0.027 C 
HETATM   17  C15 UNL     1      24.913   0.380  52.725  1.00  0.00    -0.012 C 
HETATM   18  C16 UNL     1      26.189   0.053  53.017  1.00  0.00     0.100 C 
ENDROOT
BRANCH  18  19
HETATM   19  N1  UNL     1      27.097  -0.629  53.915  1.00  0.00    -0.368 N 
HETATM   20  H15 UNL     1      26.755  -1.169  54.769  1.00  0.00     0.165 HD
BRANCH  19  21
HETATM   21  C17 UNL     1      28.529  -0.647  53.735  1.00  0.00     0.009 A 
HETATM   22  C18 UNL     1      29.746  -0.043  53.723  1.00  0.00     0.004 A 
HETATM   23  C19 UNL     1      29.731  -1.481  53.398  1.00  0.00     0.085 A 
ENDBRANCH  19  21
ENDBRANCH  18  19
TORSDOF 2
ENDMDL
MODEL 4
REMARK VINA RESULT:      -7.8      2.066      3.477
REMARK  2 active torsions:
REMARK  status: ('A' for Active; 'I' for Inactive)
REMARK    1  A    between atoms: C16_18  and  N1_19 
REMARK    2  A    between atoms: N1_19  and  C17_20 
ROOT
HETATM    1  C1  UNL     1      26.805   2.504  51.891  1.00  0.00     0.051 C 
HETATM    2  C2  UNL     1      25.413   2.443  51.405  1.00  0.00    -0.028 C 
HETATM    3  C3  UNL     1      24.707   1.784  52.300  1.00  0.00     0.051 C 
HETATM    4 CL1  UNL     1      25.746   1.284  53.652  1.00  0.00    -0.083 Cl
HETATM    5  C4  UNL     1      23.359   1.315  52.576  1.00  0.00    -0.005 A 
HETATM    6  C5  UNL     1      23.233  -0.040  52.802  1.00  0.00     0.014 A 
HETATM    7  C6  UNL     1      22.036  -0.714  53.081  1.00  0.00     0.001 A 
HETATM    8  C7  UNL     1      20.951   0.130  53.112  1.00  0.00     0.001 A 
HETATM    9  C8  UNL     1      21.005   1.486  52.896  1.00  0.00     0.011 A 
HETATM   10  C9  UNL     1      22.213   2.079  52.627  1.00  0.00    -0.017 A 
HETATM   11  C10 UNL     1      22.167   3.563  52.391  1.00  0.00     0.157 C 
HETATM   12  C11 UNL     1      20.851   3.890  51.734  1.00  0.00     0.045 C 
HETATM   13  O1  UNL     1      23.295   3.980  51.665  1.00  0.00    -0.353 OA
HETATM   14  C12 UNL     1      23.173   4.905  50.651  1.00  0.00     0.147 C 
HETATM   15  C13 UNL     1      22.800   4.028  49.763  1.00  0.00    -0.001 C 
HETATM   16  C14 UNL     1      23.699   3.113  49.439  1.00  0.00     0.027 C 
HETATM   17  C15 UNL     1      24.969   3.028  50.149  1.00  0.00    -0.012 C 
HETATM   18  C16 UNL     1      25.873   3.665  49.376  1.00  0.00     0.100 C 
ENDROOT
BRANCH  18  19
HETATM   19  N1  UNL     1      27.248   4.084  49.201  1.00  0.00    -0.368 N 
HETATM   20  H15 UNL     1      28.071   3.472  49.490  1.00  0.00     0.165 HD
BRANCH  19  21
HETATM   21  C17 UNL     1      27.626   5.350  48.619  1.00  0.00     0.009 A 
HETATM   22  C18 UNL     1      27.338   6.603  48.179  1.00  0.00     0.004 A 
HETATM   23  C19 UNL     1      28.745   6.178  48.059  1.00  0.00     0.085 A 
ENDBRANCH  19  21
ENDBRANCH  18  19
TORSDOF 2
ENDMDL
MODEL 5
REMARK VINA RESULT:      -7.6      2.660      5.651
REMARK  2 active torsions:
REMARK  status: ('A' for Active; 'I' for Inactive)
REMARK    1  A    between atoms: C16_18  and  N1_19 
REMARK    2  A    between atoms: N1_19  and  C17_20 
ROOT
HETATM    1  C1  UNL     1      27.006   2.593  51.391  1.00  0.00     0.051 C 
HETATM    2  C2  UNL     1      25.565   2.910  51.379  1.00  0.00    -0.028 C 
HETATM    3  C3  UNL     1      25.273   3.391  50.189  1.00  0.00     0.051 C 
HETATM    4 CL1  UNL     1      26.728   3.432  49.170  1.00  0.00    -0.083 Cl
HETATM    5  C4  UNL     1      24.163   3.907  49.403  1.00  0.00    -0.005 A 
HETATM    6  C5  UNL     1      24.343   5.169  48.873  1.00  0.00     0.014 A 
HETATM    7  C6  UNL     1      23.412   5.865  48.091  1.00  0.00     0.001 A 
HETATM    8  C7  UNL     1      22.255   5.152  47.888  1.00  0.00     0.001 A 
HETATM    9  C8  UNL     1      22.010   3.894  48.385  1.00  0.00     0.011 A 
HETATM   10  C9  UNL     1      22.968   3.272  49.144  1.00  0.00    -0.017 A 
HETATM   11  C10 UNL     1      22.602   1.905  49.656  1.00  0.00     0.157 C 
HETATM   12  C11 UNL     1      21.116   1.885  49.906  1.00  0.00     0.045 C 
HETATM   13  O1  UNL     1      23.382   1.574  50.775  1.00  0.00    -0.353 OA
HETATM   14  C12 UNL     1      22.815   0.949  51.864  1.00  0.00     0.147 C 
HETATM   15  C13 UNL     1      22.357   2.052  52.383  1.00  0.00    -0.001 C 
HETATM   16  C14 UNL     1      23.267   2.925  52.783  1.00  0.00     0.027 C 
HETATM   17  C15 UNL     1      24.683   2.704  52.517  1.00  0.00    -0.012 C 
HETATM   18  C16 UNL     1      25.201   2.195  53.655  1.00  0.00     0.100 C 
ENDROOT
BRANCH  18  19
HETATM   19  N1  UNL     1      26.373   1.699  54.345  1.00  0.00    -0.368 N 
HETATM   20  H15 UNL     1      26.778   2.187  55.202  1.00  0.00     0.165 HD
BRANCH  19  21
HETATM   21  C17 UNL     1      27.088   0.510  53.947  1.00  0.00     0.009 A 
HETATM   22  C18 UNL     1      28.180  -0.297  53.965  1.00  0.00     0.004 A 
HETATM   23  C19 UNL     1      27.047  -0.755  53.139  1.00  0.00     0.085 A 
ENDBRANCH  19  21
ENDBRANCH  18  19
TORSDOF 2
ENDMDL
MODEL 6
REMARK VINA RESULT:      -7.5      2.521      4.341
REMARK  2 active torsions:
REMARK  status: ('A' for Active; 'I' for Inactive)
REMARK    1  A    between atoms: C16_18  and  N1_19 
REMARK    2  A    between atoms: N1_19  and  C17_20 
ROOT
HETATM    1  C1  UNL     1      23.369   4.144  49.640  1.00  0.00     0.051 C 
HETATM    2  C2  UNL     1      23.135   2.773  50.131  1.00  0.00    -0.028 C 
HETATM    3  C3  UNL     1      24.110   2.475  50.964  1.00  0.00     0.051 C 
HETATM    4 CL1  UNL     1      25.234   3.844  51.104  1.00  0.00    -0.083 Cl
HETATM    5  C4  UNL     1      24.598   1.408  51.823  1.00  0.00    -0.005 A 
HETATM    6  C5  UNL     1      25.891   0.992  51.582  1.00  0.00     0.014 A 
HETATM    7  C6  UNL     1      26.566  -0.020  52.277  1.00  0.00     0.001 A 
HETATM    8  C7  UNL     1      25.794  -0.587  53.263  1.00  0.00     0.001 A 
HETATM    9  C8  UNL     1      24.501  -0.223  53.556  1.00  0.00     0.011 A 
HETATM   10  C9  UNL     1      23.903   0.777  52.832  1.00  0.00    -0.017 A 
HETATM   11  C10 UNL     1      22.483   1.093  53.216  1.00  0.00     0.157 C 
HETATM   12  C11 UNL     1      21.830  -0.184  53.677  1.00  0.00     0.045 C 
HETATM   13  O1  UNL     1      21.819   1.733  52.157  1.00  0.00    -0.353 OA
HETATM   14  C12 UNL     1      20.519   1.401  51.842  1.00  0.00     0.147 C 
HETATM   15  C13 UNL     1      20.854   0.359  51.136  1.00  0.00    -0.001 C 
HETATM   16  C14 UNL     1      21.541   0.603  50.032  1.00  0.00     0.027 C 
HETATM   17  C15 UNL     1      22.006   1.950  49.723  1.00  0.00    -0.012 C 
HETATM   18  C16 UNL     1      21.116   2.459  48.846  1.00  0.00     0.100 C 
ENDROOT
BRANCH  18  19
HETATM   19  N1  UNL     1      20.721   3.585  48.025  1.00  0.00    -0.368 N 
HETATM   20  H15 UNL     1      19.920   4.234  48.297  1.00  0.00     0.165 HD
BRANCH  19  21
HETATM   21  C17 UNL     1      21.372   3.932  46.785  1.00  0.00     0.009 A 
HETATM   22  C18 UNL     1      21.915   3.608  45.582  1.00  0.00     0.004 A 
HETATM   23  C19 UNL     1      21.932   5.039  45.939  1.00  0.00     0.085 A 
ENDBRANCH  19  21
ENDBRANCH  18  19
TORSDOF 2
ENDMDL
MODEL 7
REMARK VINA RESULT:      -7.5      2.868      6.218
REMARK  2 active torsions:
REMARK  status: ('A' for Active; 'I' for Inactive)
REMARK    1  A    between atoms: C16_18  and  N1_19 
REMARK    2  A    between atoms: N1_19  and  C17_20 
ROOT
HETATM    1  C1  UNL     1      23.691   2.166  51.361  1.00  0.00     0.051 C 
HETATM    2  C2  UNL     1      24.157   2.989  50.228  1.00  0.00    -0.028 C 
HETATM    3  C3  UNL     1      23.127   3.192  49.433  1.00  0.00     0.051 C 
HETATM    4 CL1  UNL     1      21.681   2.393  50.087  1.00  0.00    -0.083 Cl
HETATM    5  C4  UNL     1      22.750   3.850  48.192  1.00  0.00    -0.005 A 
HETATM    6  C5  UNL     1      22.177   3.037  47.235  1.00  0.00     0.014 A 
HETATM    7  C6  UNL     1      21.743   3.449  45.969  1.00  0.00     0.001 A 
HETATM    8  C7  UNL     1      21.944   4.791  45.752  1.00  0.00     0.001 A 
HETATM    9  C8  UNL     1      22.507   5.657  46.659  1.00  0.00     0.011 A 
HETATM   10  C9  UNL     1      22.911   5.183  47.882  1.00  0.00    -0.017 A 
HETATM   11  C10 UNL     1      23.530   6.202  48.799  1.00  0.00     0.157 C 
HETATM   12  C11 UNL     1      24.261   7.210  47.950  1.00  0.00     0.045 C 
HETATM   13  O1  UNL     1      24.329   5.572  49.766  1.00  0.00    -0.353 OA
HETATM   14  C12 UNL     1      25.551   6.102  50.119  1.00  0.00     0.147 C 
HETATM   15  C13 UNL     1      26.181   5.575  49.108  1.00  0.00    -0.001 C 
HETATM   16  C14 UNL     1      26.246   4.253  49.092  1.00  0.00     0.027 C 
HETATM   17  C15 UNL     1      25.526   3.457  50.078  1.00  0.00    -0.012 C 
HETATM   18  C16 UNL     1      26.431   3.125  51.022  1.00  0.00     0.100 C 
ENDROOT
BRANCH  18  19
HETATM   19  N1  UNL     1      26.697   2.434  52.266  1.00  0.00    -0.368 N 
HETATM   20  H15 UNL     1      26.741   2.944  53.202  1.00  0.00     0.165 HD
BRANCH  19  21
HETATM   21  C17 UNL     1      26.917   1.011  52.355  1.00  0.00     0.009 A 
HETATM   22  C18 UNL     1      26.649  -0.271  51.991  1.00  0.00     0.004 A 
HETATM   23  C19 UNL     1      27.701  -0.091  53.009  1.00  0.00     0.085 A 
ENDBRANCH  19  21
ENDBRANCH  18  19
TORSDOF 2
ENDMDL
MODEL 8
REMARK VINA RESULT:      -7.4      2.984      5.203
REMARK  2 active torsions:
REMARK  status: ('A' for Active; 'I' for Inactive)
REMARK    1  A    between atoms: C16_18  and  N1_19 
REMARK    2  A    between atoms: N1_19  and  C17_20 
ROOT
HETATM    1  C1  UNL     1      21.939  -0.681  53.982  1.00  0.00     0.051 C 
HETATM    2  C2  UNL     1      21.751   0.195  52.810  1.00  0.00    -0.028 C 
HETATM    3  C3  UNL     1      20.458   0.270  52.571  1.00  0.00     0.051 C 
HETATM    4 CL1  UNL     1      19.560  -0.706  53.754  1.00  0.00    -0.083 Cl
HETATM    5  C4  UNL     1      19.493   0.877  51.669  1.00  0.00    -0.005 A 
HETATM    6  C5  UNL     1      18.646   0.001  51.023  1.00  0.00     0.014 A 
HETATM    7  C6  UNL     1      17.645   0.357  50.109  1.00  0.00     0.001 A 
HETATM    8  C7  UNL     1      17.578   1.715  49.904  1.00  0.00     0.001 A 
HETATM    9  C8  UNL     1      18.389   2.642  50.512  1.00  0.00     0.011 A 
HETATM   10  C9  UNL     1      19.349   2.221  51.397  1.00  0.00    -0.017 A 
HETATM   11  C10 UNL     1      20.197   3.308  51.999  1.00  0.00     0.157 C 
HETATM   12  C11 UNL     1      20.351   4.400  50.972  1.00  0.00     0.045 C 
HETATM   13  O1  UNL     1      21.410   2.781  52.470  1.00  0.00    -0.353 OA
HETATM   14  C12 UNL     1      22.593   3.458  52.270  1.00  0.00     0.147 C 
HETATM   15  C13 UNL     1      22.755   3.016  51.056  1.00  0.00    -0.001 C 
HETATM   16  C14 UNL     1      22.952   1.712  50.936  1.00  0.00     0.027 C 
HETATM   17  C15 UNL     1      22.846   0.831  52.092  1.00  0.00    -0.012 C 
HETATM   18  C16 UNL     1      24.109   0.613  52.512  1.00  0.00     0.100 C 
ENDROOT
BRANCH  18  19
HETATM   19  N1  UNL     1      24.981  -0.041  53.466  1.00  0.00    -0.368 N 
HETATM   20  H15 UNL     1      24.752  -0.091  54.506  1.00  0.00     0.165 HD
BRANCH  19  21
HETATM   21  C17 UNL     1      26.220  -0.685  53.099  1.00  0.00     0.009 A 
HETATM   22  C18 UNL     1      27.575  -0.713  53.000  1.00  0.00     0.004 A 
HETATM   23  C19 UNL     1      26.861  -1.907  52.509  1.00  0.00     0.085 A 
ENDBRANCH  19  21
ENDBRANCH  18  19
TORSDOF 2
ENDMDL
MODEL 9
REMARK VINA RESULT:      -7.4      3.150      5.630
REMARK  2 active torsions:
REMARK  status: ('A' for Active; 'I' for Inactive)
REMARK    1  A    between atoms: C16_18  and  N1_19 
REMARK    2  A    between atoms: N1_19  and  C17_20 
ROOT
HETATM    1  C1  UNL     1      21.639   4.371  52.159  1.00  0.00     0.051 C 
HETATM    2  C2  UNL     1      21.833   2.917  52.005  1.00  0.00    -0.028 C 
HETATM    3  C3  UNL     1      23.051   2.631  52.415  1.00  0.00     0.051 C 
HETATM    4 CL1  UNL     1      23.878   4.108  52.954  1.00  0.00    -0.083 Cl
HETATM    5  C4  UNL     1      23.970   1.517  52.587  1.00  0.00    -0.005 A 
HETATM    6  C5  UNL     1      25.187   1.644  51.950  1.00  0.00     0.014 A 
HETATM    7  C6  UNL     1      26.222   0.700  51.969  1.00  0.00     0.001 A 
HETATM    8  C7  UNL     1      25.905  -0.413  52.712  1.00  0.00     0.001 A 
HETATM    9  C8  UNL     1      24.714  -0.605  53.370  1.00  0.00     0.011 A 
HETATM   10  C9  UNL     1      23.745   0.363  53.306  1.00  0.00    -0.017 A 
HETATM   11  C10 UNL     1      22.472   0.055  54.046  1.00  0.00     0.157 C 
HETATM   12  C11 UNL     1      22.247  -1.433  53.985  1.00  0.00     0.045 C 
HETATM   13  O1  UNL     1      21.411   0.822  53.538  1.00  0.00    -0.353 OA
HETATM   14  C12 UNL     1      20.166   0.260  53.351  1.00  0.00     0.147 C 
HETATM   15  C13 UNL     1      20.469  -0.268  52.200  1.00  0.00    -0.001 C 
HETATM   16  C14 UNL     1      20.734   0.585  51.224  1.00  0.00     0.027 C 
HETATM   17  C15 UNL     1      20.816   2.017  51.483  1.00  0.00    -0.012 C 
HETATM   18  C16 UNL     1      19.623   2.531  51.115  1.00  0.00     0.100 C 
ENDROOT
BRANCH  18  19
HETATM   19  N1  UNL     1      18.791   3.709  50.986  1.00  0.00    -0.368 N 
HETATM   20  H15 UNL     1      19.178   4.646  50.656  1.00  0.00     0.165 HD
BRANCH  19  21
HETATM   21  C17 UNL     1      17.378   3.721  51.282  1.00  0.00     0.009 A 
HETATM   22  C18 UNL     1      16.166   4.332  51.326  1.00  0.00     0.004 A 
HETATM   23  C19 UNL     1      16.209   2.938  51.806  1.00  0.00     0.085 A 
ENDBRANCH  19  21
ENDBRANCH  18  19
TORSDOF 2
ENDMDL
