MODEL 1
REMARK VINA RESULT:      -7.6      0.000      0.000
REMARK  4 active torsions:
REMARK  status: ('A' for Active; 'I' for Inactive)
REMARK    1  A    between atoms: C1_2  and  C2_3 
REMARK       I    between atoms: C1_2  and  N1_11 
REMARK    2  A    between atoms: C2_3  and  C3_4 
REMARK    3  A    between atoms: N1_11  and  S1_12 
REMARK    4  A    between atoms: S1_12  and  C9_15 
ROOT
HETATM    1  O1  UNL     1      23.445  -0.808  53.188  1.00  0.00    -0.272 OA
HETATM    2  C1  UNL     1      23.665   0.442  53.076  1.00  0.00     0.235 C 
HETATM    3  N1  UNL     1      24.958   0.954  53.303  1.00  0.00    -0.253 N 
HETATM    4  H7  UNL     1      25.149   1.975  53.214  1.00  0.00     0.181 HD
ENDROOT
BRANCH   3   5
HETATM    5  S1  UNL     1      26.195  -0.162  53.729  1.00  0.00     0.246 S 
HETATM    6  O2  UNL     1      26.471  -1.040  52.566  1.00  0.00    -0.204 OA
HETATM    7  O3  UNL     1      25.894  -0.916  54.972  1.00  0.00    -0.204 OA
BRANCH   5   8
HETATM    8  C9  UNL     1      27.682   0.895  54.071  1.00  0.00     0.124 A 
HETATM    9  C10 UNL     1      28.536   0.232  55.040  1.00  0.00     0.041 C 
HETATM   10  C11 UNL     1      29.222  -0.365  54.010  1.00  0.00     0.104 C 
HETATM   11  F2  UNL     1      30.021  -1.056  53.117  1.00  0.00    -0.210 F 
HETATM   12  C12 UNL     1      28.796   0.823  53.202  1.00  0.00     0.063 A 
HETATM   13  C13 UNL     1      27.810   1.953  53.186  1.00  0.00     0.042 A 
ENDBRANCH   5   8
ENDBRANCH   3   5
BRANCH   2  14
HETATM   14  C2  UNL     1      22.597   1.403  52.708  1.00  0.00     0.142 C 
BRANCH  14  15
HETATM   15  C3  UNL     1      22.470   1.566  51.238  1.00  0.00    -0.049 A 
HETATM   16  C4  UNL     1      23.281   2.519  50.617  1.00  0.00     0.011 A 
HETATM   17  C5  UNL     1      23.243   2.753  49.254  1.00  0.00     0.043 A 
HETATM   18  C6  UNL     1      22.369   2.014  48.476  1.00  0.00     0.116 A 
HETATM   19  F1  UNL     1      22.304   2.215  47.131  1.00  0.00    -0.206 F 
HETATM   20  C7  UNL     1      21.585   1.084  49.108  1.00  0.00     0.043 A 
HETATM   21  C8  UNL     1      21.595   0.829  50.445  1.00  0.00     0.011 A 
ENDBRANCH  14  15
ENDBRANCH   2  14
TORSDOF 4
ENDMDL
MODEL 2
REMARK VINA RESULT:      -7.6      2.951      3.673
REMARK  4 active torsions:
REMARK  status: ('A' for Active; 'I' for Inactive)
REMARK    1  A    between atoms: C1_2  and  C2_3 
REMARK       I    between atoms: C1_2  and  N1_11 
REMARK    2  A    between atoms: C2_3  and  C3_4 
REMARK    3  A    between atoms: N1_11  and  S1_12 
REMARK    4  A    between atoms: S1_12  and  C9_15 
ROOT
HETATM    1  O1  UNL     1      24.843   1.227  51.588  1.00  0.00    -0.272 OA
HETATM    2  C1  UNL     1      24.464   2.040  52.494  1.00  0.00     0.235 C 
HETATM    3  N1  UNL     1      25.394   2.546  53.423  1.00  0.00    -0.253 N 
HETATM    4  H7  UNL     1      25.095   3.211  54.166  1.00  0.00     0.181 HD
ENDROOT
BRANCH   3   5
HETATM    5  S1  UNL     1      27.027   2.028  53.279  1.00  0.00     0.246 S 
HETATM    6  O2  UNL     1      27.866   2.817  54.214  1.00  0.00    -0.204 OA
HETATM    7  O3  UNL     1      27.526   2.057  51.880  1.00  0.00    -0.204 OA
BRANCH   5   8
HETATM    8  C9  UNL     1      27.005   0.252  53.819  1.00  0.00     0.124 A 
HETATM    9  C10 UNL     1      27.658  -0.569  52.816  1.00  0.00     0.041 C 
HETATM   10  C11 UNL     1      28.852  -0.404  53.475  1.00  0.00     0.104 C 
HETATM   11  F2  UNL     1      30.134  -0.350  53.990  1.00  0.00    -0.210 F 
HETATM   12  C12 UNL     1      28.009  -0.216  54.699  1.00  0.00     0.063 A 
HETATM   13  C13 UNL     1      26.607   0.091  55.137  1.00  0.00     0.042 A 
ENDBRANCH   5   8
ENDBRANCH   3   5
BRANCH   2  14
HETATM   14  C2  UNL     1      23.055   2.486  52.615  1.00  0.00     0.142 C 
BRANCH  14  15
HETATM   15  C3  UNL     1      22.140   1.369  52.962  1.00  0.00    -0.049 A 
HETATM   16  C4  UNL     1      20.853   1.389  52.416  1.00  0.00     0.011 A 
HETATM   17  C5  UNL     1      19.922   0.399  52.674  1.00  0.00     0.043 A 
HETATM   18  C6  UNL     1      20.278  -0.651  53.502  1.00  0.00     0.116 A 
HETATM   19  F1  UNL     1      19.387  -1.644  53.778  1.00  0.00    -0.206 F 
HETATM   20  C7  UNL     1      21.545  -0.649  54.024  1.00  0.00     0.043 A 
HETATM   21  C8  UNL     1      22.486   0.308  53.794  1.00  0.00     0.011 A 
ENDBRANCH  14  15
ENDBRANCH   2  14
TORSDOF 4
ENDMDL
MODEL 3
REMARK VINA RESULT:      -7.4      3.309      6.586
REMARK  4 active torsions:
REMARK  status: ('A' for Active; 'I' for Inactive)
REMARK    1  A    between atoms: C1_2  and  C2_3 
REMARK       I    between atoms: C1_2  and  N1_11 
REMARK    2  A    between atoms: C2_3  and  C3_4 
REMARK    3  A    between atoms: N1_11  and  S1_12 
REMARK    4  A    between atoms: S1_12  and  C9_15 
ROOT
HETATM    1  O1  UNL     1      24.111   2.656  53.181  1.00  0.00    -0.272 OA
HETATM    2  C1  UNL     1      24.452   2.081  52.096  1.00  0.00     0.235 C 
HETATM    3  N1  UNL     1      23.534   1.257  51.415  1.00  0.00    -0.253 N 
HETATM    4  H7  UNL     1      23.802   0.783  50.527  1.00  0.00     0.181 HD
ENDROOT
BRANCH   3   5
HETATM    5  S1  UNL     1      21.969   1.069  52.102  1.00  0.00     0.246 S 
HETATM    6  O2  UNL     1      21.130   0.271  51.175  1.00  0.00    -0.204 OA
HETATM    7  O3  UNL     1      21.345   2.360  52.489  1.00  0.00    -0.204 OA
BRANCH   5   8
HETATM    8  C9  UNL     1      22.254   0.105  53.662  1.00  0.00     0.124 A 
HETATM    9  C10 UNL     1      21.157   0.338  54.584  1.00  0.00     0.041 C 
HETATM   10  C11 UNL     1      20.499  -0.746  54.057  1.00  0.00     0.104 C 
HETATM   11  F2  UNL     1      19.688  -1.793  53.657  1.00  0.00    -0.210 F 
HETATM   12  C12 UNL     1      21.866  -1.255  53.715  1.00  0.00     0.063 A 
HETATM   13  C13 UNL     1      23.289  -0.810  53.552  1.00  0.00     0.042 A 
ENDBRANCH   5   8
ENDBRANCH   3   5
BRANCH   2  14
HETATM   14  C2  UNL     1      25.802   2.245  51.506  1.00  0.00     0.142 C 
BRANCH  14  15
HETATM   15  C3  UNL     1      26.842   1.509  52.269  1.00  0.00    -0.049 A 
HETATM   16  C4  UNL     1      26.791   0.113  52.257  1.00  0.00     0.011 A 
HETATM   17  C5  UNL     1      27.710  -0.670  52.934  1.00  0.00     0.043 A 
HETATM   18  C6  UNL     1      28.717  -0.046  53.648  1.00  0.00     0.116 A 
HETATM   19  F1  UNL     1      29.640  -0.784  54.326  1.00  0.00    -0.206 F 
HETATM   20  C7  UNL     1      28.747   1.324  53.644  1.00  0.00     0.043 A 
HETATM   21  C8  UNL     1      27.860   2.125  52.992  1.00  0.00     0.011 A 
ENDBRANCH  14  15
ENDBRANCH   2  14
TORSDOF 4
ENDMDL
MODEL 4
REMARK VINA RESULT:      -7.3      2.226      2.858
REMARK  4 active torsions:
REMARK  status: ('A' for Active; 'I' for Inactive)
REMARK    1  A    between atoms: C1_2  and  C2_3 
REMARK       I    between atoms: C1_2  and  N1_11 
REMARK    2  A    between atoms: C2_3  and  C3_4 
REMARK    3  A    between atoms: N1_11  and  S1_12 
REMARK    4  A    between atoms: S1_12  and  C9_15 
ROOT
HETATM    1  O1  UNL     1      23.605  -0.596  52.765  1.00  0.00    -0.272 OA
HETATM    2  C1  UNL     1      23.758   0.641  53.031  1.00  0.00     0.235 C 
HETATM    3  N1  UNL     1      25.035   1.139  53.357  1.00  0.00    -0.253 N 
HETATM    4  H7  UNL     1      25.172   2.149  53.576  1.00  0.00     0.181 HD
ENDROOT
BRANCH   3   5
HETATM    5  S1  UNL     1      26.345   0.025  53.377  1.00  0.00     0.246 S 
HETATM    6  O2  UNL     1      26.661  -0.370  51.983  1.00  0.00    -0.204 OA
HETATM    7  O3  UNL     1      26.108  -1.134  54.275  1.00  0.00    -0.204 OA
BRANCH   5   8
HETATM    8  C9  UNL     1      27.767   0.987  54.083  1.00  0.00     0.124 A 
HETATM    9  C10 UNL     1      28.506   0.150  55.010  1.00  0.00     0.041 C 
HETATM   10  C11 UNL     1      29.318  -0.255  53.979  1.00  0.00     0.104 C 
HETATM   11  F2  UNL     1      30.228  -0.779  53.078  1.00  0.00    -0.210 F 
HETATM   12  C12 UNL     1      28.978   1.064  53.356  1.00  0.00     0.063 A 
HETATM   13  C13 UNL     1      27.987   2.188  53.428  1.00  0.00     0.042 A 
ENDBRANCH   5   8
ENDBRANCH   3   5
BRANCH   2  14
HETATM   14  C2  UNL     1      22.627   1.599  53.013  1.00  0.00     0.142 C 
BRANCH  14  15
HETATM   15  C3  UNL     1      21.345   0.948  52.644  1.00  0.00    -0.049 A 
HETATM   16  C4  UNL     1      20.674   0.225  53.634  1.00  0.00     0.011 A 
HETATM   17  C5  UNL     1      19.473  -0.420  53.398  1.00  0.00     0.043 A 
HETATM   18  C6  UNL     1      18.915  -0.346  52.134  1.00  0.00     0.116 A 
HETATM   19  F1  UNL     1      17.734  -0.968  51.864  1.00  0.00    -0.206 F 
HETATM   20  C7  UNL     1      19.591   0.369  51.180  1.00  0.00     0.043 A 
HETATM   21  C8  UNL     1      20.773   1.014  51.376  1.00  0.00     0.011 A 
ENDBRANCH  14  15
ENDBRANCH   2  14
TORSDOF 4
ENDMDL
MODEL 5
REMARK VINA RESULT:      -7.1      4.173      4.870
REMARK  4 active torsions:
REMARK  status: ('A' for Active; 'I' for Inactive)
REMARK    1  A    between atoms: C1_2  and  C2_3 
REMARK       I    between atoms: C1_2  and  N1_11 
REMARK    2  A    between atoms: C2_3  and  C3_4 
REMARK    3  A    between atoms: N1_11  and  S1_12 
REMARK    4  A    between atoms: S1_12  and  C9_15 
ROOT
HETATM    1  O1  UNL     1      24.912   2.674  51.485  1.00  0.00    -0.272 OA
HETATM    2  C1  UNL     1      26.032   2.870  50.910  1.00  0.00     0.235 C 
HETATM    3  N1  UNL     1      27.233   2.691  51.624  1.00  0.00    -0.253 N 
HETATM    4  H7  UNL     1      28.155   2.848  51.163  1.00  0.00     0.181 HD
ENDROOT
BRANCH   3   5
HETATM    5  S1  UNL     1      27.119   2.206  53.270  1.00  0.00     0.246 S 
HETATM    6  O2  UNL     1      25.760   2.525  53.772  1.00  0.00    -0.204 OA
HETATM    7  O3  UNL     1      28.202   2.766  54.118  1.00  0.00    -0.204 OA
BRANCH   5   8
HETATM    8  C9  UNL     1      27.346   0.364  53.232  1.00  0.00     0.124 A 
HETATM    9  C10 UNL     1      27.925  -0.079  54.487  1.00  0.00     0.041 C 
HETATM   10  C11 UNL     1      26.661  -0.265  54.992  1.00  0.00     0.104 C 
HETATM   11  F2  UNL     1      25.481  -0.507  55.671  1.00  0.00    -0.210 F 
HETATM   12  C12 UNL     1      26.255  -0.474  53.565  1.00  0.00     0.063 A 
HETATM   13  C13 UNL     1      26.713  -0.238  52.156  1.00  0.00     0.042 A 
ENDBRANCH   5   8
ENDBRANCH   3   5
BRANCH   2  14
HETATM   14  C2  UNL     1      26.128   3.287  49.491  1.00  0.00     0.142 C 
BRANCH  14  15
HETATM   15  C3  UNL     1      26.386   4.743  49.349  1.00  0.00    -0.049 A 
HETATM   16  C4  UNL     1      27.509   5.137  48.618  1.00  0.00     0.011 A 
HETATM   17  C5  UNL     1      27.842   6.466  48.425  1.00  0.00     0.043 A 
HETATM   18  C6  UNL     1      27.030   7.442  48.977  1.00  0.00     0.116 A 
HETATM   19  F1  UNL     1      27.325   8.761  48.807  1.00  0.00    -0.206 F 
HETATM   20  C7  UNL     1      25.934   7.031  49.689  1.00  0.00     0.043 A 
HETATM   21  C8  UNL     1      25.577   5.734  49.899  1.00  0.00     0.011 A 
ENDBRANCH  14  15
ENDBRANCH   2  14
TORSDOF 4
ENDMDL
MODEL 6
REMARK VINA RESULT:      -7.1      1.511      1.876
REMARK  4 active torsions:
REMARK  status: ('A' for Active; 'I' for Inactive)
REMARK    1  A    between atoms: C1_2  and  C2_3 
REMARK       I    between atoms: C1_2  and  N1_11 
REMARK    2  A    between atoms: C2_3  and  C3_4 
REMARK    3  A    between atoms: N1_11  and  S1_12 
REMARK    4  A    between atoms: S1_12  and  C9_15 
ROOT
HETATM    1  O1  UNL     1      23.601   0.048  52.708  1.00  0.00    -0.272 OA
HETATM    2  C1  UNL     1      23.961   1.262  52.852  1.00  0.00     0.235 C 
HETATM    3  N1  UNL     1      25.286   1.567  53.221  1.00  0.00    -0.253 N 
HETATM    4  H7  UNL     1      25.591   2.556  53.340  1.00  0.00     0.181 HD
ENDROOT
BRANCH   3   5
HETATM    5  S1  UNL     1      26.370   0.253  53.460  1.00  0.00     0.246 S 
HETATM    6  O2  UNL     1      26.662  -0.375  52.149  1.00  0.00    -0.204 OA
HETATM    7  O3  UNL     1      25.891  -0.716  54.479  1.00  0.00    -0.204 OA
BRANCH   5   8
HETATM    8  C9  UNL     1      27.915   1.036  54.128  1.00  0.00     0.124 A 
HETATM    9  C10 UNL     1      28.584   0.106  55.018  1.00  0.00     0.041 C 
HETATM   10  C11 UNL     1      29.310  -0.372  53.955  1.00  0.00     0.104 C 
HETATM   11  F2  UNL     1      30.123  -0.980  53.016  1.00  0.00    -0.210 F 
HETATM   12  C12 UNL     1      29.102   0.987  53.360  1.00  0.00     0.063 A 
HETATM   13  C13 UNL     1      28.248   2.215  53.480  1.00  0.00     0.042 A 
ENDBRANCH   5   8
ENDBRANCH   3   5
BRANCH   2  14
HETATM   14  C2  UNL     1      23.025   2.393  52.644  1.00  0.00     0.142 C 
BRANCH  14  15
HETATM   15  C3  UNL     1      23.373   3.197  51.446  1.00  0.00    -0.049 A 
HETATM   16  C4  UNL     1      23.602   4.564  51.624  1.00  0.00     0.011 A 
HETATM   17  C5  UNL     1      23.933   5.405  50.576  1.00  0.00     0.043 A 
HETATM   18  C6  UNL     1      24.040   4.872  49.304  1.00  0.00     0.116 A 
HETATM   19  F1  UNL     1      24.364   5.669  48.248  1.00  0.00    -0.206 F 
HETATM   20  C7  UNL     1      23.811   3.529  49.154  1.00  0.00     0.043 A 
HETATM   21  C8  UNL     1      23.484   2.673  50.161  1.00  0.00     0.011 A 
ENDBRANCH  14  15
ENDBRANCH   2  14
TORSDOF 4
ENDMDL
MODEL 7
REMARK VINA RESULT:      -7.1      2.650      6.392
REMARK  4 active torsions:
REMARK  status: ('A' for Active; 'I' for Inactive)
REMARK    1  A    between atoms: C1_2  and  C2_3 
REMARK       I    between atoms: C1_2  and  N1_11 
REMARK    2  A    between atoms: C2_3  and  C3_4 
REMARK    3  A    between atoms: N1_11  and  S1_12 
REMARK    4  A    between atoms: S1_12  and  C9_15 
ROOT
HETATM    1  O1  UNL     1      22.906   0.562  51.916  1.00  0.00    -0.272 OA
HETATM    2  C1  UNL     1      23.690   0.903  52.861  1.00  0.00     0.235 C 
HETATM    3  N1  UNL     1      24.098   2.246  52.989  1.00  0.00    -0.253 N 
HETATM    4  H7  UNL     1      24.738   2.535  53.759  1.00  0.00     0.181 HD
ENDROOT
BRANCH   3   5
HETATM    5  S1  UNL     1      23.501   3.375  51.838  1.00  0.00     0.246 S 
HETATM    6  O2  UNL     1      23.810   4.748  52.306  1.00  0.00    -0.204 OA
HETATM    7  O3  UNL     1      22.064   3.175  51.520  1.00  0.00    -0.204 OA
BRANCH   5   8
HETATM    8  C9  UNL     1      24.463   3.019  50.291  1.00  0.00     0.124 A 
HETATM    9  C10 UNL     1      23.586   3.127  49.139  1.00  0.00     0.041 C 
HETATM   10  C11 UNL     1      23.924   4.454  49.021  1.00  0.00     0.104 C 
HETATM   11  F2  UNL     1      24.137   5.792  48.746  1.00  0.00    -0.210 F 
HETATM   12  C12 UNL     1      25.207   4.059  49.686  1.00  0.00     0.063 A 
HETATM   13  C13 UNL     1      25.831   2.966  50.504  1.00  0.00     0.042 A 
ENDBRANCH   5   8
ENDBRANCH   3   5
BRANCH   2  14
HETATM   14  C2  UNL     1      24.203  -0.072  53.853  1.00  0.00     0.142 C 
BRANCH  14  15
HETATM   15  C3  UNL     1      25.675  -0.244  53.763  1.00  0.00    -0.049 A 
HETATM   16  C4  UNL     1      26.456   0.285  54.794  1.00  0.00     0.011 A 
HETATM   17  C5  UNL     1      27.835   0.181  54.810  1.00  0.00     0.043 A 
HETATM   18  C6  UNL     1      28.465  -0.471  53.765  1.00  0.00     0.116 A 
HETATM   19  F1  UNL     1      29.822  -0.593  53.746  1.00  0.00    -0.206 F 
HETATM   20  C7  UNL     1      27.678  -0.982  52.765  1.00  0.00     0.043 A 
HETATM   21  C8  UNL     1      26.321  -0.897  52.717  1.00  0.00     0.011 A 
ENDBRANCH  14  15
ENDBRANCH   2  14
TORSDOF 4
ENDMDL
MODEL 8
REMARK VINA RESULT:      -7.0      3.636      4.537
REMARK  4 active torsions:
REMARK  status: ('A' for Active; 'I' for Inactive)
REMARK    1  A    between atoms: C1_2  and  C2_3 
REMARK       I    between atoms: C1_2  and  N1_11 
REMARK    2  A    between atoms: C2_3  and  C3_4 
REMARK    3  A    between atoms: N1_11  and  S1_12 
REMARK    4  A    between atoms: S1_12  and  C9_15 
ROOT
HETATM    1  O1  UNL     1      23.776   4.048  51.793  1.00  0.00    -0.272 OA
HETATM    2  C1  UNL     1      24.247   3.258  50.911  1.00  0.00     0.235 C 
HETATM    3  N1  UNL     1      24.756   2.000  51.289  1.00  0.00    -0.253 N 
HETATM    4  H7  UNL     1      25.143   1.346  50.576  1.00  0.00     0.181 HD
ENDROOT
BRANCH   3   5
HETATM    5  S1  UNL     1      24.713   1.591  52.959  1.00  0.00     0.246 S 
HETATM    6  O2  UNL     1      23.302   1.397  53.370  1.00  0.00    -0.204 OA
HETATM    7  O3  UNL     1      25.443   2.562  53.814  1.00  0.00    -0.204 OA
BRANCH   5   8
HETATM    8  C9  UNL     1      25.617  -0.027  53.069  1.00  0.00     0.124 A 
HETATM    9  C10 UNL     1      26.608  -0.102  52.011  1.00  0.00     0.041 C 
HETATM   10  C11 UNL     1      27.537   0.452  52.858  1.00  0.00     0.104 C 
HETATM   11  F2  UNL     1      28.600   0.999  53.554  1.00  0.00    -0.210 F 
HETATM   12  C12 UNL     1      26.713  -0.147  53.956  1.00  0.00     0.063 A 
HETATM   13  C13 UNL     1      25.354  -0.715  54.243  1.00  0.00     0.042 A 
ENDBRANCH   5   8
ENDBRANCH   3   5
BRANCH   2  14
HETATM   14  C2  UNL     1      24.282   3.612  49.471  1.00  0.00     0.142 C 
BRANCH  14  15
HETATM   15  C3  UNL     1      25.455   4.455  49.129  1.00  0.00    -0.049 A 
HETATM   16  C4  UNL     1      25.222   5.795  48.810  1.00  0.00     0.011 A 
HETATM   17  C5  UNL     1      26.243   6.668  48.476  1.00  0.00     0.043 A 
HETATM   18  C6  UNL     1      27.543   6.195  48.458  1.00  0.00     0.116 A 
HETATM   19  F1  UNL     1      28.574   7.025  48.134  1.00  0.00    -0.206 F 
HETATM   20  C7  UNL     1      27.747   4.877  48.776  1.00  0.00     0.043 A 
HETATM   21  C8  UNL     1      26.768   3.992  49.107  1.00  0.00     0.011 A 
ENDBRANCH  14  15
ENDBRANCH   2  14
TORSDOF 4
ENDMDL
MODEL 9
REMARK VINA RESULT:      -6.9      3.899      4.765
REMARK  4 active torsions:
REMARK  status: ('A' for Active; 'I' for Inactive)
REMARK    1  A    between atoms: C1_2  and  C2_3 
REMARK       I    between atoms: C1_2  and  N1_11 
REMARK    2  A    between atoms: C2_3  and  C3_4 
REMARK    3  A    between atoms: N1_11  and  S1_12 
REMARK    4  A    between atoms: S1_12  and  C9_15 
ROOT
HETATM    1  O1  UNL     1      24.196   2.528  51.046  1.00  0.00    -0.272 OA
HETATM    2  C1  UNL     1      25.373   2.858  50.687  1.00  0.00     0.235 C 
HETATM    3  N1  UNL     1      26.441   2.767  51.601  1.00  0.00    -0.253 N 
HETATM    4  H7  UNL     1      27.407   3.034  51.317  1.00  0.00     0.181 HD
ENDROOT
BRANCH   3   5
HETATM    5  S1  UNL     1      26.089   2.202  53.186  1.00  0.00     0.246 S 
HETATM    6  O2  UNL     1      24.857   2.870  53.672  1.00  0.00    -0.204 OA
HETATM    7  O3  UNL     1      27.236   2.339  54.120  1.00  0.00    -0.204 OA
BRANCH   5   8
HETATM    8  C9  UNL     1      25.764   0.386  52.975  1.00  0.00     0.124 A 
HETATM    9  C10 UNL     1      26.667  -0.155  51.975  1.00  0.00     0.041 C 
HETATM   10  C11 UNL     1      27.570  -0.452  52.968  1.00  0.00     0.104 C 
HETATM   11  F2  UNL     1      28.597  -0.819  53.818  1.00  0.00    -0.210 F 
HETATM   12  C12 UNL     1      26.372  -0.532  53.864  1.00  0.00     0.063 A 
HETATM   13  C13 UNL     1      24.928  -0.131  53.952  1.00  0.00     0.042 A 
ENDBRANCH   5   8
ENDBRANCH   3   5
BRANCH   2  14
HETATM   14  C2  UNL     1      25.674   3.344  49.319  1.00  0.00     0.142 C 
BRANCH  14  15
HETATM   15  C3  UNL     1      26.083   4.772  49.308  1.00  0.00    -0.049 A 
HETATM   16  C4  UNL     1      25.284   5.683  50.003  1.00  0.00     0.011 A 
HETATM   17  C5  UNL     1      25.574   7.035  50.057  1.00  0.00     0.043 A 
HETATM   18  C6  UNL     1      26.698   7.502  49.398  1.00  0.00     0.116 A 
HETATM   19  F1  UNL     1      27.015   8.826  49.429  1.00  0.00    -0.206 F 
HETATM   20  C7  UNL     1      27.466   6.588  48.724  1.00  0.00     0.043 A 
HETATM   21  C8  UNL     1      27.211   5.254  48.649  1.00  0.00     0.011 A 
ENDBRANCH  14  15
ENDBRANCH   2  14
TORSDOF 4
ENDMDL
