MODEL 1
REMARK VINA RESULT:      -7.8      0.000      0.000
REMARK  5 active torsions:
REMARK  status: ('A' for Active; 'I' for Inactive)
REMARK    1  A    between atoms: C2_2  and  C3_3 
REMARK       I    between atoms: C3_3  and  N1_5 
REMARK    2  A    between atoms: N1_5  and  C4_6 
REMARK    3  A    between atoms: C17_22  and  N3_23 
REMARK    4  A    between atoms: N3_23  and  N4_24 
REMARK    5  A    between atoms: N4_24  and  O2_25 
ROOT
HETATM    1  C4  UNL     1      24.278   4.074  49.483  1.00  0.00     0.041 A 
HETATM    2  C5  UNL     1      23.346   4.728  50.109  1.00  0.00     0.038 A 
HETATM    3  C6  UNL     1      24.231   5.822  50.196  1.00  0.00    -0.012 A 
HETATM    4  C7  UNL     1      24.258   6.570  51.322  1.00  0.00     0.175 A 
HETATM    5  N2  UNL     1      23.283   5.874  52.107  1.00  0.00    -0.305 NA
HETATM    6  C8  UNL     1      23.429   4.650  52.550  1.00  0.00     0.157 C 
HETATM    7  C9  UNL     1      23.882   3.271  52.905  1.00  0.00     0.046 C 
HETATM    8  C10 UNL     1      24.697   2.198  52.895  1.00  0.00     0.136 C 
HETATM    9  F1  UNL     1      24.064   1.296  53.721  1.00  0.00    -0.205 F 
HETATM   10  C11 UNL     1      25.857   1.657  52.245  1.00  0.00     0.068 C 
HETATM   11 CL1  UNL     1      26.468   0.151  52.809  1.00  0.00    -0.081 Cl
HETATM   12  C12 UNL     1      26.755   1.919  51.264  1.00  0.00     0.000 C 
HETATM   13  C13 UNL     1      26.366   3.172  50.707  1.00  0.00     0.033 C 
HETATM   14  C14 UNL     1      26.319   3.384  49.179  1.00  0.00     0.044 C 
HETATM   15  C15 UNL     1      25.544   4.736  49.242  1.00  0.00    -0.032 A 
HETATM   16  C16 UNL     1      26.341   5.756  49.313  1.00  0.00     0.024 A 
HETATM   17  C17 UNL     1      25.398   6.651  50.056  1.00  0.00     0.144 A 
ENDROOT
BRANCH   1  18
HETATM   18  N1  UNL     1      23.638   2.868  49.240  1.00  0.00    -0.327 N 
HETATM   19  C3  UNL     1      22.721   2.861  48.148  1.00  0.00     0.221 C 
HETATM   20  O1  UNL     1      22.371   3.745  47.344  1.00  0.00    -0.273 OA
HETATM   21  H6  UNL     1      23.778   1.992  49.767  1.00  0.00     0.169 HD
BRANCH  19  22
HETATM   22  C2  UNL     1      22.005   1.584  47.851  1.00  0.00     0.098 C 
HETATM   23  C1  UNL     1      21.357   0.979  49.056  1.00  0.00     0.014 C 
ENDBRANCH  19  22
ENDBRANCH   1  18
BRANCH  17  24
HETATM   24  N3  UNL     1      26.226   7.591  50.094  1.00  0.00    -0.174 NA
BRANCH  24  25
HETATM   25  N4  UNL     1      27.507   7.547  49.540  1.00  0.00    -0.191 N 
HETATM   26  H17 UNL     1      28.147   7.019  48.869  1.00  0.00     0.217 HD
BRANCH  25  27
HETATM   27  O2  UNL     1      28.261   8.541  50.002  1.00  0.00    -0.273 OA
HETATM   28  H18 UNL     1      28.627   8.411  50.915  1.00  0.00     0.246 HD
ENDBRANCH  25  27
ENDBRANCH  24  25
ENDBRANCH  17  24
TORSDOF 5
ENDMDL
MODEL 2
REMARK VINA RESULT:      -7.3      2.660      4.395
REMARK  5 active torsions:
REMARK  status: ('A' for Active; 'I' for Inactive)
REMARK    1  A    between atoms: C2_2  and  C3_3 
REMARK       I    between atoms: C3_3  and  N1_5 
REMARK    2  A    between atoms: N1_5  and  C4_6 
REMARK    3  A    between atoms: C17_22  and  N3_23 
REMARK    4  A    between atoms: N3_23  and  N4_24 
REMARK    5  A    between atoms: N4_24  and  O2_25 
ROOT
HETATM    1  C4  UNL     1      24.626   3.088  51.111  1.00  0.00     0.041 A 
HETATM    2  C5  UNL     1      24.767   3.225  49.826  1.00  0.00     0.038 A 
HETATM    3  C6  UNL     1      24.318   4.555  49.961  1.00  0.00    -0.012 A 
HETATM    4  C7  UNL     1      23.505   5.082  49.018  1.00  0.00     0.175 A 
HETATM    5  N2  UNL     1      23.368   3.954  48.147  1.00  0.00    -0.305 NA
HETATM    6  C8  UNL     1      22.768   2.836  48.475  1.00  0.00     0.157 C 
HETATM    7  C9  UNL     1      22.036   1.712  49.133  1.00  0.00     0.046 C 
HETATM    8  C10 UNL     1      21.420   1.060  50.139  1.00  0.00     0.136 C 
HETATM    9  F1  UNL     1      21.019  -0.126  49.565  1.00  0.00    -0.205 F 
HETATM   10  C11 UNL     1      21.177   1.120  51.552  1.00  0.00     0.068 C 
HETATM   11 CL1  UNL     1      20.168  -0.088  52.248  1.00  0.00    -0.081 Cl
HETATM   12  C12 UNL     1      21.458   1.852  52.657  1.00  0.00     0.000 C 
HETATM   13  C13 UNL     1      22.297   2.916  52.214  1.00  0.00     0.033 C 
HETATM   14  C14 UNL     1      23.566   3.310  52.998  1.00  0.00     0.044 C 
HETATM   15  C15 UNL     1      24.153   4.223  51.879  1.00  0.00    -0.032 A 
HETATM   16  C16 UNL     1      23.759   5.453  51.990  1.00  0.00     0.024 A 
HETATM   17  C17 UNL     1      23.846   5.787  50.533  1.00  0.00     0.144 A 
ENDROOT
BRANCH   1  18
HETATM   18  N1  UNL     1      25.040   1.776  51.285  1.00  0.00    -0.327 N 
HETATM   19  C3  UNL     1      26.403   1.599  51.663  1.00  0.00     0.221 C 
HETATM   20  O1  UNL     1      27.323   2.411  51.876  1.00  0.00    -0.273 OA
HETATM   21  H6  UNL     1      24.449   0.937  51.177  1.00  0.00     0.169 HD
BRANCH  19  22
HETATM   22  C2  UNL     1      26.894   0.202  51.857  1.00  0.00     0.098 C 
HETATM   23  C1  UNL     1      26.088  -0.573  52.850  1.00  0.00     0.014 C 
ENDBRANCH  19  22
ENDBRANCH   1  18
BRANCH  17  24
HETATM   24  N3  UNL     1      23.449   6.961  50.719  1.00  0.00    -0.174 NA
BRANCH  24  25
HETATM   25  N4  UNL     1      24.147   7.934  51.436  1.00  0.00    -0.191 N 
HETATM   26  H17 UNL     1      24.232   8.426  52.380  1.00  0.00     0.217 HD
BRANCH  25  27
HETATM   27  O2  UNL     1      25.095   8.492  50.686  1.00  0.00    -0.273 OA
HETATM   28  H18 UNL     1      25.997   8.531  51.097  1.00  0.00     0.246 HD
ENDBRANCH  25  27
ENDBRANCH  24  25
ENDBRANCH  17  24
TORSDOF 5
ENDMDL
MODEL 3
REMARK VINA RESULT:      -7.3      3.732      5.266
REMARK  5 active torsions:
REMARK  status: ('A' for Active; 'I' for Inactive)
REMARK    1  A    between atoms: C2_2  and  C3_3 
REMARK       I    between atoms: C3_3  and  N1_5 
REMARK    2  A    between atoms: N1_5  and  C4_6 
REMARK    3  A    between atoms: C17_22  and  N3_23 
REMARK    4  A    between atoms: N3_23  and  N4_24 
REMARK    5  A    between atoms: N4_24  and  O2_25 
ROOT
HETATM    1  C4  UNL     1      23.753   2.690  50.901  1.00  0.00     0.041 A 
HETATM    2  C5  UNL     1      24.788   2.211  50.277  1.00  0.00     0.038 A 
HETATM    3  C6  UNL     1      25.463   2.174  51.515  1.00  0.00    -0.012 A 
HETATM    4  C7  UNL     1      26.775   2.498  51.568  1.00  0.00     0.175 A 
HETATM    5  N2  UNL     1      27.008   2.819  50.192  1.00  0.00    -0.305 NA
HETATM    6  C8  UNL     1      26.468   3.838  49.570  1.00  0.00     0.157 C 
HETATM    7  C9  UNL     1      25.713   5.056  49.148  1.00  0.00     0.046 C 
HETATM    8  C10 UNL     1      24.850   6.083  49.282  1.00  0.00     0.136 C 
HETATM    9  F1  UNL     1      24.921   6.733  48.070  1.00  0.00    -0.205 F 
HETATM   10  C11 UNL     1      23.842   6.614  50.155  1.00  0.00     0.068 C 
HETATM   11 CL1  UNL     1      23.126   8.121  49.735  1.00  0.00    -0.081 Cl
HETATM   12  C12 UNL     1      23.184   6.359  51.311  1.00  0.00     0.000 C 
HETATM   13  C13 UNL     1      23.699   5.117  51.784  1.00  0.00     0.033 C 
HETATM   14  C14 UNL     1      22.758   4.013  52.312  1.00  0.00     0.044 C 
HETATM   15  C15 UNL     1      23.842   2.893  52.333  1.00  0.00    -0.032 A 
HETATM   16  C16 UNL     1      24.469   2.836  53.466  1.00  0.00     0.024 A 
HETATM   17  C17 UNL     1      25.753   2.295  52.918  1.00  0.00     0.144 A 
ENDROOT
BRANCH   1  18
HETATM   18  N1  UNL     1      22.853   2.825  49.855  1.00  0.00    -0.327 N 
HETATM   19  C3  UNL     1      21.920   1.759  49.697  1.00  0.00     0.221 C 
HETATM   20  O1  UNL     1      21.745   0.700  50.328  1.00  0.00    -0.273 OA
HETATM   21  H6  UNL     1      22.798   3.625  49.205  1.00  0.00     0.169 HD
BRANCH  19  22
HETATM   22  C2  UNL     1      20.933   1.859  48.580  1.00  0.00     0.098 C 
HETATM   23  C1  UNL     1      21.345   2.826  47.515  1.00  0.00     0.014 C 
ENDBRANCH  19  22
ENDBRANCH   1  18
BRANCH  17  24
HETATM   24  N3  UNL     1      26.297   2.278  54.047  1.00  0.00    -0.174 NA
BRANCH  24  25
HETATM   25  N4  UNL     1      26.555   1.125  54.790  1.00  0.00    -0.191 N 
HETATM   26  H17 UNL     1      26.108   0.311  55.316  1.00  0.00     0.217 HD
BRANCH  25  27
HETATM   27  O2  UNL     1      27.864   0.919  54.911  1.00  0.00    -0.273 OA
HETATM   28  H18 UNL     1      28.342   1.548  55.512  1.00  0.00     0.246 HD
ENDBRANCH  25  27
ENDBRANCH  24  25
ENDBRANCH  17  24
TORSDOF 5
ENDMDL
MODEL 4
REMARK VINA RESULT:      -7.1      8.392     10.654
REMARK  5 active torsions:
REMARK  status: ('A' for Active; 'I' for Inactive)
REMARK    1  A    between atoms: C2_2  and  C3_3 
REMARK       I    between atoms: C3_3  and  N1_5 
REMARK    2  A    between atoms: N1_5  and  C4_6 
REMARK    3  A    between atoms: C17_22  and  N3_23 
REMARK    4  A    between atoms: N3_23  and  N4_24 
REMARK    5  A    between atoms: N4_24  and  O2_25 
ROOT
HETATM    1  C4  UNL     1      32.482   6.403  47.470  1.00  0.00     0.041 A 
HETATM    2  C5  UNL     1      32.517   5.108  47.570  1.00  0.00     0.038 A 
HETATM    3  C6  UNL     1      33.797   5.230  48.148  1.00  0.00    -0.012 A 
HETATM    4  C7  UNL     1      34.757   4.329  47.838  1.00  0.00     0.175 A 
HETATM    5  N2  UNL     1      34.038   3.508  46.912  1.00  0.00    -0.305 NA
HETATM    6  C8  UNL     1      33.612   3.914  45.741  1.00  0.00     0.157 C 
HETATM    7  C9  UNL     1      33.263   4.658  44.494  1.00  0.00     0.046 C 
HETATM    8  C10 UNL     1      33.176   5.726  43.676  1.00  0.00     0.136 C 
HETATM    9  F1  UNL     1      32.585   5.222  42.538  1.00  0.00    -0.205 F 
HETATM   10  C11 UNL     1      33.351   7.151  43.643  1.00  0.00     0.068 C 
HETATM   11 CL1  UNL     1      33.127   7.955  42.138  1.00  0.00    -0.081 Cl
HETATM   12  C12 UNL     1      33.675   8.208  44.425  1.00  0.00     0.000 C 
HETATM   13  C13 UNL     1      33.903   7.672  45.726  1.00  0.00     0.033 C 
HETATM   14  C14 UNL     1      33.317   8.352  46.982  1.00  0.00     0.044 C 
HETATM   15  C15 UNL     1      33.620   7.164  47.946  1.00  0.00    -0.032 A 
HETATM   16  C16 UNL     1      34.790   7.262  48.495  1.00  0.00     0.024 A 
HETATM   17  C17 UNL     1      35.011   5.793  48.677  1.00  0.00     0.144 A 
ENDROOT
BRANCH   1  18
HETATM   18  N1  UNL     1      31.231   6.591  46.900  1.00  0.00    -0.327 N 
HETATM   19  C3  UNL     1      30.219   7.086  47.774  1.00  0.00     0.221 C 
HETATM   20  O1  UNL     1      30.233   7.394  48.981  1.00  0.00    -0.273 OA
HETATM   21  H6  UNL     1      30.984   6.417  45.914  1.00  0.00     0.169 HD
BRANCH  19  22
HETATM   22  C2  UNL     1      28.855   7.300  47.206  1.00  0.00     0.098 C 
HETATM   23  C1  UNL     1      27.763   6.780  48.085  1.00  0.00     0.014 C 
ENDBRANCH  19  22
ENDBRANCH   1  18
BRANCH  17  24
HETATM   24  N3  UNL     1      36.140   5.966  49.192  1.00  0.00    -0.174 NA
BRANCH  24  25
HETATM   25  N4  UNL     1      36.496   5.570  50.482  1.00  0.00    -0.191 N 
HETATM   26  H17 UNL     1      36.167   5.052  51.356  1.00  0.00     0.217 HD
BRANCH  25  27
HETATM   27  O2  UNL     1      37.728   5.975  50.783  1.00  0.00    -0.273 OA
HETATM   28  H18 UNL     1      38.276   5.329  51.300  1.00  0.00     0.246 HD
ENDBRANCH  25  27
ENDBRANCH  24  25
ENDBRANCH  17  24
TORSDOF 5
ENDMDL
MODEL 5
REMARK VINA RESULT:      -6.9      1.935      2.248
REMARK  5 active torsions:
REMARK  status: ('A' for Active; 'I' for Inactive)
REMARK    1  A    between atoms: C2_2  and  C3_3 
REMARK       I    between atoms: C3_3  and  N1_5 
REMARK    2  A    between atoms: N1_5  and  C4_6 
REMARK    3  A    between atoms: C17_22  and  N3_23 
REMARK    4  A    between atoms: N3_23  and  N4_24 
REMARK    5  A    between atoms: N4_24  and  O2_25 
ROOT
HETATM    1  C4  UNL     1      23.664   5.593  48.646  1.00  0.00     0.041 A 
HETATM    2  C5  UNL     1      22.706   6.439  48.883  1.00  0.00     0.038 A 
HETATM    3  C6  UNL     1      23.687   7.375  49.273  1.00  0.00    -0.012 A 
HETATM    4  C7  UNL     1      23.447   8.192  50.323  1.00  0.00     0.175 A 
HETATM    5  N2  UNL     1      22.147   7.730  50.707  1.00  0.00    -0.305 NA
HETATM    6  C8  UNL     1      21.900   6.537  51.188  1.00  0.00     0.157 C 
HETATM    7  C9  UNL     1      21.937   5.134  51.699  1.00  0.00     0.046 C 
HETATM    8  C10 UNL     1      22.491   3.942  51.999  1.00  0.00     0.136 C 
HETATM    9  F1  UNL     1      21.453   3.224  52.549  1.00  0.00    -0.205 F 
HETATM   10  C11 UNL     1      23.688   3.168  51.822  1.00  0.00     0.068 C 
HETATM   11 CL1  UNL     1      23.772   1.630  52.588  1.00  0.00    -0.081 Cl
HETATM   12  C12 UNL     1      24.907   3.201  51.233  1.00  0.00     0.000 C 
HETATM   13  C13 UNL     1      24.977   4.454  50.557  1.00  0.00     0.033 C 
HETATM   14  C14 UNL     1      25.517   4.553  49.114  1.00  0.00     0.044 C 
HETATM   15  C15 UNL     1      25.031   6.015  48.876  1.00  0.00    -0.032 A 
HETATM   16  C16 UNL     1      25.922   6.892  49.219  1.00  0.00     0.024 A 
HETATM   17  C17 UNL     1      24.957   7.985  49.557  1.00  0.00     0.144 A 
ENDROOT
BRANCH   1  18
HETATM   18  N1  UNL     1      22.944   4.495  48.201  1.00  0.00    -0.327 N 
HETATM   19  C3  UNL     1      22.363   4.617  46.905  1.00  0.00     0.221 C 
HETATM   20  O1  UNL     1      22.374   5.538  46.067  1.00  0.00    -0.273 OA
HETATM   21  H6  UNL     1      22.808   3.611  48.717  1.00  0.00     0.169 HD
BRANCH  19  22
HETATM   22  C2  UNL     1      21.574   3.460  46.386  1.00  0.00     0.098 C 
HETATM   23  C1  UNL     1      20.572   2.943  47.368  1.00  0.00     0.014 C 
ENDBRANCH  19  22
ENDBRANCH   1  18
BRANCH  17  24
HETATM   24  N3  UNL     1      25.874   8.775  49.883  1.00  0.00    -0.174 NA
BRANCH  24  25
HETATM   25  N4  UNL     1      27.021   8.414  50.592  1.00  0.00    -0.191 N 
HETATM   26  H17 UNL     1      27.663   7.602  50.855  1.00  0.00     0.217 HD
BRANCH  25  27
HETATM   27  O2  UNL     1      27.564   9.471  51.192  1.00  0.00    -0.273 OA
HETATM   28  H18 UNL     1      27.514  10.322  50.684  1.00  0.00     0.246 HD
ENDBRANCH  25  27
ENDBRANCH  24  25
ENDBRANCH  17  24
TORSDOF 5
ENDMDL
MODEL 6
REMARK VINA RESULT:      -6.8      3.536      5.219
REMARK  5 active torsions:
REMARK  status: ('A' for Active; 'I' for Inactive)
REMARK    1  A    between atoms: C2_2  and  C3_3 
REMARK       I    between atoms: C3_3  and  N1_5 
REMARK    2  A    between atoms: N1_5  and  C4_6 
REMARK    3  A    between atoms: C17_22  and  N3_23 
REMARK    4  A    between atoms: N3_23  and  N4_24 
REMARK    5  A    between atoms: N4_24  and  O2_25 
ROOT
HETATM    1  C4  UNL     1      22.974   2.508  51.731  1.00  0.00     0.041 A 
HETATM    2  C5  UNL     1      23.529   2.098  50.628  1.00  0.00     0.038 A 
HETATM    3  C6  UNL     1      23.886   3.435  50.362  1.00  0.00    -0.012 A 
HETATM    4  C7  UNL     1      23.821   3.902  49.094  1.00  0.00     0.175 A 
HETATM    5  N2  UNL     1      23.332   2.735  48.424  1.00  0.00    -0.305 NA
HETATM    6  C8  UNL     1      22.145   2.215  48.618  1.00  0.00     0.157 C 
HETATM    7  C9  UNL     1      20.758   1.867  49.049  1.00  0.00     0.046 C 
HETATM    8  C10 UNL     1      19.625   1.975  49.771  1.00  0.00     0.136 C 
HETATM    9  F1  UNL     1      18.813   0.987  49.260  1.00  0.00    -0.205 F 
HETATM   10  C11 UNL     1      19.065   2.637  50.916  1.00  0.00     0.068 C 
HETATM   11 CL1  UNL     1      17.405   2.361  51.273  1.00  0.00    -0.081 Cl
HETATM   12  C12 UNL     1      19.377   3.498  51.914  1.00  0.00     0.000 C 
HETATM   13  C13 UNL     1      20.752   3.824  51.728  1.00  0.00     0.033 C 
HETATM   14  C14 UNL     1      21.734   3.843  52.919  1.00  0.00     0.044 C 
HETATM   15  C15 UNL     1      23.023   3.921  52.045  1.00  0.00    -0.032 A 
HETATM   16  C16 UNL     1      23.374   5.144  51.795  1.00  0.00     0.024 A 
HETATM   17  C17 UNL     1      24.047   4.859  50.488  1.00  0.00     0.144 A 
ENDROOT
BRANCH   1  18
HETATM   18  N1  UNL     1      22.510   1.310  52.254  1.00  0.00    -0.327 N 
HETATM   19  C3  UNL     1      23.409   0.621  53.119  1.00  0.00     0.221 C 
HETATM   20  O1  UNL     1      24.561   0.886  53.511  1.00  0.00    -0.273 OA
HETATM   21  H6  UNL     1      21.581   0.895  52.082  1.00  0.00     0.169 HD
BRANCH  19  22
HETATM   22  C2  UNL     1      22.954  -0.676  53.704  1.00  0.00     0.098 C 
HETATM   23  C1  UNL     1      21.799  -0.526  54.642  1.00  0.00     0.014 C 
ENDBRANCH  19  22
ENDBRANCH   1  18
BRANCH  17  24
HETATM   24  N3  UNL     1      24.344   6.064  50.311  1.00  0.00    -0.174 NA
BRANCH  24  25
HETATM   25  N4  UNL     1      24.897   6.899  51.283  1.00  0.00    -0.191 N 
HETATM   26  H17 UNL     1      24.748   7.330  52.248  1.00  0.00     0.217 HD
BRANCH  25  27
HETATM   27  O2  UNL     1      26.085   7.360  50.895  1.00  0.00    -0.273 OA
HETATM   28  H18 UNL     1      26.575   6.788  50.250  1.00  0.00     0.246 HD
ENDBRANCH  25  27
ENDBRANCH  24  25
ENDBRANCH  17  24
TORSDOF 5
ENDMDL
MODEL 7
REMARK VINA RESULT:      -6.8      7.221      9.529
REMARK  5 active torsions:
REMARK  status: ('A' for Active; 'I' for Inactive)
REMARK    1  A    between atoms: C2_2  and  C3_3 
REMARK       I    between atoms: C3_3  and  N1_5 
REMARK    2  A    between atoms: N1_5  and  C4_6 
REMARK    3  A    between atoms: C17_22  and  N3_23 
REMARK    4  A    between atoms: N3_23  and  N4_24 
REMARK    5  A    between atoms: N4_24  and  O2_25 
ROOT
HETATM    1  C4  UNL     1      30.905   6.615  47.822  1.00  0.00     0.041 A 
HETATM    2  C5  UNL     1      31.046   6.039  46.665  1.00  0.00     0.038 A 
HETATM    3  C6  UNL     1      32.390   5.783  47.005  1.00  0.00    -0.012 A 
HETATM    4  C7  UNL     1      33.349   5.890  46.057  1.00  0.00     0.175 A 
HETATM    5  N2  UNL     1      32.551   6.296  44.940  1.00  0.00    -0.305 NA
HETATM    6  C8  UNL     1      31.917   7.440  44.862  1.00  0.00     0.157 C 
HETATM    7  C9  UNL     1      31.322   8.795  45.067  1.00  0.00     0.046 C 
HETATM    8  C10 UNL     1      31.031   9.928  45.737  1.00  0.00     0.136 C 
HETATM    9  F1  UNL     1      30.303  10.668  44.831  1.00  0.00    -0.205 F 
HETATM   10  C11 UNL     1      31.099  10.528  47.039  1.00  0.00     0.068 C 
HETATM   11 CL1  UNL     1      30.582  12.161  47.201  1.00  0.00    -0.081 Cl
HETATM   12  C12 UNL     1      31.469  10.274  48.317  1.00  0.00     0.000 C 
HETATM   13  C13 UNL     1      31.938   8.928  48.325  1.00  0.00     0.033 C 
HETATM   14  C14 UNL     1      31.513   7.943  49.434  1.00  0.00     0.044 C 
HETATM   15  C15 UNL     1      32.048   6.669  48.711  1.00  0.00    -0.032 A 
HETATM   16  C16 UNL     1      33.280   6.410  49.017  1.00  0.00     0.024 A 
HETATM   17  C17 UNL     1      33.630   5.727  47.732  1.00  0.00     0.144 A 
ENDROOT
BRANCH   1  18
HETATM   18  N1  UNL     1      29.569   6.986  47.771  1.00  0.00    -0.327 N 
HETATM   19  C3  UNL     1      28.638   6.022  48.257  1.00  0.00     0.221 C 
HETATM   20  O1  UNL     1      28.788   4.881  48.732  1.00  0.00    -0.273 OA
HETATM   21  H6  UNL     1      29.206   7.889  47.430  1.00  0.00     0.169 HD
BRANCH  19  22
HETATM   22  C2  UNL     1      27.188   6.376  48.218  1.00  0.00     0.098 C 
HETATM   23  C1  UNL     1      26.333   5.444  49.015  1.00  0.00     0.014 C 
ENDBRANCH  19  22
ENDBRANCH   1  18
BRANCH  17  24
HETATM   24  N3  UNL     1      34.812   5.521  48.094  1.00  0.00    -0.174 NA
BRANCH  24  25
HETATM   25  N4  UNL     1      35.186   4.713  49.169  1.00  0.00    -0.191 N 
HETATM   26  H17 UNL     1      35.488   4.711  50.193  1.00  0.00     0.217 HD
BRANCH  25  27
HETATM   27  O2  UNL     1      35.169   3.427  48.827  1.00  0.00    -0.273 OA
HETATM   28  H18 UNL     1      35.981   3.098  48.360  1.00  0.00     0.246 HD
ENDBRANCH  25  27
ENDBRANCH  24  25
ENDBRANCH  17  24
TORSDOF 5
ENDMDL
MODEL 8
REMARK VINA RESULT:      -6.7      7.385     10.053
REMARK  5 active torsions:
REMARK  status: ('A' for Active; 'I' for Inactive)
REMARK    1  A    between atoms: C2_2  and  C3_3 
REMARK       I    between atoms: C3_3  and  N1_5 
REMARK    2  A    between atoms: N1_5  and  C4_6 
REMARK    3  A    between atoms: C17_22  and  N3_23 
REMARK    4  A    between atoms: N3_23  and  N4_24 
REMARK    5  A    between atoms: N4_24  and  O2_25 
ROOT
HETATM    1  C4  UNL     1      31.532   7.990  48.205  1.00  0.00     0.041 A 
HETATM    2  C5  UNL     1      31.497   8.939  49.093  1.00  0.00     0.038 A 
HETATM    3  C6  UNL     1      30.096   8.784  49.140  1.00  0.00    -0.012 A 
HETATM    4  C7  UNL     1      29.309   9.877  49.258  1.00  0.00     0.175 A 
HETATM    5  N2  UNL     1      30.308  10.904  49.267  1.00  0.00    -0.305 NA
HETATM    6  C8  UNL     1      31.079  11.193  48.248  1.00  0.00     0.157 C 
HETATM    7  C9  UNL     1      31.794  11.284  46.940  1.00  0.00     0.046 C 
HETATM    8  C10 UNL     1      32.116  10.927  45.680  1.00  0.00     0.136 C 
HETATM    9  F1  UNL     1      33.054  11.862  45.303  1.00  0.00    -0.205 F 
HETATM   10  C11 UNL     1      31.927   9.886  44.710  1.00  0.00     0.068 C 
HETATM   11 CL1  UNL     1      32.606  10.111  43.145  1.00  0.00    -0.081 Cl
HETATM   12  C12 UNL     1      31.343   8.676  44.537  1.00  0.00     0.000 C 
HETATM   13  C13 UNL     1      30.721   8.366  45.782  1.00  0.00     0.033 C 
HETATM   14  C14 UNL     1      30.854   6.963  46.412  1.00  0.00     0.044 C 
HETATM   15  C15 UNL     1      30.284   7.372  47.804  1.00  0.00    -0.032 A 
HETATM   16  C16 UNL     1      28.998   7.229  47.871  1.00  0.00     0.024 A 
HETATM   17  C17 UNL     1      28.764   8.305  48.886  1.00  0.00     0.144 A 
ENDROOT
BRANCH   1  18
HETATM   18  N1  UNL     1      32.895   7.907  47.961  1.00  0.00    -0.327 N 
HETATM   19  C3  UNL     1      33.559   6.779  48.526  1.00  0.00     0.221 C 
HETATM   20  O1  UNL     1      33.149   5.825  49.214  1.00  0.00    -0.273 OA
HETATM   21  H6  UNL     1      33.451   8.574  47.405  1.00  0.00     0.169 HD
BRANCH  19  22
HETATM   22  C2  UNL     1      35.028   6.649  48.293  1.00  0.00     0.098 C 
HETATM   23  C1  UNL     1      35.699   5.728  49.261  1.00  0.00     0.014 C 
ENDBRANCH  19  22
ENDBRANCH   1  18
BRANCH  17  24
HETATM   24  N3  UNL     1      27.525   8.115  48.889  1.00  0.00    -0.174 NA
BRANCH  24  25
HETATM   25  N4  UNL     1      26.867   7.163  49.669  1.00  0.00    -0.191 N 
HETATM   26  H17 UNL     1      26.575   6.138  49.730  1.00  0.00     0.217 HD
BRANCH  25  27
HETATM   27  O2  UNL     1      26.410   7.704  50.797  1.00  0.00    -0.273 OA
HETATM   28  H18 UNL     1      27.014   7.630  51.581  1.00  0.00     0.246 HD
ENDBRANCH  25  27
ENDBRANCH  24  25
ENDBRANCH  17  24
TORSDOF 5
ENDMDL
MODEL 9
REMARK VINA RESULT:      -6.7      6.768      8.846
REMARK  5 active torsions:
REMARK  status: ('A' for Active; 'I' for Inactive)
REMARK    1  A    between atoms: C2_2  and  C3_3 
REMARK       I    between atoms: C3_3  and  N1_5 
REMARK    2  A    between atoms: N1_5  and  C4_6 
REMARK    3  A    between atoms: C17_22  and  N3_23 
REMARK    4  A    between atoms: N3_23  and  N4_24 
REMARK    5  A    between atoms: N4_24  and  O2_25 
ROOT
HETATM    1  C4  UNL     1      30.922   8.182  46.331  1.00  0.00     0.041 A 
HETATM    2  C5  UNL     1      29.987   7.279  46.292  1.00  0.00     0.038 A 
HETATM    3  C6  UNL     1      29.301   8.008  47.285  1.00  0.00    -0.012 A 
HETATM    4  C7  UNL     1      28.649   7.345  48.266  1.00  0.00     0.175 A 
HETATM    5  N2  UNL     1      28.956   5.995  47.902  1.00  0.00    -0.305 NA
HETATM    6  C8  UNL     1      30.159   5.477  47.933  1.00  0.00     0.157 C 
HETATM    7  C9  UNL     1      31.617   5.181  48.072  1.00  0.00     0.046 C 
HETATM    8  C10 UNL     1      32.915   5.453  48.312  1.00  0.00     0.136 C 
HETATM    9  F1  UNL     1      33.541   4.237  48.151  1.00  0.00    -0.205 F 
HETATM   10  C11 UNL     1      33.828   6.540  48.527  1.00  0.00     0.068 C 
HETATM   11 CL1  UNL     1      35.469   6.156  48.876  1.00  0.00    -0.081 Cl
HETATM   12  C12 UNL     1      33.890   7.893  48.581  1.00  0.00     0.000 C 
HETATM   13  C13 UNL     1      32.567   8.351  48.315  1.00  0.00     0.033 C 
HETATM   14  C14 UNL     1      32.309   9.519  47.340  1.00  0.00     0.044 C 
HETATM   15  C15 UNL     1      30.769   9.295  47.245  1.00  0.00    -0.032 A 
HETATM   16  C16 UNL     1      30.119   9.964  48.145  1.00  0.00     0.024 A 
HETATM   17  C17 UNL     1      28.959   9.022  48.246  1.00  0.00     0.144 A 
ENDROOT
BRANCH   1  18
HETATM   18  N1  UNL     1      31.798   7.697  45.371  1.00  0.00    -0.327 N 
HETATM   19  C3  UNL     1      31.676   8.273  44.072  1.00  0.00     0.221 C 
HETATM   20  O1  UNL     1      30.920   9.149  43.614  1.00  0.00    -0.273 OA
HETATM   21  H6  UNL     1      32.523   6.979  45.522  1.00  0.00     0.169 HD
BRANCH  19  22
HETATM   22  C2  UNL     1      32.597   7.779  43.005  1.00  0.00     0.098 C 
HETATM   23  C1  UNL     1      32.850   6.307  43.080  1.00  0.00     0.014 C 
ENDBRANCH  19  22
ENDBRANCH   1  18
BRANCH  17  24
HETATM   24  N3  UNL     1      28.394   9.718  49.122  1.00  0.00    -0.174 NA
BRANCH  24  25
HETATM   25  N4  UNL     1      28.624   9.609  50.495  1.00  0.00    -0.191 N 
HETATM   26  H17 UNL     1      29.377   9.532  51.248  1.00  0.00     0.217 HD
BRANCH  25  27
HETATM   27  O2  UNL     1      27.478   9.599  51.171  1.00  0.00    -0.273 OA
HETATM   28  H18 UNL     1      26.656   9.545  50.618  1.00  0.00     0.246 HD
ENDBRANCH  25  27
ENDBRANCH  24  25
ENDBRANCH  17  24
TORSDOF 5
ENDMDL
