MODEL 1
REMARK VINA RESULT:      -7.7      0.000      0.000
REMARK  5 active torsions:
REMARK  status: ('A' for Active; 'I' for Inactive)
REMARK    1  A    between atoms: O1_2  and  C2_3 
REMARK    2  A    between atoms: C2_3  and  C3_4 
REMARK    3  A    between atoms: C4_5  and  C5_6 
REMARK       I    between atoms: C5_6  and  N1_8 
REMARK    4  A    between atoms: N1_8  and  C6_9 
REMARK    5  A    between atoms: N4_20  and  C14_21 
ROOT
HETATM    1  C6  UNL     1      24.791   3.068  50.583  1.00  0.00     0.250 C 
HETATM    2  C7  UNL     1      23.866   2.327  51.559  1.00  0.00     0.051 C 
HETATM    3  C8  UNL     1      24.456   1.626  52.556  1.00  0.00     0.017 C 
HETATM    4  C9  UNL     1      25.733   2.074  53.279  1.00  0.00     0.095 C 
HETATM    5  C10 UNL     1      26.660   1.164  52.409  1.00  0.00     0.253 C 
HETATM    6  C11 UNL     1      26.824   1.971  51.180  1.00  0.00     0.206 C 
HETATM    7  O3  UNL     1      25.901   2.326  50.317  1.00  0.00    -0.361 OA
HETATM    8  N2  UNL     1      26.140  -0.144  52.349  1.00  0.00     0.127 N 
HETATM    9  C12 UNL     1      25.130  -0.550  53.337  1.00  0.00     0.434 C 
HETATM   10  C13 UNL     1      25.526  -0.520  54.685  1.00  0.00     0.117 C 
HETATM   11  N3  UNL     1      25.846  -0.517  55.782  1.00  0.00    -0.193 NA
HETATM   12  N4  UNL     1      23.965   0.318  52.995  1.00  0.00    -0.309 N 
HETATM   13  H14 UNL     1      26.905  -0.876  52.341  1.00  0.00     0.320 HD
ENDROOT
BRANCH  12  14
HETATM   14  C14 UNL     1      22.524   0.357  52.901  1.00  0.00     0.038 A 
HETATM   15  C15 UNL     1      21.887   0.174  54.111  1.00  0.00     0.030 A 
HETATM   16  C16 UNL     1      20.508   0.195  54.156  1.00  0.00     0.004 A 
HETATM   17  C17 UNL     1      19.875   0.400  52.960  1.00  0.00     0.019 A 
HETATM   18  C18 UNL     1      20.499   0.585  51.744  1.00  0.00     0.013 A 
HETATM   19 BR1  UNL     1      19.537   0.866  50.124  1.00  0.00    -0.051 Br
HETATM   20  C19 UNL     1      21.875   0.564  51.701  1.00  0.00     0.048 A 
ENDBRANCH  12  14
BRANCH   1  21
HETATM   21  N1  UNL     1      24.957   4.431  50.927  1.00  0.00    -0.320 N 
HETATM   22  C5  UNL     1      25.432   5.325  49.896  1.00  0.00     0.298 C 
HETATM   23  O2  UNL     1      25.702   4.938  48.708  1.00  0.00    -0.258 OA
HETATM   24  H6  UNL     1      24.817   4.982  51.783  1.00  0.00     0.166 HD
BRANCH  22  25
HETATM   25  C4  UNL     1      25.655   6.753  50.091  1.00  0.00    -0.003 C 
HETATM   26  C3  UNL     1      25.855   7.932  50.240  1.00  0.00    -0.070 C 
BRANCH  26  27
HETATM   27  C2  UNL     1      26.111   9.366  50.399  1.00  0.00     0.261 C 
BRANCH  27  28
HETATM   28  O1  UNL     1      27.468   9.483  50.695  1.00  0.00    -0.384 OA
HETATM   29  C1  UNL     1      28.215   9.433  49.518  1.00  0.00     0.202 C 
ENDBRANCH  27  28
ENDBRANCH  26  27
ENDBRANCH  22  25
ENDBRANCH   1  21
TORSDOF 5
ENDMDL
MODEL 2
REMARK VINA RESULT:      -7.4      7.106     11.375
REMARK  5 active torsions:
REMARK  status: ('A' for Active; 'I' for Inactive)
REMARK    1  A    between atoms: O1_2  and  C2_3 
REMARK    2  A    between atoms: C2_3  and  C3_4 
REMARK    3  A    between atoms: C4_5  and  C5_6 
REMARK       I    between atoms: C5_6  and  N1_8 
REMARK    4  A    between atoms: N1_8  and  C6_9 
REMARK    5  A    between atoms: N4_20  and  C14_21 
ROOT
HETATM    1  C6  UNL     1      30.020   6.803  47.542  1.00  0.00     0.250 C 
HETATM    2  C7  UNL     1      31.267   6.314  46.793  1.00  0.00     0.051 C 
HETATM    3  C8  UNL     1      32.450   6.392  47.446  1.00  0.00     0.017 C 
HETATM    4  C9  UNL     1      32.614   6.154  48.953  1.00  0.00     0.095 C 
HETATM    5  C10 UNL     1      32.591   7.680  49.295  1.00  0.00     0.253 C 
HETATM    6  C11 UNL     1      31.143   7.978  49.290  1.00  0.00     0.206 C 
HETATM    7  O3  UNL     1      30.308   7.912  48.279  1.00  0.00    -0.361 OA
HETATM    8  N2  UNL     1      33.475   8.380  48.452  1.00  0.00     0.127 N 
HETATM    9  C12 UNL     1      34.501   7.625  47.717  1.00  0.00     0.434 C 
HETATM   10  C13 UNL     1      35.435   6.919  48.495  1.00  0.00     0.117 C 
HETATM   11  N3  UNL     1      36.209   6.357  49.120  1.00  0.00    -0.193 NA
HETATM   12  N4  UNL     1      33.691   6.792  46.780  1.00  0.00    -0.309 N 
HETATM   13  H14 UNL     1      33.953   9.181  48.953  1.00  0.00     0.320 HD
ENDROOT
BRANCH  12  14
HETATM   14  C14 UNL     1      33.645   6.246  45.444  1.00  0.00     0.038 A 
HETATM   15  C15 UNL     1      34.052   4.930  45.371  1.00  0.00     0.030 A 
HETATM   16  C16 UNL     1      34.049   4.290  44.149  1.00  0.00     0.004 A 
HETATM   17  C17 UNL     1      33.632   5.041  43.083  1.00  0.00     0.019 A 
HETATM   18  C18 UNL     1      33.223   6.357  43.141  1.00  0.00     0.013 A 
HETATM   19 BR1  UNL     1      32.657   7.329  41.604  1.00  0.00    -0.051 Br
HETATM   20  C19 UNL     1      33.227   6.994  44.362  1.00  0.00     0.048 A 
ENDBRANCH  12  14
BRANCH   1  21
HETATM   21  N1  UNL     1      29.313   5.746  48.163  1.00  0.00    -0.320 N 
HETATM   22  C5  UNL     1      27.883   5.894  48.308  1.00  0.00     0.298 C 
HETATM   23  O2  UNL     1      27.245   6.926  47.904  1.00  0.00    -0.258 OA
HETATM   24  H6  UNL     1      29.579   4.837  48.564  1.00  0.00     0.166 HD
BRANCH  22  25
HETATM   25  C4  UNL     1      27.015   4.897  48.924  1.00  0.00    -0.003 C 
HETATM   26  C3  UNL     1      26.283   4.086  49.432  1.00  0.00    -0.070 C 
BRANCH  26  27
HETATM   27  C2  UNL     1      25.373   3.112  50.040  1.00  0.00     0.261 C 
BRANCH  27  28
HETATM   28  O1  UNL     1      25.717   3.055  51.390  1.00  0.00    -0.384 OA
HETATM   29  C1  UNL     1      26.761   2.147  51.574  1.00  0.00     0.202 C 
ENDBRANCH  27  28
ENDBRANCH  26  27
ENDBRANCH  22  25
ENDBRANCH   1  21
TORSDOF 5
ENDMDL
MODEL 3
REMARK VINA RESULT:      -7.3      3.172      4.612
REMARK  5 active torsions:
REMARK  status: ('A' for Active; 'I' for Inactive)
REMARK    1  A    between atoms: O1_2  and  C2_3 
REMARK    2  A    between atoms: C2_3  and  C3_4 
REMARK    3  A    between atoms: C4_5  and  C5_6 
REMARK       I    between atoms: C5_6  and  N1_8 
REMARK    4  A    between atoms: N1_8  and  C6_9 
REMARK    5  A    between atoms: N4_20  and  C14_21 
ROOT
HETATM    1  C6  UNL     1      23.296   4.538  51.989  1.00  0.00     0.250 C 
HETATM    2  C7  UNL     1      22.956   3.058  52.214  1.00  0.00     0.051 C 
HETATM    3  C8  UNL     1      21.826   2.589  51.634  1.00  0.00     0.017 C 
HETATM    4  C9  UNL     1      21.317   3.043  50.259  1.00  0.00     0.095 C 
HETATM    5  C10 UNL     1      20.301   4.065  50.866  1.00  0.00     0.253 C 
HETATM    6  C11 UNL     1      21.166   5.227  51.159  1.00  0.00     0.206 C 
HETATM    7  O3  UNL     1      22.165   5.298  52.008  1.00  0.00    -0.361 OA
HETATM    8  N2  UNL     1      19.545   3.453  51.885  1.00  0.00     0.127 N 
HETATM    9  C12 UNL     1      19.519   1.984  51.962  1.00  0.00     0.434 C 
HETATM   10  C13 UNL     1      18.993   1.309  50.847  1.00  0.00     0.117 C 
HETATM   11  N3  UNL     1      18.550   0.752  49.953  1.00  0.00    -0.193 NA
HETATM   12  N4  UNL     1      20.931   1.646  52.307  1.00  0.00    -0.309 N 
HETATM   13  H14 UNL     1      18.546   3.801  51.902  1.00  0.00     0.320 HD
ENDROOT
BRANCH  12  14
HETATM   14  C14 UNL     1      21.764   0.754  53.079  1.00  0.00     0.038 A 
HETATM   15  C15 UNL     1      21.110   0.173  54.145  1.00  0.00     0.030 A 
HETATM   16  C16 UNL     1      21.796  -0.705  54.959  1.00  0.00     0.004 A 
HETATM   17  C17 UNL     1      23.105  -0.927  54.627  1.00  0.00     0.019 A 
HETATM   18  C18 UNL     1      23.771  -0.354  53.564  1.00  0.00     0.013 A 
HETATM   19 BR1  UNL     1      25.599  -0.721  53.175  1.00  0.00    -0.051 Br
HETATM   20  C19 UNL     1      23.085   0.522  52.753  1.00  0.00     0.048 A 
ENDBRANCH  12  14
BRANCH   1  21
HETATM   21  N1  UNL     1      24.216   4.726  50.930  1.00  0.00    -0.320 N 
HETATM   22  C5  UNL     1      24.716   6.065  50.711  1.00  0.00     0.298 C 
HETATM   23  O2  UNL     1      24.364   7.065  51.425  1.00  0.00    -0.258 OA
HETATM   24  H6  UNL     1      24.647   4.109  50.230  1.00  0.00     0.166 HD
BRANCH  22  25
HETATM   25  C4  UNL     1      25.667   6.421  49.664  1.00  0.00    -0.003 C 
HETATM   26  C3  UNL     1      26.465   6.722  48.814  1.00  0.00    -0.070 C 
BRANCH  26  27
HETATM   27  C2  UNL     1      27.455   7.085  47.796  1.00  0.00     0.261 C 
BRANCH  27  28
HETATM   28  O1  UNL     1      28.703   6.861  48.376  1.00  0.00    -0.384 OA
HETATM   29  C1  UNL     1      29.041   5.512  48.264  1.00  0.00     0.202 C 
ENDBRANCH  27  28
ENDBRANCH  26  27
ENDBRANCH  22  25
ENDBRANCH   1  21
TORSDOF 5
ENDMDL
MODEL 4
REMARK VINA RESULT:      -7.2      4.736      9.892
REMARK  5 active torsions:
REMARK  status: ('A' for Active; 'I' for Inactive)
REMARK    1  A    between atoms: O1_2  and  C2_3 
REMARK    2  A    between atoms: C2_3  and  C3_4 
REMARK    3  A    between atoms: C4_5  and  C5_6 
REMARK       I    between atoms: C5_6  and  N1_8 
REMARK    4  A    between atoms: N1_8  and  C6_9 
REMARK    5  A    between atoms: N4_20  and  C14_21 
ROOT
HETATM    1  C6  UNL     1      26.344   5.539  48.787  1.00  0.00     0.250 C 
HETATM    2  C7  UNL     1      27.603   6.364  48.485  1.00  0.00     0.051 C 
HETATM    3  C8  UNL     1      27.529   7.700  48.686  1.00  0.00     0.017 C 
HETATM    4  C9  UNL     1      26.733   8.353  49.824  1.00  0.00     0.095 C 
HETATM    5  C10 UNL     1      25.498   8.658  48.914  1.00  0.00     0.253 C 
HETATM    6  C11 UNL     1      24.798   7.355  48.893  1.00  0.00     0.206 C 
HETATM    7  O3  UNL     1      25.225   6.216  48.402  1.00  0.00    -0.361 OA
HETATM    8  N2  UNL     1      25.915   9.272  47.717  1.00  0.00     0.127 N 
HETATM    9  C12 UNL     1      27.262   9.860  47.655  1.00  0.00     0.434 C 
HETATM   10  C13 UNL     1      27.530  10.905  48.557  1.00  0.00     0.117 C 
HETATM   11  N3  UNL     1      27.750  11.767  49.273  1.00  0.00    -0.193 NA
HETATM   12  N4  UNL     1      28.150   8.667  47.778  1.00  0.00    -0.309 N 
HETATM   13  H14 UNL     1      25.223   9.999  47.382  1.00  0.00     0.320 HD
ENDROOT
BRANCH  12  14
HETATM   14  C14 UNL     1      29.386   8.078  47.319  1.00  0.00     0.038 A 
HETATM   15  C15 UNL     1      29.530   8.095  45.947  1.00  0.00     0.030 A 
HETATM   16  C16 UNL     1      30.673   7.566  45.383  1.00  0.00     0.004 A 
HETATM   17  C17 UNL     1      31.590   7.055  46.261  1.00  0.00     0.019 A 
HETATM   18  C18 UNL     1      31.459   7.032  47.634  1.00  0.00     0.013 A 
HETATM   19 BR1  UNL     1      32.790   6.299  48.783  1.00  0.00    -0.051 Br
HETATM   20  C19 UNL     1      30.319   7.560  48.195  1.00  0.00     0.048 A 
ENDBRANCH  12  14
BRANCH   1  21
HETATM   21  N1  UNL     1      26.371   4.963  50.078  1.00  0.00    -0.320 N 
HETATM   22  C5  UNL     1      26.573   3.534  50.167  1.00  0.00     0.298 C 
HETATM   23  O2  UNL     1      26.723   2.788  49.141  1.00  0.00    -0.258 OA
HETATM   24  H6  UNL     1      26.278   5.329  51.035  1.00  0.00     0.166 HD
BRANCH  22  25
HETATM   25  C4  UNL     1      26.626   2.792  51.421  1.00  0.00    -0.003 C 
HETATM   26  C3  UNL     1      26.649   2.181  52.459  1.00  0.00    -0.070 C 
BRANCH  26  27
HETATM   27  C2  UNL     1      26.654   1.431  53.717  1.00  0.00     0.261 C 
BRANCH  27  28
HETATM   28  O1  UNL     1      27.772   1.871  54.424  1.00  0.00    -0.384 OA
HETATM   29  C1  UNL     1      28.899   1.155  54.021  1.00  0.00     0.202 C 
ENDBRANCH  27  28
ENDBRANCH  26  27
ENDBRANCH  22  25
ENDBRANCH   1  21
TORSDOF 5
ENDMDL
MODEL 5
REMARK VINA RESULT:      -7.2      6.306      9.427
REMARK  5 active torsions:
REMARK  status: ('A' for Active; 'I' for Inactive)
REMARK    1  A    between atoms: O1_2  and  C2_3 
REMARK    2  A    between atoms: C2_3  and  C3_4 
REMARK    3  A    between atoms: C4_5  and  C5_6 
REMARK       I    between atoms: C5_6  and  N1_8 
REMARK    4  A    between atoms: N1_8  and  C6_9 
REMARK    5  A    between atoms: N4_20  and  C14_21 
ROOT
HETATM    1  C6  UNL     1      30.398   6.284  48.288  1.00  0.00     0.250 C 
HETATM    2  C7  UNL     1      28.909   6.649  48.195  1.00  0.00     0.051 C 
HETATM    3  C8  UNL     1      28.584   7.955  48.336  1.00  0.00     0.017 C 
HETATM    4  C9  UNL     1      29.444   9.113  47.812  1.00  0.00     0.095 C 
HETATM    5  C10 UNL     1      30.113   9.372  49.202  1.00  0.00     0.253 C 
HETATM    6  C11 UNL     1      31.166   8.334  49.238  1.00  0.00     0.206 C 
HETATM    7  O3  UNL     1      31.015   7.030  49.245  1.00  0.00    -0.361 OA
HETATM    8  N2  UNL     1      29.131   9.440  50.209  1.00  0.00     0.127 N 
HETATM    9  C12 UNL     1      27.729   9.649  49.819  1.00  0.00     0.434 C 
HETATM   10  C13 UNL     1      27.441  10.843  49.135  1.00  0.00     0.117 C 
HETATM   11  N3  UNL     1      27.195  11.820  48.596  1.00  0.00    -0.193 NA
HETATM   12  N4  UNL     1      27.401   8.395  49.078  1.00  0.00    -0.309 N 
HETATM   13  H14 UNL     1      29.375  10.151  50.954  1.00  0.00     0.320 HD
ENDROOT
BRANCH  12  14
HETATM   14  C14 UNL     1      26.364   7.421  48.832  1.00  0.00     0.038 A 
HETATM   15  C15 UNL     1      25.406   7.849  47.936  1.00  0.00     0.030 A 
HETATM   16  C16 UNL     1      24.363   7.006  47.612  1.00  0.00     0.004 A 
HETATM   17  C17 UNL     1      24.369   5.784  48.227  1.00  0.00     0.019 A 
HETATM   18  C18 UNL     1      25.320   5.343  49.124  1.00  0.00     0.013 A 
HETATM   19 BR1  UNL     1      25.250   3.621  49.936  1.00  0.00    -0.051 Br
HETATM   20  C19 UNL     1      26.360   6.185  49.447  1.00  0.00     0.048 A 
ENDBRANCH  12  14
BRANCH   1  21
HETATM   21  N1  UNL     1      31.009   6.180  47.016  1.00  0.00    -0.320 N 
HETATM   22  C5  UNL     1      32.084   5.226  46.868  1.00  0.00     0.298 C 
HETATM   23  O2  UNL     1      32.495   4.487  47.827  1.00  0.00    -0.258 OA
HETATM   24  H6  UNL     1      30.872   6.644  46.109  1.00  0.00     0.166 HD
BRANCH  22  25
HETATM   25  C4  UNL     1      32.813   5.001  45.625  1.00  0.00    -0.003 C 
HETATM   26  C3  UNL     1      33.397   4.815  44.589  1.00  0.00    -0.070 C 
BRANCH  26  27
HETATM   27  C2  UNL     1      34.088   4.596  43.315  1.00  0.00     0.261 C 
BRANCH  27  28
HETATM   28  O1  UNL     1      33.088   4.448  42.355  1.00  0.00    -0.384 OA
HETATM   29  C1  UNL     1      33.642   3.987  41.161  1.00  0.00     0.202 C 
ENDBRANCH  27  28
ENDBRANCH  26  27
ENDBRANCH  22  25
ENDBRANCH   1  21
TORSDOF 5
ENDMDL
MODEL 6
REMARK VINA RESULT:      -7.2      3.873      5.888
REMARK  5 active torsions:
REMARK  status: ('A' for Active; 'I' for Inactive)
REMARK    1  A    between atoms: O1_2  and  C2_3 
REMARK    2  A    between atoms: C2_3  and  C3_4 
REMARK    3  A    between atoms: C4_5  and  C5_6 
REMARK       I    between atoms: C5_6  and  N1_8 
REMARK    4  A    between atoms: N1_8  and  C6_9 
REMARK    5  A    between atoms: N4_20  and  C14_21 
ROOT
HETATM    1  C6  UNL     1      23.029   2.979  50.941  1.00  0.00     0.250 C 
HETATM    2  C7  UNL     1      23.836   1.812  51.526  1.00  0.00     0.051 C 
HETATM    3  C8  UNL     1      23.143   0.847  52.176  1.00  0.00     0.017 C 
HETATM    4  C9  UNL     1      21.748   0.365  51.757  1.00  0.00     0.095 C 
HETATM    5  C10 UNL     1      21.016   1.268  52.805  1.00  0.00     0.253 C 
HETATM    6  C11 UNL     1      20.995   2.580  52.123  1.00  0.00     0.206 C 
HETATM    7  O3  UNL     1      22.016   3.330  51.781  1.00  0.00    -0.361 OA
HETATM    8  N2  UNL     1      21.613   1.123  54.073  1.00  0.00     0.127 N 
HETATM    9  C12 UNL     1      22.484  -0.037  54.317  1.00  0.00     0.434 C 
HETATM   10  C13 UNL     1      21.887  -1.303  54.197  1.00  0.00     0.117 C 
HETATM   11  N3  UNL     1      21.405  -2.337  54.119  1.00  0.00    -0.193 NA
HETATM   12  N4  UNL     1      23.636   0.216  53.402  1.00  0.00    -0.309 N 
HETATM   13  H14 UNL     1      20.902   1.171  54.854  1.00  0.00     0.320 HD
ENDROOT
BRANCH  12  14
HETATM   14  C14 UNL     1      25.069   0.102  53.269  1.00  0.00     0.038 A 
HETATM   15  C15 UNL     1      25.491  -1.157  52.897  1.00  0.00     0.030 A 
HETATM   16  C16 UNL     1      26.840  -1.394  52.732  1.00  0.00     0.004 A 
HETATM   17  C17 UNL     1      27.666  -0.326  52.960  1.00  0.00     0.019 A 
HETATM   18  C18 UNL     1      27.258   0.938  53.332  1.00  0.00     0.013 A 
HETATM   19 BR1  UNL     1      28.479   2.369  53.628  1.00  0.00    -0.051 Br
HETATM   20  C19 UNL     1      25.912   1.172  53.496  1.00  0.00     0.048 A 
ENDBRANCH  12  14
BRANCH   1  21
HETATM   21  N1  UNL     1      22.735   2.799  49.569  1.00  0.00    -0.320 N 
HETATM   22  C5  UNL     1      22.450   3.980  48.787  1.00  0.00     0.298 C 
HETATM   23  O2  UNL     1      22.453   5.159  49.280  1.00  0.00    -0.258 OA
HETATM   24  H6  UNL     1      22.668   1.984  48.946  1.00  0.00     0.166 HD
BRANCH  22  25
HETATM   25  C4  UNL     1      22.129   3.961  47.364  1.00  0.00    -0.003 C 
HETATM   26  C3  UNL     1      21.845   3.940  46.194  1.00  0.00    -0.070 C 
BRANCH  26  27
HETATM   27  C2  UNL     1      21.476   3.917  44.776  1.00  0.00     0.261 C 
BRANCH  27  28
HETATM   28  O1  UNL     1      20.104   3.670  44.740  1.00  0.00    -0.384 OA
HETATM   29  C1  UNL     1      19.663   3.641  43.416  1.00  0.00     0.202 C 
ENDBRANCH  27  28
ENDBRANCH  26  27
ENDBRANCH  22  25
ENDBRANCH   1  21
TORSDOF 5
ENDMDL
MODEL 7
REMARK VINA RESULT:      -7.2      3.987      8.335
REMARK  5 active torsions:
REMARK  status: ('A' for Active; 'I' for Inactive)
REMARK    1  A    between atoms: O1_2  and  C2_3 
REMARK    2  A    between atoms: C2_3  and  C3_4 
REMARK    3  A    between atoms: C4_5  and  C5_6 
REMARK       I    between atoms: C5_6  and  N1_8 
REMARK    4  A    between atoms: N1_8  and  C6_9 
REMARK    5  A    between atoms: N4_20  and  C14_21 
ROOT
HETATM    1  C6  UNL     1      24.646   3.442  49.529  1.00  0.00     0.250 C 
HETATM    2  C7  UNL     1      24.957   4.944  49.588  1.00  0.00     0.051 C 
HETATM    3  C8  UNL     1      23.904   5.794  49.587  1.00  0.00     0.017 C 
HETATM    4  C9  UNL     1      22.571   5.506  50.289  1.00  0.00     0.095 C 
HETATM    5  C10 UNL     1      21.875   5.014  48.977  1.00  0.00     0.253 C 
HETATM    6  C11 UNL     1      22.359   3.621  48.872  1.00  0.00     0.206 C 
HETATM    7  O3  UNL     1      23.591   3.204  48.701  1.00  0.00    -0.361 OA
HETATM    8  N2  UNL     1      22.097   5.936  47.935  1.00  0.00     0.127 N 
HETATM    9  C12 UNL     1      22.551   7.293  48.274  1.00  0.00     0.434 C 
HETATM   10  C13 UNL     1      21.689   8.058  49.079  1.00  0.00     0.117 C 
HETATM   11  N3  UNL     1      20.987   8.693  49.718  1.00  0.00    -0.193 NA
HETATM   12  N4  UNL     1      23.911   7.054  48.842  1.00  0.00    -0.309 N 
HETATM   13  H14 UNL     1      21.259   6.020  47.294  1.00  0.00     0.320 HD
ENDROOT
BRANCH  12  14
HETATM   14  C14 UNL     1      25.255   7.579  48.916  1.00  0.00     0.038 A 
HETATM   15  C15 UNL     1      25.522   8.247  50.093  1.00  0.00     0.030 A 
HETATM   16  C16 UNL     1      26.774   8.791  50.289  1.00  0.00     0.004 A 
HETATM   17  C17 UNL     1      27.668   8.617  49.266  1.00  0.00     0.019 A 
HETATM   18  C18 UNL     1      27.414   7.952  48.085  1.00  0.00     0.013 A 
HETATM   19 BR1  UNL     1      28.720   7.755  46.712  1.00  0.00    -0.051 Br
HETATM   20  C19 UNL     1      26.164   7.409  47.891  1.00  0.00     0.048 A 
ENDBRANCH  12  14
BRANCH   1  21
HETATM   21  N1  UNL     1      24.647   2.840  50.810  1.00  0.00    -0.320 N 
HETATM   22  C5  UNL     1      25.895   2.289  51.287  1.00  0.00     0.298 C 
HETATM   23  O2  UNL     1      26.977   2.324  50.607  1.00  0.00    -0.258 OA
HETATM   24  H6  UNL     1      23.935   2.685  51.536  1.00  0.00     0.166 HD
BRANCH  22  25
HETATM   25  C4  UNL     1      26.060   1.638  52.581  1.00  0.00    -0.003 C 
HETATM   26  C3  UNL     1      26.216   1.105  53.650  1.00  0.00    -0.070 C 
BRANCH  26  27
HETATM   27  C2  UNL     1      26.425   0.471  54.955  1.00  0.00     0.261 C 
BRANCH  27  28
HETATM   28  O1  UNL     1      27.438  -0.468  54.767  1.00  0.00    -0.384 OA
HETATM   29  C1  UNL     1      28.681   0.165  54.793  1.00  0.00     0.202 C 
ENDBRANCH  27  28
ENDBRANCH  26  27
ENDBRANCH  22  25
ENDBRANCH   1  21
TORSDOF 5
ENDMDL
MODEL 8
REMARK VINA RESULT:      -7.0      4.045      7.824
REMARK  5 active torsions:
REMARK  status: ('A' for Active; 'I' for Inactive)
REMARK    1  A    between atoms: O1_2  and  C2_3 
REMARK    2  A    between atoms: C2_3  and  C3_4 
REMARK    3  A    between atoms: C4_5  and  C5_6 
REMARK       I    between atoms: C5_6  and  N1_8 
REMARK    4  A    between atoms: N1_8  and  C6_9 
REMARK    5  A    between atoms: N4_20  and  C14_21 
ROOT
HETATM    1  C6  UNL     1      20.319   0.511  53.475  1.00  0.00     0.250 C 
HETATM    2  C7  UNL     1      21.492   1.218  52.781  1.00  0.00     0.051 C 
HETATM    3  C8  UNL     1      22.674   0.560  52.742  1.00  0.00     0.017 C 
HETATM    4  C9  UNL     1      22.802  -0.960  52.576  1.00  0.00     0.095 C 
HETATM    5  C10 UNL     1      22.982  -1.210  54.109  1.00  0.00     0.253 C 
HETATM    6  C11 UNL     1      21.586  -1.173  54.596  1.00  0.00     0.206 C 
HETATM    7  O3  UNL     1      20.751  -0.161  54.579  1.00  0.00    -0.361 OA
HETATM    8  N2  UNL     1      23.953  -0.334  54.634  1.00  0.00     0.127 N 
HETATM    9  C12 UNL     1      24.870   0.344  53.706  1.00  0.00     0.434 C 
HETATM   10  C13 UNL     1      25.701  -0.483  52.931  1.00  0.00     0.117 C 
HETATM   11  N3  UNL     1      26.393  -1.148  52.311  1.00  0.00    -0.193 NA
HETATM   12  N4  UNL     1      23.958   1.237  52.933  1.00  0.00    -0.309 N 
HETATM   13  H14 UNL     1      24.531  -0.791  55.393  1.00  0.00     0.320 HD
ENDROOT
BRANCH  12  14
HETATM   14  C14 UNL     1      23.842   2.539  52.317  1.00  0.00     0.038 A 
HETATM   15  C15 UNL     1      23.880   3.581  53.219  1.00  0.00     0.030 A 
HETATM   16  C16 UNL     1      23.784   4.877  52.755  1.00  0.00     0.004 A 
HETATM   17  C17 UNL     1      23.653   5.018  51.400  1.00  0.00     0.019 A 
HETATM   18  C18 UNL     1      23.613   3.984  50.487  1.00  0.00     0.013 A 
HETATM   19 BR1  UNL     1      23.429   4.272  48.613  1.00  0.00    -0.051 Br
HETATM   20  C19 UNL     1      23.709   2.692  50.952  1.00  0.00     0.048 A 
ENDBRANCH  12  14
BRANCH   1  21
HETATM   21  N1  UNL     1      19.478  -0.165  52.561  1.00  0.00    -0.320 N 
HETATM   22  C5  UNL     1      18.589   0.639  51.752  1.00  0.00     0.298 C 
HETATM   23  O2  UNL     1      18.537   1.914  51.832  1.00  0.00    -0.258 OA
HETATM   24  H6  UNL     1      19.329  -1.151  52.309  1.00  0.00     0.166 HD
BRANCH  22  25
HETATM   25  C4  UNL     1      17.664   0.094  50.766  1.00  0.00    -0.003 C 
HETATM   26  C3  UNL     1      16.901  -0.375  49.960  1.00  0.00    -0.070 C 
BRANCH  26  27
HETATM   27  C2  UNL     1      15.969  -0.965  48.995  1.00  0.00     0.261 C 
BRANCH  27  28
HETATM   28  O1  UNL     1      15.112  -1.777  49.735  1.00  0.00    -0.384 OA
HETATM   29  C1  UNL     1      14.640  -2.819  48.937  1.00  0.00     0.202 C 
ENDBRANCH  27  28
ENDBRANCH  26  27
ENDBRANCH  22  25
ENDBRANCH   1  21
TORSDOF 5
ENDMDL
MODEL 9
REMARK VINA RESULT:      -6.9      3.737      6.940
REMARK  5 active torsions:
REMARK  status: ('A' for Active; 'I' for Inactive)
REMARK    1  A    between atoms: O1_2  and  C2_3 
REMARK    2  A    between atoms: C2_3  and  C3_4 
REMARK    3  A    between atoms: C4_5  and  C5_6 
REMARK       I    between atoms: C5_6  and  N1_8 
REMARK    4  A    between atoms: N1_8  and  C6_9 
REMARK    5  A    between atoms: N4_20  and  C14_21 
ROOT
HETATM    1  C6  UNL     1      23.180   3.247  51.073  1.00  0.00     0.250 C 
HETATM    2  C7  UNL     1      21.758   2.984  50.558  1.00  0.00     0.051 C 
HETATM    3  C8  UNL     1      21.513   3.258  49.255  1.00  0.00     0.017 C 
HETATM    4  C9  UNL     1      22.530   3.038  48.128  1.00  0.00     0.095 C 
HETATM    5  C10 UNL     1      22.982   4.536  48.114  1.00  0.00     0.253 C 
HETATM    6  C11 UNL     1      23.934   4.583  49.244  1.00  0.00     0.206 C 
HETATM    7  O3  UNL     1      23.688   4.383  50.518  1.00  0.00    -0.361 OA
HETATM    8  N2  UNL     1      21.858   5.383  48.082  1.00  0.00     0.127 N 
HETATM    9  C12 UNL     1      20.557   4.819  47.691  1.00  0.00     0.434 C 
HETATM   10  C13 UNL     1      20.474   4.276  46.397  1.00  0.00     0.117 C 
HETATM   11  N3  UNL     1      20.392   3.850  45.340  1.00  0.00    -0.193 NA
HETATM   12  N4  UNL     1      20.261   3.868  48.803  1.00  0.00    -0.309 N 
HETATM   13  H14 UNL     1      22.029   6.249  47.498  1.00  0.00     0.320 HD
ENDROOT
BRANCH  12  14
HETATM   14  C14 UNL     1      19.208   3.332  49.633  1.00  0.00     0.038 A 
HETATM   15  C15 UNL     1      18.721   4.233  50.557  1.00  0.00     0.030 A 
HETATM   16  C16 UNL     1      17.707   3.844  51.408  1.00  0.00     0.004 A 
HETATM   17  C17 UNL     1      17.262   2.559  51.257  1.00  0.00     0.019 A 
HETATM   18  C18 UNL     1      17.739   1.648  50.338  1.00  0.00     0.013 A 
HETATM   19 BR1  UNL     1      17.059  -0.126  50.196  1.00  0.00    -0.051 Br
HETATM   20  C19 UNL     1      18.751   2.038  49.490  1.00  0.00     0.048 A 
ENDBRANCH  12  14
BRANCH   1  21
HETATM   21  N1  UNL     1      23.980   2.080  51.071  1.00  0.00    -0.320 N 
HETATM   22  C5  UNL     1      24.747   1.795  52.263  1.00  0.00     0.298 C 
HETATM   23  O2  UNL     1      24.728   2.544  53.298  1.00  0.00    -0.258 OA
HETATM   24  H6  UNL     1      24.167   1.334  50.389  1.00  0.00     0.166 HD
BRANCH  22  25
HETATM   25  C4  UNL     1      25.617   0.635  52.417  1.00  0.00    -0.003 C 
HETATM   26  C3  UNL     1      26.350  -0.311  52.553  1.00  0.00    -0.070 C 
BRANCH  26  27
HETATM   27  C2  UNL     1      27.254  -1.450  52.735  1.00  0.00     0.261 C 
BRANCH  27  28
HETATM   28  O1  UNL     1      28.013  -1.161  53.869  1.00  0.00    -0.384 OA
HETATM   29  C1  UNL     1      29.366  -1.110  53.533  1.00  0.00     0.202 C 
ENDBRANCH  27  28
ENDBRANCH  26  27
ENDBRANCH  22  25
ENDBRANCH   1  21
TORSDOF 5
ENDMDL
