MODEL 1
REMARK VINA RESULT:      -8.9      0.000      0.000
REMARK  7 active torsions:
REMARK  status: ('A' for Active; 'I' for Inactive)
REMARK    1  A    between atoms: C2_2  and  N1_3 
REMARK    2  A    between atoms: N1_3  and  C4_5 
REMARK    3  A    between atoms: C4_5  and  C5_6 
REMARK    4  A    between atoms: C5_6  and  C6_7 
REMARK    5  A    between atoms: C7_8  and  C8_9 
REMARK       I    between atoms: C8_9  and  N2_11 
REMARK    6  A    between atoms: N2_11  and  C9_12 
REMARK    7  A    between atoms: C15_18  and  N3_19 
ROOT
HETATM    1  C9  UNL     1      25.453   2.874  50.373  1.00  0.00     0.036 A 
HETATM    2  C10 UNL     1      24.143   3.090  49.999  1.00  0.00     0.032 A 
HETATM    3  C11 UNL     1      23.146   2.362  50.621  1.00  0.00     0.033 A 
HETATM    4  C12 UNL     1      23.505   1.451  51.593  1.00  0.00     0.053 A 
HETATM    5  C13 UNL     1      24.799   1.203  51.999  1.00  0.00     0.040 A 
HETATM    6  C14 UNL     1      25.759   1.951  51.351  1.00  0.00     0.047 A 
HETATM    7  C15 UNL     1      25.177   0.245  53.020  1.00  0.00     0.152 A 
HETATM    8  N4  UNL     1      24.397  -0.518  53.705  1.00  0.00    -0.176 NA
HETATM    9  S1  UNL     1      22.632  -0.466  53.442  1.00  0.00     0.093 SA
HETATM   10  N5  UNL     1      22.406   0.757  52.168  1.00  0.00    -0.310 N 
HETATM   11  H21 UNL     1      21.392   0.810  51.991  1.00  0.00     0.176 HD
ENDROOT
BRANCH   1  12
HETATM   12  N2  UNL     1      26.526   3.602  49.760  1.00  0.00    -0.316 N 
HETATM   13  C8  UNL     1      26.591   4.838  49.068  1.00  0.00     0.300 C 
HETATM   14  O1  UNL     1      25.678   5.655  48.801  1.00  0.00    -0.258 OA
HETATM   15  H13 UNL     1      27.385   3.028  49.903  1.00  0.00     0.170 HD
BRANCH  13  16
HETATM   16  C7  UNL     1      27.904   5.234  48.589  1.00  0.00    -0.005 C 
HETATM   17  C6  UNL     1      29.012   5.560  48.205  1.00  0.00    -0.095 C 
BRANCH  17  18
HETATM   18  C5  UNL     1      30.359   5.942  47.752  1.00  0.00     0.114 C 
BRANCH  18  19
HETATM   19  C4  UNL     1      30.424   7.451  47.685  1.00  0.00     0.128 C 
BRANCH  19  20
HETATM   20  N1  UNL     1      30.517   8.026  48.982  1.00  0.00    -0.416 N 
HETATM   21  C3  UNL     1      31.822   8.051  49.563  1.00  0.00     0.143 C 
BRANCH  20  22
HETATM   22  C2  UNL     1      29.793   9.247  49.184  1.00  0.00     0.112 C 
HETATM   23  C1  UNL     1      28.342   9.066  49.475  1.00  0.00     0.026 C 
ENDBRANCH  20  22
ENDBRANCH  19  20
ENDBRANCH  18  19
ENDBRANCH  17  18
ENDBRANCH  13  16
ENDBRANCH   1  12
BRANCH   7  24
HETATM   24  N3  UNL     1      26.569   0.135  53.296  1.00  0.00    -0.335 N 
HETATM   25  C16 UNL     1      27.374   1.162  53.887  1.00  0.00     0.120 A 
HETATM   26  C17 UNL     1      28.654   0.871  54.020  1.00  0.00     0.087 A 
HETATM   27 CL1  UNL     1      29.640   2.103  54.733  1.00  0.00    -0.080 Cl
HETATM   28  C18 UNL     1      29.166  -0.429  53.592  1.00  0.00     0.137 A 
HETATM   29  F1  UNL     1      30.472  -0.674  53.745  1.00  0.00    -0.205 F 
HETATM   30  C19 UNL     1      28.434  -1.375  53.066  1.00  0.00     0.037 A 
HETATM   31  C20 UNL     1      26.969  -1.187  52.858  1.00  0.00     0.160 A 
ENDBRANCH   7  24
TORSDOF 7
ENDMDL
MODEL 2
REMARK VINA RESULT:      -8.9      1.533      2.299
REMARK  7 active torsions:
REMARK  status: ('A' for Active; 'I' for Inactive)
REMARK    1  A    between atoms: C2_2  and  N1_3 
REMARK    2  A    between atoms: N1_3  and  C4_5 
REMARK    3  A    between atoms: C4_5  and  C5_6 
REMARK    4  A    between atoms: C5_6  and  C6_7 
REMARK    5  A    between atoms: C7_8  and  C8_9 
REMARK       I    between atoms: C8_9  and  N2_11 
REMARK    6  A    between atoms: N2_11  and  C9_12 
REMARK    7  A    between atoms: C15_18  and  N3_19 
ROOT
HETATM    1  C9  UNL     1      25.705   3.006  50.305  1.00  0.00     0.036 A 
HETATM    2  C10 UNL     1      24.410   3.248  49.897  1.00  0.00     0.032 A 
HETATM    3  C11 UNL     1      23.383   2.541  50.494  1.00  0.00     0.033 A 
HETATM    4  C12 UNL     1      23.699   1.624  51.474  1.00  0.00     0.053 A 
HETATM    5  C13 UNL     1      24.977   1.349  51.913  1.00  0.00     0.040 A 
HETATM    6  C14 UNL     1      25.967   2.077  51.290  1.00  0.00     0.047 A 
HETATM    7  C15 UNL     1      25.309   0.385  52.943  1.00  0.00     0.152 A 
HETATM    8  N4  UNL     1      24.497  -0.362  53.609  1.00  0.00    -0.176 NA
HETATM    9  S1  UNL     1      22.741  -0.274  53.301  1.00  0.00     0.093 SA
HETATM   10  N5  UNL     1      22.572   0.952  52.022  1.00  0.00    -0.310 N 
HETATM   11  H21 UNL     1      21.564   1.025  51.819  1.00  0.00     0.176 HD
ENDROOT
BRANCH   1  12
HETATM   12  N2  UNL     1      26.808   3.712  49.718  1.00  0.00    -0.316 N 
HETATM   13  C8  UNL     1      26.906   4.914  48.973  1.00  0.00     0.300 C 
HETATM   14  O1  UNL     1      26.006   5.711  48.616  1.00  0.00    -0.258 OA
HETATM   15  H13 UNL     1      27.661   3.152  49.937  1.00  0.00     0.170 HD
BRANCH  13  16
HETATM   16  C7  UNL     1      28.242   5.297  48.550  1.00  0.00    -0.005 C 
HETATM   17  C6  UNL     1      29.357   5.611  48.178  1.00  0.00    -0.095 C 
BRANCH  17  18
HETATM   18  C5  UNL     1      30.699   5.994  47.710  1.00  0.00     0.114 C 
BRANCH  18  19
HETATM   19  C4  UNL     1      31.714   5.442  48.685  1.00  0.00     0.128 C 
BRANCH  19  20
HETATM   20  N1  UNL     1      32.946   5.142  48.041  1.00  0.00    -0.416 N 
HETATM   21  C3  UNL     1      34.112   5.729  48.619  1.00  0.00     0.143 C 
BRANCH  20  22
HETATM   22  C2  UNL     1      33.140   3.775  47.658  1.00  0.00     0.112 C 
HETATM   23  C1  UNL     1      34.562   3.327  47.658  1.00  0.00     0.026 C 
ENDBRANCH  20  22
ENDBRANCH  19  20
ENDBRANCH  18  19
ENDBRANCH  17  18
ENDBRANCH  13  16
ENDBRANCH   1  12
BRANCH   7  24
HETATM   24  N3  UNL     1      26.692   0.247  53.255  1.00  0.00    -0.335 N 
HETATM   25  C16 UNL     1      27.504   1.262  53.855  1.00  0.00     0.120 A 
HETATM   26  C17 UNL     1      28.774   0.944  54.022  1.00  0.00     0.087 A 
HETATM   27 CL1  UNL     1      29.770   2.161  54.746  1.00  0.00    -0.080 Cl
HETATM   28  C18 UNL     1      29.267  -0.371  53.620  1.00  0.00     0.137 A 
HETATM   29  F1  UNL     1      30.563  -0.644  53.808  1.00  0.00    -0.205 F 
HETATM   30  C19 UNL     1      28.528  -1.306  53.086  1.00  0.00     0.037 A 
HETATM   31  C20 UNL     1      27.072  -1.089  52.840  1.00  0.00     0.160 A 
ENDBRANCH   7  24
TORSDOF 7
ENDMDL
MODEL 3
REMARK VINA RESULT:      -8.1      4.160      9.072
REMARK  7 active torsions:
REMARK  status: ('A' for Active; 'I' for Inactive)
REMARK    1  A    between atoms: C2_2  and  N1_3 
REMARK    2  A    between atoms: N1_3  and  C4_5 
REMARK    3  A    between atoms: C4_5  and  C5_6 
REMARK    4  A    between atoms: C5_6  and  C6_7 
REMARK    5  A    between atoms: C7_8  and  C8_9 
REMARK       I    between atoms: C8_9  and  N2_11 
REMARK    6  A    between atoms: N2_11  and  C9_12 
REMARK    7  A    between atoms: C15_18  and  N3_19 
ROOT
HETATM    1  C9  UNL     1      28.504   6.052  48.260  1.00  0.00     0.036 A 
HETATM    2  C10 UNL     1      27.699   7.135  47.973  1.00  0.00     0.032 A 
HETATM    3  C11 UNL     1      28.223   8.170  47.220  1.00  0.00     0.033 A 
HETATM    4  C12 UNL     1      29.528   8.073  46.787  1.00  0.00     0.053 A 
HETATM    5  C13 UNL     1      30.368   7.012  47.050  1.00  0.00     0.040 A 
HETATM    6  C14 UNL     1      29.804   6.005  47.802  1.00  0.00     0.047 A 
HETATM    7  C15 UNL     1      31.741   6.911  46.595  1.00  0.00     0.152 A 
HETATM    8  N4  UNL     1      32.398   7.766  45.889  1.00  0.00    -0.176 NA
HETATM    9  S1  UNL     1      31.617   9.282  45.360  1.00  0.00     0.093 SA
HETATM   10  N5  UNL     1      29.968   9.189  46.023  1.00  0.00    -0.310 N 
HETATM   11  H21 UNL     1      29.489  10.055  45.735  1.00  0.00     0.176 HD
ENDROOT
BRANCH   1  12
HETATM   12  N2  UNL     1      28.011   4.951  49.036  1.00  0.00    -0.316 N 
HETATM   13  C8  UNL     1      26.708   4.488  49.348  1.00  0.00     0.300 C 
HETATM   14  O1  UNL     1      25.592   4.947  49.006  1.00  0.00    -0.258 OA
HETATM   15  H13 UNL     1      28.852   4.455  49.402  1.00  0.00     0.170 HD
BRANCH  13  16
HETATM   16  C7  UNL     1      26.633   3.306  50.188  1.00  0.00    -0.005 C 
HETATM   17  C6  UNL     1      26.570   2.327  50.908  1.00  0.00    -0.095 C 
BRANCH  17  18
HETATM   18  C5  UNL     1      26.484   1.153  51.792  1.00  0.00     0.114 C 
BRANCH  18  19
HETATM   19  C4  UNL     1      27.447   1.356  52.940  1.00  0.00     0.128 C 
BRANCH  19  20
HETATM   20  N1  UNL     1      27.636   0.157  53.680  1.00  0.00    -0.416 N 
HETATM   21  C3  UNL     1      27.194  -1.045  53.046  1.00  0.00     0.143 C 
BRANCH  20  22
HETATM   22  C2  UNL     1      28.905   0.010  54.330  1.00  0.00     0.112 C 
HETATM   23  C1  UNL     1      29.908  -0.779  53.560  1.00  0.00     0.026 C 
ENDBRANCH  20  22
ENDBRANCH  19  20
ENDBRANCH  18  19
ENDBRANCH  17  18
ENDBRANCH  13  16
ENDBRANCH   1  12
BRANCH   7  24
HETATM   24  N3  UNL     1      32.445   5.732  46.972  1.00  0.00    -0.335 N 
HETATM   25  C16 UNL     1      32.057   4.397  46.626  1.00  0.00     0.120 A 
HETATM   26  C17 UNL     1      32.825   3.441  47.112  1.00  0.00     0.087 A 
HETATM   27 CL1  UNL     1      32.369   1.821  46.703  1.00  0.00    -0.080 Cl
HETATM   28  C18 UNL     1      33.991   3.771  47.929  1.00  0.00     0.137 A 
HETATM   29  F1  UNL     1      34.736   2.766  48.400  1.00  0.00    -0.205 F 
HETATM   30  C19 UNL     1      34.358   4.987  48.235  1.00  0.00     0.037 A 
HETATM   31  C20 UNL     1      33.584   6.169  47.753  1.00  0.00     0.160 A 
ENDBRANCH   7  24
TORSDOF 7
ENDMDL
MODEL 4
REMARK VINA RESULT:      -8.0      2.083      2.642
REMARK  7 active torsions:
REMARK  status: ('A' for Active; 'I' for Inactive)
REMARK    1  A    between atoms: C2_2  and  N1_3 
REMARK    2  A    between atoms: N1_3  and  C4_5 
REMARK    3  A    between atoms: C4_5  and  C5_6 
REMARK    4  A    between atoms: C5_6  and  C6_7 
REMARK    5  A    between atoms: C7_8  and  C8_9 
REMARK       I    between atoms: C8_9  and  N2_11 
REMARK    6  A    between atoms: N2_11  and  C9_12 
REMARK    7  A    between atoms: C15_18  and  N3_19 
ROOT
HETATM    1  C9  UNL     1      23.990   3.003  51.281  1.00  0.00     0.036 A 
HETATM    2  C10 UNL     1      22.627   3.211  51.249  1.00  0.00     0.032 A 
HETATM    3  C11 UNL     1      21.813   2.396  52.013  1.00  0.00     0.033 A 
HETATM    4  C12 UNL     1      22.400   1.410  52.777  1.00  0.00     0.053 A 
HETATM    5  C13 UNL     1      23.755   1.165  52.840  1.00  0.00     0.040 A 
HETATM    6  C14 UNL     1      24.527   2.001  52.062  1.00  0.00     0.047 A 
HETATM    7  C15 UNL     1      24.373   0.127  53.642  1.00  0.00     0.152 A 
HETATM    8  N4  UNL     1      23.785  -0.722  54.413  1.00  0.00    -0.176 NA
HETATM    9  S1  UNL     1      22.008  -0.701  54.580  1.00  0.00     0.093 SA
HETATM   10  N5  UNL     1      21.475   0.629  53.524  1.00  0.00    -0.310 N 
HETATM   11  H21 UNL     1      20.448   0.666  53.597  1.00  0.00     0.176 HD
ENDROOT
BRANCH   1  12
HETATM   12  N2  UNL     1      24.880   3.820  50.507  1.00  0.00    -0.316 N 
HETATM   13  C8  UNL     1      26.188   3.619  49.999  1.00  0.00     0.300 C 
HETATM   14  O1  UNL     1      26.943   2.623  50.101  1.00  0.00    -0.258 OA
HETATM   15  H13 UNL     1      24.375   4.717  50.336  1.00  0.00     0.170 HD
BRANCH  13  16
HETATM   16  C7  UNL     1      26.756   4.722  49.244  1.00  0.00    -0.005 C 
HETATM   17  C6  UNL     1      27.248   5.646  48.623  1.00  0.00    -0.095 C 
BRANCH  17  18
HETATM   18  C5  UNL     1      27.859   6.760  47.879  1.00  0.00     0.114 C 
BRANCH  18  19
HETATM   19  C4  UNL     1      27.134   8.032  48.254  1.00  0.00     0.128 C 
BRANCH  19  20
HETATM   20  N1  UNL     1      25.756   7.967  47.908  1.00  0.00    -0.416 N 
HETATM   21  C3  UNL     1      24.853   8.601  48.816  1.00  0.00     0.143 C 
BRANCH  20  22
HETATM   22  C2  UNL     1      25.438   8.223  46.535  1.00  0.00     0.112 C 
HETATM   23  C1  UNL     1      24.041   7.873  46.146  1.00  0.00     0.026 C 
ENDBRANCH  20  22
ENDBRANCH  19  20
ENDBRANCH  18  19
ENDBRANCH  17  18
ENDBRANCH  13  16
ENDBRANCH   1  12
BRANCH   7  24
HETATM   24  N3  UNL     1      25.792   0.036  53.570  1.00  0.00    -0.335 N 
HETATM   25  C16 UNL     1      26.704   1.058  53.987  1.00  0.00     0.120 A 
HETATM   26  C17 UNL     1      27.981   0.789  53.796  1.00  0.00     0.087 A 
HETATM   27 CL1  UNL     1      29.097   2.016  54.295  1.00  0.00    -0.080 Cl
HETATM   28  C18 UNL     1      28.390  -0.485  53.210  1.00  0.00     0.137 A 
HETATM   29  F1  UNL     1      29.697  -0.709  53.034  1.00  0.00    -0.205 F 
HETATM   30  C19 UNL     1      27.563  -1.428  52.841  1.00  0.00     0.037 A 
HETATM   31  C20 UNL     1      26.089  -1.263  53.000  1.00  0.00     0.160 A 
ENDBRANCH   7  24
TORSDOF 7
ENDMDL
MODEL 5
REMARK VINA RESULT:      -8.0      1.748      2.195
REMARK  7 active torsions:
REMARK  status: ('A' for Active; 'I' for Inactive)
REMARK    1  A    between atoms: C2_2  and  N1_3 
REMARK    2  A    between atoms: N1_3  and  C4_5 
REMARK    3  A    between atoms: C4_5  and  C5_6 
REMARK    4  A    between atoms: C5_6  and  C6_7 
REMARK    5  A    between atoms: C7_8  and  C8_9 
REMARK       I    between atoms: C8_9  and  N2_11 
REMARK    6  A    between atoms: N2_11  and  C9_12 
REMARK    7  A    between atoms: C15_18  and  N3_19 
ROOT
HETATM    1  C9  UNL     1      23.965   2.488  50.870  1.00  0.00     0.036 A 
HETATM    2  C10 UNL     1      22.622   2.671  50.613  1.00  0.00     0.032 A 
HETATM    3  C11 UNL     1      21.704   1.885  51.286  1.00  0.00     0.033 A 
HETATM    4  C12 UNL     1      22.172   0.952  52.187  1.00  0.00     0.053 A 
HETATM    5  C13 UNL     1      23.503   0.734  52.475  1.00  0.00     0.040 A 
HETATM    6  C14 UNL     1      24.380   1.539  51.782  1.00  0.00     0.047 A 
HETATM    7  C15 UNL     1      23.995  -0.247  53.422  1.00  0.00     0.152 A 
HETATM    8  N4  UNL     1      23.300  -1.062  54.139  1.00  0.00    -0.176 NA
HETATM    9  S1  UNL     1      21.518  -1.063  54.024  1.00  0.00     0.093 SA
HETATM   10  N5  UNL     1      21.148   0.198  52.823  1.00  0.00    -0.310 N 
HETATM   11  H21 UNL     1      20.121   0.222  52.732  1.00  0.00     0.176 HD
ENDROOT
BRANCH   1  12
HETATM   12  N2  UNL     1      24.959   3.275  50.200  1.00  0.00    -0.316 N 
HETATM   13  C8  UNL     1      26.371   3.345  50.298  1.00  0.00     0.300 C 
HETATM   14  O1  UNL     1      27.156   2.702  51.034  1.00  0.00    -0.258 OA
HETATM   15  H13 UNL     1      24.442   3.885  49.529  1.00  0.00     0.170 HD
BRANCH  13  16
HETATM   16  C7  UNL     1      27.026   4.300  49.420  1.00  0.00    -0.005 C 
HETATM   17  C6  UNL     1      27.565   5.114  48.694  1.00  0.00    -0.095 C 
BRANCH  17  18
HETATM   18  C5  UNL     1      28.215   6.112  47.829  1.00  0.00     0.114 C 
BRANCH  18  19
HETATM   19  C4  UNL     1      27.757   7.484  48.266  1.00  0.00     0.128 C 
BRANCH  19  20
HETATM   20  N1  UNL     1      28.849   8.285  48.702  1.00  0.00    -0.416 N 
HETATM   21  C3  UNL     1      29.776   8.680  47.689  1.00  0.00     0.143 C 
BRANCH  20  22
HETATM   22  C2  UNL     1      28.531   9.344  49.612  1.00  0.00     0.112 C 
HETATM   23  C1  UNL     1      27.210   9.203  50.289  1.00  0.00     0.026 C 
ENDBRANCH  20  22
ENDBRANCH  19  20
ENDBRANCH  18  19
ENDBRANCH  17  18
ENDBRANCH  13  16
ENDBRANCH   1  12
BRANCH   7  24
HETATM   24  N3  UNL     1      25.408  -0.318  53.578  1.00  0.00    -0.335 N 
HETATM   25  C16 UNL     1      26.243  -1.355  53.048  1.00  0.00     0.120 A 
HETATM   26  C17 UNL     1      27.525  -1.255  53.343  1.00  0.00     0.087 A 
HETATM   27 CL1  UNL     1      28.547  -2.501  52.710  1.00  0.00    -0.080 Cl
HETATM   28  C18 UNL     1      28.015  -0.136  54.145  1.00  0.00     0.137 A 
HETATM   29  F1  UNL     1      29.323  -0.081  54.419  1.00  0.00    -0.205 F 
HETATM   30  C19 UNL     1      27.261   0.820  54.619  1.00  0.00     0.037 A 
HETATM   31  C20 UNL     1      25.791   0.838  54.363  1.00  0.00     0.160 A 
ENDBRANCH   7  24
TORSDOF 7
ENDMDL
MODEL 6
REMARK VINA RESULT:      -7.9      5.453      7.763
REMARK  7 active torsions:
REMARK  status: ('A' for Active; 'I' for Inactive)
REMARK    1  A    between atoms: C2_2  and  N1_3 
REMARK    2  A    between atoms: N1_3  and  C4_5 
REMARK    3  A    between atoms: C4_5  and  C5_6 
REMARK    4  A    between atoms: C5_6  and  C6_7 
REMARK    5  A    between atoms: C7_8  and  C8_9 
REMARK       I    between atoms: C8_9  and  N2_11 
REMARK    6  A    between atoms: N2_11  and  C9_12 
REMARK    7  A    between atoms: C15_18  and  N3_19 
ROOT
HETATM    1  C9  UNL     1      22.535   0.193  53.532  1.00  0.00     0.036 A 
HETATM    2  C10 UNL     1      22.162  -0.691  54.523  1.00  0.00     0.032 A 
HETATM    3  C11 UNL     1      20.870  -1.182  54.523  1.00  0.00     0.033 A 
HETATM    4  C12 UNL     1      20.009  -0.767  53.529  1.00  0.00     0.053 A 
HETATM    5  C13 UNL     1      20.337   0.113  52.520  1.00  0.00     0.040 A 
HETATM    6  C14 UNL     1      21.634   0.576  52.561  1.00  0.00     0.047 A 
HETATM    7  C15 UNL     1      19.431   0.550  51.475  1.00  0.00     0.152 A 
HETATM    8  N4  UNL     1      18.201   0.205  51.309  1.00  0.00    -0.176 NA
HETATM    9  S1  UNL     1      17.429  -0.938  52.444  1.00  0.00     0.093 SA
HETATM   10  N5  UNL     1      18.706  -1.330  53.620  1.00  0.00    -0.310 N 
HETATM   11  H21 UNL     1      18.289  -1.990  54.293  1.00  0.00     0.176 HD
ENDROOT
BRANCH   1  12
HETATM   12  N2  UNL     1      23.863   0.733  53.486  1.00  0.00    -0.316 N 
HETATM   13  C8  UNL     1      24.378   2.023  53.206  1.00  0.00     0.300 C 
HETATM   14  O1  UNL     1      23.772   3.081  52.912  1.00  0.00    -0.258 OA
HETATM   15  H13 UNL     1      24.505  -0.057  53.718  1.00  0.00     0.170 HD
BRANCH  13  16
HETATM   16  C7  UNL     1      25.823   2.162  53.265  1.00  0.00    -0.005 C 
HETATM   17  C6  UNL     1      27.032   2.284  53.334  1.00  0.00    -0.095 C 
BRANCH  17  18
HETATM   18  C5  UNL     1      28.493   2.428  53.435  1.00  0.00     0.114 C 
BRANCH  18  19
HETATM   19  C4  UNL     1      29.020   1.301  54.293  1.00  0.00     0.128 C 
BRANCH  19  20
HETATM   20  N1  UNL     1      29.020   0.066  53.588  1.00  0.00    -0.416 N 
HETATM   21  C3  UNL     1      30.292  -0.567  53.437  1.00  0.00     0.143 C 
BRANCH  20  22
HETATM   22  C2  UNL     1      27.976  -0.854  53.928  1.00  0.00     0.112 C 
HETATM   23  C1  UNL     1      27.129  -1.283  52.779  1.00  0.00     0.026 C 
ENDBRANCH  20  22
ENDBRANCH  19  20
ENDBRANCH  18  19
ENDBRANCH  17  18
ENDBRANCH  13  16
ENDBRANCH   1  12
BRANCH   7  24
HETATM   24  N3  UNL     1      19.963   1.466  50.524  1.00  0.00    -0.335 N 
HETATM   25  C16 UNL     1      20.922   1.137  49.513  1.00  0.00     0.120 A 
HETATM   26  C17 UNL     1      21.316   2.144  48.757  1.00  0.00     0.087 A 
HETATM   27 CL1  UNL     1      22.477   1.762  47.530  1.00  0.00    -0.080 Cl
HETATM   28  C18 UNL     1      20.770   3.484  48.965  1.00  0.00     0.137 A 
HETATM   29  F1  UNL     1      21.203   4.472  48.175  1.00  0.00    -0.205 F 
HETATM   30  C19 UNL     1      19.884   3.787  49.876  1.00  0.00     0.037 A 
HETATM   31  C20 UNL     1      19.345   2.747  50.801  1.00  0.00     0.160 A 
ENDBRANCH   7  24
TORSDOF 7
ENDMDL
MODEL 7
REMARK VINA RESULT:      -7.8      3.242      4.876
REMARK  7 active torsions:
REMARK  status: ('A' for Active; 'I' for Inactive)
REMARK    1  A    between atoms: C2_2  and  N1_3 
REMARK    2  A    between atoms: N1_3  and  C4_5 
REMARK    3  A    between atoms: C4_5  and  C5_6 
REMARK    4  A    between atoms: C5_6  and  C6_7 
REMARK    5  A    between atoms: C7_8  and  C8_9 
REMARK       I    between atoms: C8_9  and  N2_11 
REMARK    6  A    between atoms: N2_11  and  C9_12 
REMARK    7  A    between atoms: C15_18  and  N3_19 
ROOT
HETATM    1  C9  UNL     1      26.353   1.820  52.159  1.00  0.00     0.036 A 
HETATM    2  C10 UNL     1      27.256   1.175  52.977  1.00  0.00     0.032 A 
HETATM    3  C11 UNL     1      26.780   0.264  53.902  1.00  0.00     0.033 A 
HETATM    4  C12 UNL     1      25.421   0.040  53.965  1.00  0.00     0.053 A 
HETATM    5  C13 UNL     1      24.483   0.661  53.169  1.00  0.00     0.040 A 
HETATM    6  C14 UNL     1      25.003   1.560  52.263  1.00  0.00     0.047 A 
HETATM    7  C15 UNL     1      23.054   0.426  53.236  1.00  0.00     0.152 A 
HETATM    8  N4  UNL     1      22.428  -0.379  54.024  1.00  0.00    -0.176 NA
HETATM    9  S1  UNL     1      23.335  -1.361  55.208  1.00  0.00     0.093 SA
HETATM   10  N5  UNL     1      25.038  -0.913  54.949  1.00  0.00    -0.310 N 
HETATM   11  H21 UNL     1      25.590  -1.464  55.623  1.00  0.00     0.176 HD
ENDROOT
BRANCH   1  12
HETATM   12  N2  UNL     1      26.793   2.774  51.182  1.00  0.00    -0.316 N 
HETATM   13  C8  UNL     1      26.194   3.321  50.019  1.00  0.00     0.300 C 
HETATM   14  O1  UNL     1      25.065   3.099  49.520  1.00  0.00    -0.258 OA
HETATM   15  H13 UNL     1      27.753   3.064  51.471  1.00  0.00     0.170 HD
BRANCH  13  16
HETATM   16  C7  UNL     1      26.992   4.286  49.282  1.00  0.00    -0.005 C 
HETATM   17  C6  UNL     1      27.671   5.098  48.682  1.00  0.00    -0.095 C 
BRANCH  17  18
HETATM   18  C5  UNL     1      28.505   6.078  47.967  1.00  0.00     0.114 C 
BRANCH  18  19
HETATM   19  C4  UNL     1      29.946   5.631  48.067  1.00  0.00     0.128 C 
BRANCH  19  20
HETATM   20  N1  UNL     1      30.713   6.519  48.870  1.00  0.00    -0.416 N 
HETATM   21  C3  UNL     1      31.877   5.962  49.482  1.00  0.00     0.143 C 
BRANCH  20  22
HETATM   22  C2  UNL     1      30.940   7.825  48.325  1.00  0.00     0.112 C 
HETATM   23  C1  UNL     1      30.596   8.948  49.243  1.00  0.00     0.026 C 
ENDBRANCH  20  22
ENDBRANCH  19  20
ENDBRANCH  18  19
ENDBRANCH  17  18
ENDBRANCH  13  16
ENDBRANCH   1  12
BRANCH   7  24
HETATM   24  N3  UNL     1      22.250   1.169  52.325  1.00  0.00    -0.335 N 
HETATM   25  C16 UNL     1      22.081   2.591  52.350  1.00  0.00     0.120 A 
HETATM   26  C17 UNL     1      21.258   3.078  51.441  1.00  0.00     0.087 A 
HETATM   27 CL1  UNL     1      21.042   4.796  51.458  1.00  0.00    -0.080 Cl
HETATM   28  C18 UNL     1      20.600   2.189  50.486  1.00  0.00     0.137 A 
HETATM   29  F1  UNL     1      19.772   2.732  49.586  1.00  0.00    -0.205 F 
HETATM   30  C19 UNL     1      20.762   0.893  50.449  1.00  0.00     0.037 A 
HETATM   31  C20 UNL     1      21.665   0.204  51.416  1.00  0.00     0.160 A 
ENDBRANCH   7  24
TORSDOF 7
ENDMDL
MODEL 8
REMARK VINA RESULT:      -7.8      3.338      4.949
REMARK  7 active torsions:
REMARK  status: ('A' for Active; 'I' for Inactive)
REMARK    1  A    between atoms: C2_2  and  N1_3 
REMARK    2  A    between atoms: N1_3  and  C4_5 
REMARK    3  A    between atoms: C4_5  and  C5_6 
REMARK    4  A    between atoms: C5_6  and  C6_7 
REMARK    5  A    between atoms: C7_8  and  C8_9 
REMARK       I    between atoms: C8_9  and  N2_11 
REMARK    6  A    between atoms: N2_11  and  C9_12 
REMARK    7  A    between atoms: C15_18  and  N3_19 
ROOT
HETATM    1  C9  UNL     1      26.504   2.103  52.059  1.00  0.00     0.036 A 
HETATM    2  C10 UNL     1      27.460   1.486  52.839  1.00  0.00     0.032 A 
HETATM    3  C11 UNL     1      27.054   0.542  53.764  1.00  0.00     0.033 A 
HETATM    4  C12 UNL     1      25.708   0.256  53.865  1.00  0.00     0.053 A 
HETATM    5  C13 UNL     1      24.719   0.846  53.107  1.00  0.00     0.040 A 
HETATM    6  C14 UNL     1      25.170   1.780  52.200  1.00  0.00     0.047 A 
HETATM    7  C15 UNL     1      23.305   0.546  53.214  1.00  0.00     0.152 A 
HETATM    8  N4  UNL     1      22.740  -0.298  54.008  1.00  0.00    -0.176 NA
HETATM    9  S1  UNL     1      23.726  -1.255  55.148  1.00  0.00     0.093 SA
HETATM   10  N5  UNL     1      25.399  -0.728  54.844  1.00  0.00    -0.310 N 
HETATM   11  H21 UNL     1      25.996  -1.264  55.491  1.00  0.00     0.176 HD
ENDROOT
BRANCH   1  12
HETATM   12  N2  UNL     1      26.870   3.090  51.085  1.00  0.00    -0.316 N 
HETATM   13  C8  UNL     1      26.276   3.528  49.874  1.00  0.00     0.300 C 
HETATM   14  O1  UNL     1      25.222   3.143  49.314  1.00  0.00    -0.258 OA
HETATM   15  H13 UNL     1      27.762   3.514  51.423  1.00  0.00     0.170 HD
BRANCH  13  16
HETATM   16  C7  UNL     1      26.980   4.579  49.161  1.00  0.00    -0.005 C 
HETATM   17  C6  UNL     1      27.582   5.462  48.578  1.00  0.00    -0.095 C 
BRANCH  17  18
HETATM   18  C5  UNL     1      28.326   6.525  47.883  1.00  0.00     0.114 C 
BRANCH  18  19
HETATM   19  C4  UNL     1      27.483   7.780  47.904  1.00  0.00     0.128 C 
BRANCH  19  20
HETATM   20  N1  UNL     1      27.397   8.328  49.213  1.00  0.00    -0.416 N 
HETATM   21  C3  UNL     1      28.447   9.222  49.587  1.00  0.00     0.143 C 
BRANCH  20  22
HETATM   22  C2  UNL     1      26.102   8.786  49.621  1.00  0.00     0.112 C 
HETATM   23  C1  UNL     1      25.272   7.761  50.315  1.00  0.00     0.026 C 
ENDBRANCH  20  22
ENDBRANCH  19  20
ENDBRANCH  18  19
ENDBRANCH  17  18
ENDBRANCH  13  16
ENDBRANCH   1  12
BRANCH   7  24
HETATM   24  N3  UNL     1      22.440   1.266  52.341  1.00  0.00    -0.335 N 
HETATM   25  C16 UNL     1      22.274   2.688  52.338  1.00  0.00     0.120 A 
HETATM   26  C17 UNL     1      21.391   3.152  51.475  1.00  0.00     0.087 A 
HETATM   27 CL1  UNL     1      21.178   4.871  51.458  1.00  0.00    -0.080 Cl
HETATM   28  C18 UNL     1      20.668   2.239  50.592  1.00  0.00     0.137 A 
HETATM   29  F1  UNL     1      19.781   2.759  49.736  1.00  0.00    -0.205 F 
HETATM   30  C19 UNL     1      20.826   0.942  50.580  1.00  0.00     0.037 A 
HETATM   31  C20 UNL     1      21.794   0.278  51.501  1.00  0.00     0.160 A 
ENDBRANCH   7  24
TORSDOF 7
ENDMDL
MODEL 9
REMARK VINA RESULT:      -7.7      3.681      5.499
REMARK  7 active torsions:
REMARK  status: ('A' for Active; 'I' for Inactive)
REMARK    1  A    between atoms: C2_2  and  N1_3 
REMARK    2  A    between atoms: N1_3  and  C4_5 
REMARK    3  A    between atoms: C4_5  and  C5_6 
REMARK    4  A    between atoms: C5_6  and  C6_7 
REMARK    5  A    between atoms: C7_8  and  C8_9 
REMARK       I    between atoms: C8_9  and  N2_11 
REMARK    6  A    between atoms: N2_11  and  C9_12 
REMARK    7  A    between atoms: C15_18  and  N3_19 
ROOT
HETATM    1  C9  UNL     1      25.422   1.627  51.874  1.00  0.00     0.036 A 
HETATM    2  C10 UNL     1      26.105   0.767  52.709  1.00  0.00     0.032 A 
HETATM    3  C11 UNL     1      25.379  -0.086  53.520  1.00  0.00     0.033 A 
HETATM    4  C12 UNL     1      24.002  -0.041  53.457  1.00  0.00     0.053 A 
HETATM    5  C13 UNL     1      23.279   0.801  52.640  1.00  0.00     0.040 A 
HETATM    6  C14 UNL     1      24.043   1.633  51.851  1.00  0.00     0.047 A 
HETATM    7  C15 UNL     1      21.831   0.849  52.575  1.00  0.00     0.152 A 
HETATM    8  N4  UNL     1      20.992   0.138  53.246  1.00  0.00    -0.176 NA
HETATM    9  S1  UNL     1      21.580  -1.074  54.418  1.00  0.00     0.093 SA
HETATM   10  N5  UNL     1      23.354  -0.957  54.330  1.00  0.00    -0.310 N 
HETATM   11  H21 UNL     1      23.725  -1.647  55.000  1.00  0.00     0.176 HD
ENDROOT
BRANCH   1  12
HETATM   12  N2  UNL     1      26.126   2.533  51.013  1.00  0.00    -0.316 N 
HETATM   13  C8  UNL     1      25.746   3.279  49.869  1.00  0.00     0.300 C 
HETATM   14  O1  UNL     1      24.638   3.341  49.285  1.00  0.00    -0.258 OA
HETATM   15  H13 UNL     1      27.100   2.588  51.383  1.00  0.00     0.170 HD
BRANCH  13  16
HETATM   16  C7  UNL     1      26.782   4.101  49.268  1.00  0.00    -0.005 C 
HETATM   17  C6  UNL     1      27.640   4.806  48.770  1.00  0.00    -0.095 C 
BRANCH  17  18
HETATM   18  C5  UNL     1      28.671   5.672  48.177  1.00  0.00     0.114 C 
BRANCH  18  19
HETATM   19  C4  UNL     1      28.023   6.983  47.794  1.00  0.00     0.128 C 
BRANCH  19  20
HETATM   20  N1  UNL     1      27.901   7.851  48.914  1.00  0.00    -0.416 N 
HETATM   21  C3  UNL     1      28.919   8.844  49.048  1.00  0.00     0.143 C 
BRANCH  20  22
HETATM   22  C2  UNL     1      26.587   8.359  49.178  1.00  0.00     0.112 C 
HETATM   23  C1  UNL     1      25.857   7.651  50.268  1.00  0.00     0.026 C 
ENDBRANCH  20  22
ENDBRANCH  19  20
ENDBRANCH  18  19
ENDBRANCH  17  18
ENDBRANCH  13  16
ENDBRANCH   1  12
BRANCH   7  24
HETATM   24  N3  UNL     1      21.273   1.791  51.664  1.00  0.00    -0.335 N 
HETATM   25  C16 UNL     1      21.228   1.632  50.242  1.00  0.00     0.120 A 
HETATM   26  C17 UNL     1      20.703   2.643  49.576  1.00  0.00     0.087 A 
HETATM   27 CL1  UNL     1      20.642   2.466  47.854  1.00  0.00    -0.080 Cl
HETATM   28  C18 UNL     1      20.201   3.817  50.287  1.00  0.00     0.137 A 
HETATM   29  F1  UNL     1      19.681   4.816  49.567  1.00  0.00    -0.205 F 
HETATM   30  C19 UNL     1      20.225   3.961  51.585  1.00  0.00     0.037 A 
HETATM   31  C20 UNL     1      20.788   2.896  52.466  1.00  0.00     0.160 A 
ENDBRANCH   7  24
TORSDOF 7
ENDMDL
