MODEL 1
REMARK VINA RESULT:      -8.1      0.000      0.000
REMARK  6 active torsions:
REMARK  status: ('A' for Active; 'I' for Inactive)
REMARK    1  A    between atoms: O1_2  and  C2_3 
REMARK    2  A    between atoms: C4_5  and  N1_6 
REMARK       I    between atoms: N1_6  and  C5_7 
REMARK    3  A    between atoms: C5_7  and  C6_9 
REMARK    4  A    between atoms: C6_9  and  C7_10 
REMARK    5  A    between atoms: C7_10  and  C8_11 
REMARK    6  A    between atoms: C8_11  and  N2_12 
ROOT
HETATM    1  C2  UNL     1      26.146   1.042  54.006  1.00  0.00     0.095 A 
HETATM    2  C3  UNL     1      26.149   2.163  53.304  1.00  0.00     0.068 A 
HETATM    3  C4  UNL     1      25.187   2.325  52.221  1.00  0.00     0.034 A 
HETATM    4  C11 UNL     1      24.363   1.321  51.975  1.00  0.00     0.015 A 
HETATM    5  C12 UNL     1      24.177   0.033  52.536  1.00  0.00     0.077 A 
HETATM    6  C13 UNL     1      22.841  -0.361  53.135  1.00  0.00     0.013 A 
HETATM    7  C14 UNL     1      22.819   0.833  53.795  1.00  0.00     0.021 C 
HETATM    8  C15 UNL     1      21.302   0.279  54.106  1.00  0.00     0.095 C 
HETATM    9 BR1  UNL     1      20.224   0.493  52.615  1.00  0.00    -0.088 Br
HETATM   10  C16 UNL     1      22.057  -1.029  54.204  1.00  0.00     0.083 A 
HETATM   11  C17 UNL     1      22.355  -1.794  53.175  1.00  0.00     0.038 A 
HETATM   12  N3  UNL     1      22.763  -1.391  55.520  1.00  0.00    -0.270 NA
HETATM   13  C18 UNL     1      24.162  -1.287  55.693  1.00  0.00     0.228 C 
HETATM   14  N4  UNL     1      25.307  -0.970  54.748  1.00  0.00    -0.243 NA
HETATM   15  C19 UNL     1      25.172  -0.058  53.759  1.00  0.00     0.077 A 
ENDROOT
BRANCH   3  16
HETATM   16  N1  UNL     1      25.148   3.531  51.463  1.00  0.00    -0.324 N 
HETATM   17  C5  UNL     1      26.004   3.540  50.355  1.00  0.00     0.245 C 
HETATM   18  O2  UNL     1      26.811   2.722  49.855  1.00  0.00    -0.268 OA
HETATM   19  H5  UNL     1      24.557   4.372  51.663  1.00  0.00     0.169 HD
BRANCH  17  20
HETATM   20  C6  UNL     1      26.037   4.733  49.516  1.00  0.00     0.072 C 
BRANCH  20  21
HETATM   21  C7  UNL     1      26.820   5.575  48.887  1.00  0.00     0.008 C 
BRANCH  21  22
HETATM   22  C8  UNL     1      27.311   6.760  48.180  1.00  0.00     0.299 C 
BRANCH  22  23
HETATM   23  N2  UNL     1      28.718   6.696  47.844  1.00  0.00     0.083 N 
HETATM   24  C9  UNL     1      29.402   7.774  48.490  1.00  0.00     0.309 C 
HETATM   25  C10 UNL     1      29.308   5.430  48.202  1.00  0.00     0.309 C 
ENDBRANCH  22  23
ENDBRANCH  21  22
ENDBRANCH  20  21
ENDBRANCH  17  20
ENDBRANCH   3  16
BRANCH   1  26
HETATM   26  O1  UNL     1      27.066   0.874  55.024  1.00  0.00    -0.354 OA
HETATM   27  C1  UNL     1      28.418   0.651  54.598  1.00  0.00     0.210 C 
ENDBRANCH   1  26
TORSDOF 6
ENDMDL
MODEL 2
REMARK VINA RESULT:      -7.9      1.424      1.810
REMARK  6 active torsions:
REMARK  status: ('A' for Active; 'I' for Inactive)
REMARK    1  A    between atoms: O1_2  and  C2_3 
REMARK    2  A    between atoms: C4_5  and  N1_6 
REMARK       I    between atoms: N1_6  and  C5_7 
REMARK    3  A    between atoms: C5_7  and  C6_9 
REMARK    4  A    between atoms: C6_9  and  C7_10 
REMARK    5  A    between atoms: C7_10  and  C8_11 
REMARK    6  A    between atoms: C8_11  and  N2_12 
ROOT
HETATM    1  C2  UNL     1      26.135   0.878  54.122  1.00  0.00     0.095 A 
HETATM    2  C3  UNL     1      26.224   1.998  53.423  1.00  0.00     0.068 A 
HETATM    3  C4  UNL     1      25.325   2.203  52.294  1.00  0.00     0.034 A 
HETATM    4  C11 UNL     1      24.470   1.237  52.006  1.00  0.00     0.015 A 
HETATM    5  C12 UNL     1      24.198  -0.041  52.555  1.00  0.00     0.077 A 
HETATM    6  C13 UNL     1      22.817  -0.373  53.086  1.00  0.00     0.013 A 
HETATM    7  C14 UNL     1      22.817   0.820  53.747  1.00  0.00     0.021 C 
HETATM    8  C15 UNL     1      21.263   0.335  53.981  1.00  0.00     0.095 C 
HETATM    9 BR1  UNL     1      20.271   0.598  52.439  1.00  0.00    -0.088 Br
HETATM   10  C16 UNL     1      21.953  -1.005  54.114  1.00  0.00     0.083 A 
HETATM   11  C17 UNL     1      22.266  -1.783  53.100  1.00  0.00     0.038 A 
HETATM   12  N3  UNL     1      22.575  -1.398  55.462  1.00  0.00    -0.270 NA
HETATM   13  C18 UNL     1      23.967  -1.358  55.705  1.00  0.00     0.228 C 
HETATM   14  N4  UNL     1      25.170  -1.093  54.819  1.00  0.00    -0.243 NA
HETATM   15  C19 UNL     1      25.126  -0.177  53.825  1.00  0.00     0.077 A 
ENDROOT
BRANCH   3  16
HETATM   16  N1  UNL     1      25.378   3.409  51.538  1.00  0.00    -0.324 N 
HETATM   17  C5  UNL     1      26.211   3.345  50.414  1.00  0.00     0.245 C 
HETATM   18  O2  UNL     1      26.935   2.460  49.899  1.00  0.00    -0.268 OA
HETATM   19  H5  UNL     1      24.867   4.299  51.748  1.00  0.00     0.169 HD
BRANCH  17  20
HETATM   20  C6  UNL     1      26.333   4.532  49.574  1.00  0.00     0.072 C 
BRANCH  20  21
HETATM   21  C7  UNL     1      25.681   5.540  49.047  1.00  0.00     0.008 C 
BRANCH  21  22
HETATM   22  C8  UNL     1      24.699   6.603  48.830  1.00  0.00     0.299 C 
BRANCH  22  23
HETATM   23  N2  UNL     1      24.756   7.659  49.819  1.00  0.00     0.083 N 
HETATM   24  C9  UNL     1      24.182   7.186  51.042  1.00  0.00     0.309 C 
HETATM   25  C10 UNL     1      26.101   8.131  50.037  1.00  0.00     0.309 C 
ENDBRANCH  22  23
ENDBRANCH  21  22
ENDBRANCH  20  21
ENDBRANCH  17  20
ENDBRANCH   3  16
BRANCH   1  26
HETATM   26  O1  UNL     1      26.995   0.670  55.184  1.00  0.00    -0.354 OA
HETATM   27  C1  UNL     1      28.346   0.345  54.825  1.00  0.00     0.210 C 
ENDBRANCH   1  26
TORSDOF 6
ENDMDL
MODEL 3
REMARK VINA RESULT:      -7.6      2.624      4.004
REMARK  6 active torsions:
REMARK  status: ('A' for Active; 'I' for Inactive)
REMARK    1  A    between atoms: O1_2  and  C2_3 
REMARK    2  A    between atoms: C4_5  and  N1_6 
REMARK       I    between atoms: N1_6  and  C5_7 
REMARK    3  A    between atoms: C5_7  and  C6_9 
REMARK    4  A    between atoms: C6_9  and  C7_10 
REMARK    5  A    between atoms: C7_10  and  C8_11 
REMARK    6  A    between atoms: C8_11  and  N2_12 
ROOT
HETATM    1  C2  UNL     1      23.718   2.299  51.165  1.00  0.00     0.095 A 
HETATM    2  C3  UNL     1      24.505   2.845  50.253  1.00  0.00     0.068 A 
HETATM    3  C4  UNL     1      25.920   3.026  50.554  1.00  0.00     0.034 A 
HETATM    4  C11 UNL     1      26.348   2.652  51.748  1.00  0.00     0.015 A 
HETATM    5  C12 UNL     1      25.726   2.088  52.890  1.00  0.00     0.077 A 
HETATM    6  C13 UNL     1      26.186   0.751  53.436  1.00  0.00     0.013 A 
HETATM    7  C14 UNL     1      26.166   0.258  52.164  1.00  0.00     0.021 C 
HETATM    8  C15 UNL     1      26.884  -0.985  52.966  1.00  0.00     0.095 C 
HETATM    9 BR1  UNL     1      28.652  -0.573  53.333  1.00  0.00    -0.088 Br
HETATM   10  C16 UNL     1      25.871  -0.579  54.015  1.00  0.00     0.083 A 
HETATM   11  C17 UNL     1      26.057   0.378  54.898  1.00  0.00     0.038 A 
HETATM   12  N3  UNL     1      24.432  -1.108  53.911  1.00  0.00    -0.270 NA
HETATM   13  C18 UNL     1      23.354  -0.313  53.457  1.00  0.00     0.228 C 
HETATM   14  N4  UNL     1      23.223   1.157  53.103  1.00  0.00    -0.243 NA
HETATM   15  C19 UNL     1      24.223   1.825  52.484  1.00  0.00     0.077 A 
ENDROOT
BRANCH   3  16
HETATM   16  N1  UNL     1      26.799   3.588  49.584  1.00  0.00    -0.324 N 
HETATM   17  C5  UNL     1      26.679   4.974  49.436  1.00  0.00     0.245 C 
HETATM   18  O2  UNL     1      25.970   5.862  49.966  1.00  0.00    -0.268 OA
HETATM   19  H5  UNL     1      27.495   3.067  49.000  1.00  0.00     0.169 HD
BRANCH  17  20
HETATM   20  C6  UNL     1      27.537   5.644  48.464  1.00  0.00     0.072 C 
BRANCH  20  21
HETATM   21  C7  UNL     1      28.771   5.783  48.045  1.00  0.00     0.008 C 
BRANCH  21  22
HETATM   22  C8  UNL     1      30.217   5.616  47.892  1.00  0.00     0.299 C 
BRANCH  22  23
HETATM   23  N2  UNL     1      30.990   6.231  48.952  1.00  0.00     0.083 N 
HETATM   24  C9  UNL     1      32.357   5.829  48.827  1.00  0.00     0.309 C 
HETATM   25  C10 UNL     1      30.878   7.668  48.946  1.00  0.00     0.309 C 
ENDBRANCH  22  23
ENDBRANCH  21  22
ENDBRANCH  20  21
ENDBRANCH  17  20
ENDBRANCH   3  16
BRANCH   1  26
HETATM   26  O1  UNL     1      22.372   2.139  50.893  1.00  0.00    -0.354 OA
HETATM   27  C1  UNL     1      22.065   1.644  49.581  1.00  0.00     0.210 C 
ENDBRANCH   1  26
TORSDOF 6
ENDMDL
MODEL 4
REMARK VINA RESULT:      -7.4      2.690      4.040
REMARK  6 active torsions:
REMARK  status: ('A' for Active; 'I' for Inactive)
REMARK    1  A    between atoms: O1_2  and  C2_3 
REMARK    2  A    between atoms: C4_5  and  N1_6 
REMARK       I    between atoms: N1_6  and  C5_7 
REMARK    3  A    between atoms: C5_7  and  C6_9 
REMARK    4  A    between atoms: C6_9  and  C7_10 
REMARK    5  A    between atoms: C7_10  and  C8_11 
REMARK    6  A    between atoms: C8_11  and  N2_12 
ROOT
HETATM    1  C2  UNL     1      23.842   2.098  51.164  1.00  0.00     0.095 A 
HETATM    2  C3  UNL     1      24.563   2.688  50.225  1.00  0.00     0.068 A 
HETATM    3  C4  UNL     1      25.960   3.007  50.499  1.00  0.00     0.034 A 
HETATM    4  C11 UNL     1      26.435   2.707  51.695  1.00  0.00     0.015 A 
HETATM    5  C12 UNL     1      25.883   2.121  52.862  1.00  0.00     0.077 A 
HETATM    6  C13 UNL     1      26.472   0.847  53.436  1.00  0.00     0.013 A 
HETATM    7  C14 UNL     1      26.480   0.320  52.177  1.00  0.00     0.021 C 
HETATM    8  C15 UNL     1      27.321  -0.830  53.001  1.00  0.00     0.095 C 
HETATM    9 BR1  UNL     1      29.048  -0.247  53.328  1.00  0.00    -0.088 Br
HETATM   10  C16 UNL     1      26.289  -0.489  54.054  1.00  0.00     0.083 A 
HETATM   11  C17 UNL     1      26.398   0.506  54.908  1.00  0.00     0.038 A 
HETATM   12  N3  UNL     1      24.903  -1.151  53.988  1.00  0.00    -0.270 NA
HETATM   13  C18 UNL     1      23.751  -0.471  53.530  1.00  0.00     0.228 C 
HETATM   14  N4  UNL     1      23.480   0.970  53.139  1.00  0.00    -0.243 NA
HETATM   15  C19 UNL     1      24.406   1.710  52.486  1.00  0.00     0.077 A 
ENDROOT
BRANCH   3  16
HETATM   16  N1  UNL     1      26.770   3.620  49.500  1.00  0.00    -0.324 N 
HETATM   17  C5  UNL     1      26.604   5.006  49.398  1.00  0.00     0.245 C 
HETATM   18  O2  UNL     1      25.901   5.858  49.990  1.00  0.00    -0.268 OA
HETATM   19  H5  UNL     1      27.448   3.135  48.866  1.00  0.00     0.169 HD
BRANCH  17  20
HETATM   20  C6  UNL     1      27.391   5.726  48.402  1.00  0.00     0.072 C 
BRANCH  20  21
HETATM   21  C7  UNL     1      27.717   6.914  47.953  1.00  0.00     0.008 C 
BRANCH  21  22
HETATM   22  C8  UNL     1      27.710   8.353  47.689  1.00  0.00     0.299 C 
BRANCH  22  23
HETATM   23  N2  UNL     1      28.411   9.132  48.689  1.00  0.00     0.083 N 
HETATM   24  C9  UNL     1      27.622   9.179  49.882  1.00  0.00     0.309 C 
HETATM   25  C10 UNL     1      29.725   8.608  48.967  1.00  0.00     0.309 C 
ENDBRANCH  22  23
ENDBRANCH  21  22
ENDBRANCH  20  21
ENDBRANCH  17  20
ENDBRANCH   3  16
BRANCH   1  26
HETATM   26  O1  UNL     1      22.512   1.808  50.917  1.00  0.00    -0.354 OA
HETATM   27  C1  UNL     1      21.688   2.936  50.588  1.00  0.00     0.210 C 
ENDBRANCH   1  26
TORSDOF 6
ENDMDL
MODEL 5
REMARK VINA RESULT:      -7.4      1.726      2.097
REMARK  6 active torsions:
REMARK  status: ('A' for Active; 'I' for Inactive)
REMARK    1  A    between atoms: O1_2  and  C2_3 
REMARK    2  A    between atoms: C4_5  and  N1_6 
REMARK       I    between atoms: N1_6  and  C5_7 
REMARK    3  A    between atoms: C5_7  and  C6_9 
REMARK    4  A    between atoms: C6_9  and  C7_10 
REMARK    5  A    between atoms: C7_10  and  C8_11 
REMARK    6  A    between atoms: C8_11  and  N2_12 
ROOT
HETATM    1  C2  UNL     1      25.024   1.198  53.090  1.00  0.00     0.095 A 
HETATM    2  C3  UNL     1      25.581   2.258  52.529  1.00  0.00     0.068 A 
HETATM    3  C4  UNL     1      24.932   2.876  51.379  1.00  0.00     0.034 A 
HETATM    4  C11 UNL     1      23.816   2.325  50.934  1.00  0.00     0.015 A 
HETATM    5  C12 UNL     1      23.046   1.199  51.319  1.00  0.00     0.077 A 
HETATM    6  C13 UNL     1      21.595   1.361  51.726  1.00  0.00     0.013 A 
HETATM    7  C14 UNL     1      21.965   2.409  52.517  1.00  0.00     0.021 C 
HETATM    8  C15 UNL     1      20.326   2.520  52.603  1.00  0.00     0.095 C 
HETATM    9 BR1  UNL     1      19.652   3.259  51.045  1.00  0.00    -0.088 Br
HETATM   10  C16 UNL     1      20.465   1.012  52.623  1.00  0.00     0.083 A 
HETATM   11  C17 UNL     1      20.570   0.261  51.548  1.00  0.00     0.038 A 
HETATM   12  N3  UNL     1      20.768   0.305  53.953  1.00  0.00    -0.270 NA
HETATM   13  C18 UNL     1      22.049  -0.195  54.280  1.00  0.00     0.228 C 
HETATM   14  N4  UNL     1      23.345  -0.324  53.502  1.00  0.00    -0.243 NA
HETATM   15  C19 UNL     1      23.734   0.622  52.617  1.00  0.00     0.077 A 
ENDROOT
BRANCH   3  16
HETATM   16  N1  UNL     1      25.494   4.034  50.769  1.00  0.00    -0.324 N 
HETATM   17  C5  UNL     1      26.439   3.757  49.775  1.00  0.00     0.245 C 
HETATM   18  O2  UNL     1      26.920   2.711  49.279  1.00  0.00    -0.268 OA
HETATM   19  H5  UNL     1      25.264   5.031  50.996  1.00  0.00     0.169 HD
BRANCH  17  20
HETATM   20  C6  UNL     1      27.073   4.879  49.090  1.00  0.00     0.072 C 
BRANCH  20  21
HETATM   21  C7  UNL     1      28.148   5.270  48.449  1.00  0.00     0.008 C 
BRANCH  21  22
HETATM   22  C8  UNL     1      29.486   5.787  48.159  1.00  0.00     0.299 C 
BRANCH  22  23
HETATM   23  N2  UNL     1      29.658   7.183  48.504  1.00  0.00     0.083 N 
HETATM   24  C9  UNL     1      31.049   7.443  48.720  1.00  0.00     0.309 C 
HETATM   25  C10 UNL     1      29.127   8.064  47.493  1.00  0.00     0.309 C 
ENDBRANCH  22  23
ENDBRANCH  21  22
ENDBRANCH  20  21
ENDBRANCH  17  20
ENDBRANCH   3  16
BRANCH   1  26
HETATM   26  O1  UNL     1      25.643   0.596  54.171  1.00  0.00    -0.354 OA
HETATM   27  C1  UNL     1      27.051   0.364  54.021  1.00  0.00     0.210 C 
ENDBRANCH   1  26
TORSDOF 6
ENDMDL
MODEL 6
REMARK VINA RESULT:      -6.7      3.285      7.728
REMARK  6 active torsions:
REMARK  status: ('A' for Active; 'I' for Inactive)
REMARK    1  A    between atoms: O1_2  and  C2_3 
REMARK    2  A    between atoms: C4_5  and  N1_6 
REMARK       I    between atoms: N1_6  and  C5_7 
REMARK    3  A    between atoms: C5_7  and  C6_9 
REMARK    4  A    between atoms: C6_9  and  C7_10 
REMARK    5  A    between atoms: C7_10  and  C8_11 
REMARK    6  A    between atoms: C8_11  and  N2_12 
ROOT
HETATM    1  C2  UNL     1      25.578   0.627  52.503  1.00  0.00     0.095 A 
HETATM    2  C3  UNL     1      24.573  -0.057  53.025  1.00  0.00     0.068 A 
HETATM    3  C4  UNL     1      23.308   0.624  53.277  1.00  0.00     0.034 A 
HETATM    4  C11 UNL     1      23.234   1.911  52.987  1.00  0.00     0.015 A 
HETATM    5  C12 UNL     1      24.147   2.863  52.466  1.00  0.00     0.077 A 
HETATM    6  C13 UNL     1      23.836   3.603  51.180  1.00  0.00     0.013 A 
HETATM    7  C14 UNL     1      23.480   2.413  50.616  1.00  0.00     0.021 C 
HETATM    8  C15 UNL     1      22.998   3.467  49.448  1.00  0.00     0.095 C 
HETATM    9 BR1  UNL     1      21.419   4.295  49.946  1.00  0.00    -0.088 Br
HETATM   10  C16 UNL     1      24.278   4.154  49.874  1.00  0.00     0.083 A 
HETATM   11  C17 UNL     1      24.372   4.989  50.887  1.00  0.00     0.038 A 
HETATM   12  N3  UNL     1      25.615   3.678  49.287  1.00  0.00    -0.270 NA
HETATM   13  C18 UNL     1      26.533   2.884  50.013  1.00  0.00     0.228 C 
HETATM   14  N4  UNL     1      26.586   2.413  51.455  1.00  0.00    -0.243 NA
HETATM   15  C19 UNL     1      25.464   2.063  52.124  1.00  0.00     0.077 A 
ENDROOT
BRANCH   3  16
HETATM   16  N1  UNL     1      22.199  -0.090  53.815  1.00  0.00    -0.324 N 
HETATM   17  C5  UNL     1      21.037  -0.016  53.038  1.00  0.00     0.245 C 
HETATM   18  O2  UNL     1      20.731   0.538  51.955  1.00  0.00    -0.268 OA
HETATM   19  H5  UNL     1      22.187  -0.640  54.707  1.00  0.00     0.169 HD
BRANCH  17  20
HETATM   20  C6  UNL     1      19.845  -0.715  53.506  1.00  0.00     0.072 C 
BRANCH  20  21
HETATM   21  C7  UNL     1      18.617  -1.058  53.199  1.00  0.00     0.008 C 
BRANCH  21  22
HETATM   22  C8  UNL     1      17.243  -1.015  52.697  1.00  0.00     0.299 C 
BRANCH  22  23
HETATM   23  N2  UNL     1      16.954   0.151  51.890  1.00  0.00     0.083 N 
HETATM   24  C9  UNL     1      17.422  -0.075  50.557  1.00  0.00     0.309 C 
HETATM   25  C10 UNL     1      15.549   0.479  51.888  1.00  0.00     0.309 C 
ENDBRANCH  22  23
ENDBRANCH  21  22
ENDBRANCH  20  21
ENDBRANCH  17  20
ENDBRANCH   3  16
BRANCH   1  26
HETATM   26  O1  UNL     1      26.786  -0.007  52.277  1.00  0.00    -0.354 OA
HETATM   27  C1  UNL     1      26.801  -1.416  52.553  1.00  0.00     0.210 C 
ENDBRANCH   1  26
TORSDOF 6
ENDMDL
MODEL 7
REMARK VINA RESULT:      -6.7      2.285      2.625
REMARK  6 active torsions:
REMARK  status: ('A' for Active; 'I' for Inactive)
REMARK    1  A    between atoms: O1_2  and  C2_3 
REMARK    2  A    between atoms: C4_5  and  N1_6 
REMARK       I    between atoms: N1_6  and  C5_7 
REMARK    3  A    between atoms: C5_7  and  C6_9 
REMARK    4  A    between atoms: C6_9  and  C7_10 
REMARK    5  A    between atoms: C7_10  and  C8_11 
REMARK    6  A    between atoms: C8_11  and  N2_12 
ROOT
HETATM    1  C2  UNL     1      24.749   1.235  53.048  1.00  0.00     0.095 A 
HETATM    2  C3  UNL     1      25.333   2.314  52.555  1.00  0.00     0.068 A 
HETATM    3  C4  UNL     1      24.735   2.981  51.404  1.00  0.00     0.034 A 
HETATM    4  C11 UNL     1      23.638   2.455  50.890  1.00  0.00     0.015 A 
HETATM    5  C12 UNL     1      22.848   1.317  51.196  1.00  0.00     0.077 A 
HETATM    6  C13 UNL     1      21.382   1.470  51.548  1.00  0.00     0.013 A 
HETATM    7  C14 UNL     1      21.722   2.484  52.395  1.00  0.00     0.021 C 
HETATM    8  C15 UNL     1      20.081   2.599  52.417  1.00  0.00     0.095 C 
HETATM    9 BR1  UNL     1      19.476   3.404  50.863  1.00  0.00    -0.088 Br
HETATM   10  C16 UNL     1      20.213   1.091  52.382  1.00  0.00     0.083 A 
HETATM   11  C17 UNL     1      20.361   0.384  51.282  1.00  0.00     0.038 A 
HETATM   12  N3  UNL     1      20.457   0.329  53.693  1.00  0.00    -0.270 NA
HETATM   13  C18 UNL     1      21.722  -0.190  54.053  1.00  0.00     0.228 C 
HETATM   14  N4  UNL     1      23.050  -0.295  53.326  1.00  0.00    -0.243 NA
HETATM   15  C19 UNL     1      23.479   0.685  52.498  1.00  0.00     0.077 A 
ENDROOT
BRANCH   3  16
HETATM   16  N1  UNL     1      25.326   4.161  50.866  1.00  0.00    -0.324 N 
HETATM   17  C5  UNL     1      24.537   5.309  50.998  1.00  0.00     0.245 C 
HETATM   18  O2  UNL     1      23.411   5.556  51.490  1.00  0.00    -0.268 OA
HETATM   19  H5  UNL     1      26.262   4.230  50.401  1.00  0.00     0.169 HD
BRANCH  17  20
HETATM   20  C6  UNL     1      25.056   6.569  50.476  1.00  0.00     0.072 C 
BRANCH  20  21
HETATM   21  C7  UNL     1      26.040   7.128  49.814  1.00  0.00     0.008 C 
BRANCH  21  22
HETATM   22  C8  UNL     1      27.100   7.367  48.833  1.00  0.00     0.299 C 
BRANCH  22  23
HETATM   23  N2  UNL     1      27.723   8.669  48.956  1.00  0.00     0.083 N 
HETATM   24  C9  UNL     1      27.334   9.259  50.200  1.00  0.00     0.309 C 
HETATM   25  C10 UNL     1      29.160   8.597  48.854  1.00  0.00     0.309 C 
ENDBRANCH  22  23
ENDBRANCH  21  22
ENDBRANCH  20  21
ENDBRANCH  17  20
ENDBRANCH   3  16
BRANCH   1  26
HETATM   26  O1  UNL     1      25.319   0.587  54.128  1.00  0.00    -0.354 OA
HETATM   27  C1  UNL     1      26.696   0.214  53.964  1.00  0.00     0.210 C 
ENDBRANCH   1  26
TORSDOF 6
ENDMDL
MODEL 8
REMARK VINA RESULT:      -6.7      3.984      8.237
REMARK  6 active torsions:
REMARK  status: ('A' for Active; 'I' for Inactive)
REMARK    1  A    between atoms: O1_2  and  C2_3 
REMARK    2  A    between atoms: C4_5  and  N1_6 
REMARK       I    between atoms: N1_6  and  C5_7 
REMARK    3  A    between atoms: C5_7  and  C6_9 
REMARK    4  A    between atoms: C6_9  and  C7_10 
REMARK    5  A    between atoms: C7_10  and  C8_11 
REMARK    6  A    between atoms: C8_11  and  N2_12 
ROOT
HETATM    1  C2  UNL     1      23.270   5.200  50.929  1.00  0.00     0.095 A 
HETATM    2  C3  UNL     1      24.086   4.310  51.469  1.00  0.00     0.068 A 
HETATM    3  C4  UNL     1      25.331   3.983  50.784  1.00  0.00     0.034 A 
HETATM    4  C11 UNL     1      25.576   4.583  49.632  1.00  0.00     0.015 A 
HETATM    5  C12 UNL     1      24.874   5.524  48.837  1.00  0.00     0.077 A 
HETATM    6  C13 UNL     1      25.499   6.862  48.497  1.00  0.00     0.013 A 
HETATM    7  C14 UNL     1      25.852   6.997  49.808  1.00  0.00     0.021 C 
HETATM    8  C15 UNL     1      26.649   8.271  49.139  1.00  0.00     0.095 C 
HETATM    9 BR1  UNL     1      28.165   7.684  48.253  1.00  0.00    -0.088 Br
HETATM   10  C16 UNL     1      25.377   8.331  48.321  1.00  0.00     0.083 A 
HETATM   11  C17 UNL     1      25.158   7.624  47.234  1.00  0.00     0.038 A 
HETATM   12  N3  UNL     1      24.145   9.044  48.901  1.00  0.00    -0.270 NA
HETATM   13  C18 UNL     1      23.035   8.348  49.431  1.00  0.00     0.228 C 
HETATM   14  N4  UNL     1      22.654   6.879  49.478  1.00  0.00    -0.243 NA
HETATM   15  C19 UNL     1      23.585   5.915  49.660  1.00  0.00     0.077 A 
ENDROOT
BRANCH   3  16
HETATM   16  N1  UNL     1      26.243   3.047  51.352  1.00  0.00    -0.324 N 
HETATM   17  C5  UNL     1      25.679   1.798  51.639  1.00  0.00     0.245 C 
HETATM   18  O2  UNL     1      24.539   1.293  51.510  1.00  0.00    -0.268 OA
HETATM   19  H5  UNL     1      27.256   3.214  51.562  1.00  0.00     0.169 HD
BRANCH  17  20
HETATM   20  C6  UNL     1      26.533   0.770  52.225  1.00  0.00     0.072 C 
BRANCH  20  21
HETATM   21  C7  UNL     1      26.871   0.170  53.340  1.00  0.00     0.008 C 
BRANCH  21  22
HETATM   22  C8  UNL     1      27.535  -0.147  54.605  1.00  0.00     0.299 C 
BRANCH  22  23
HETATM   23  N2  UNL     1      28.959   0.114  54.598  1.00  0.00     0.083 N 
HETATM   24  C9  UNL     1      29.585  -0.731  53.627  1.00  0.00     0.309 C 
HETATM   25  C10 UNL     1      29.258   1.501  54.334  1.00  0.00     0.309 C 
ENDBRANCH  22  23
ENDBRANCH  21  22
ENDBRANCH  20  21
ENDBRANCH  17  20
ENDBRANCH   3  16
BRANCH   1  26
HETATM   26  O1  UNL     1      22.079   5.503  51.563  1.00  0.00    -0.354 OA
HETATM   27  C1  UNL     1      21.188   4.395  51.757  1.00  0.00     0.210 C 
ENDBRANCH   1  26
TORSDOF 6
ENDMDL
MODEL 9
REMARK VINA RESULT:      -6.3      3.916      8.199
REMARK  6 active torsions:
REMARK  status: ('A' for Active; 'I' for Inactive)
REMARK    1  A    between atoms: O1_2  and  C2_3 
REMARK    2  A    between atoms: C4_5  and  N1_6 
REMARK       I    between atoms: N1_6  and  C5_7 
REMARK    3  A    between atoms: C5_7  and  C6_9 
REMARK    4  A    between atoms: C6_9  and  C7_10 
REMARK    5  A    between atoms: C7_10  and  C8_11 
REMARK    6  A    between atoms: C8_11  and  N2_12 
ROOT
HETATM    1  C2  UNL     1      24.336   0.926  53.164  1.00  0.00     0.095 A 
HETATM    2  C3  UNL     1      23.107   0.466  53.332  1.00  0.00     0.068 A 
HETATM    3  C4  UNL     1      21.978   1.299  52.934  1.00  0.00     0.034 A 
HETATM    4  C11 UNL     1      22.241   2.497  52.441  1.00  0.00     0.015 A 
HETATM    5  C12 UNL     1      23.431   3.226  52.193  1.00  0.00     0.077 A 
HETATM    6  C13 UNL     1      23.767   3.701  50.793  1.00  0.00     0.013 A 
HETATM    7  C14 UNL     1      23.456   2.456  50.329  1.00  0.00     0.021 C 
HETATM    8  C15 UNL     1      23.644   3.276  48.916  1.00  0.00     0.095 C 
HETATM    9 BR1  UNL     1      22.160   4.335  48.589  1.00  0.00    -0.088 Br
HETATM   10  C16 UNL     1      24.760   3.916  49.712  1.00  0.00     0.083 A 
HETATM   11  C17 UNL     1      24.601   4.936  50.529  1.00  0.00     0.038 A 
HETATM   12  N3  UNL     1      26.119   3.204  49.805  1.00  0.00    -0.270 NA
HETATM   13  C18 UNL     1      26.539   2.502  50.958  1.00  0.00     0.228 C 
HETATM   14  N4  UNL     1      25.956   2.345  52.350  1.00  0.00    -0.243 NA
HETATM   15  C19 UNL     1      24.622   2.252  52.550  1.00  0.00     0.077 A 
ENDROOT
BRANCH   3  16
HETATM   16  N1  UNL     1      20.643   0.823  53.079  1.00  0.00    -0.324 N 
HETATM   17  C5  UNL     1      20.071   0.348  51.893  1.00  0.00     0.245 C 
HETATM   18  O2  UNL     1      20.462   0.236  50.707  1.00  0.00    -0.268 OA
HETATM   19  H5  UNL     1      20.083   0.802  53.964  1.00  0.00     0.169 HD
BRANCH  17  20
HETATM   20  C6  UNL     1      18.705  -0.161  51.938  1.00  0.00     0.072 C 
BRANCH  20  21
HETATM   21  C7  UNL     1      17.555  -0.192  51.309  1.00  0.00     0.008 C 
BRANCH  21  22
HETATM   22  C8  UNL     1      16.140  -0.005  50.983  1.00  0.00     0.299 C 
BRANCH  22  23
HETATM   23  N2  UNL     1      15.238  -0.464  52.019  1.00  0.00     0.083 N 
HETATM   24  C9  UNL     1      14.855   0.650  52.832  1.00  0.00     0.309 C 
HETATM   25  C10 UNL     1      14.075  -1.123  51.477  1.00  0.00     0.309 C 
ENDBRANCH  22  23
ENDBRANCH  21  22
ENDBRANCH  20  21
ENDBRANCH  17  20
ENDBRANCH   3  16
BRANCH   1  26
HETATM   26  O1  UNL     1      25.411   0.149  53.554  1.00  0.00    -0.354 OA
HETATM   27  C1  UNL     1      25.147  -0.772  54.623  1.00  0.00     0.210 C 
ENDBRANCH   1  26
TORSDOF 6
ENDMDL
