MODEL 1
REMARK VINA RESULT:      -9.5      0.000      0.000
REMARK  4 active torsions:
REMARK  status: ('A' for Active; 'I' for Inactive)
REMARK    1  A    between atoms: C7_7  and  C8_8 
REMARK    2  A    between atoms: N2_10  and  C9_11 
REMARK    3  A    between atoms: C10_13  and  O1_14 
REMARK    4  A    between atoms: C12_17  and  C13_18 
ROOT
HETATM    1  C8  UNL     1      23.730   1.169  52.496  1.00  0.00     0.068 C 
HETATM    2  N1  UNL     1      24.654   1.536  53.339  1.00  0.00    -0.173 NA
HETATM    3  N2  UNL     1      25.622   2.359  52.754  1.00  0.00    -0.236 N 
HETATM    4  C12 UNL     1      24.836   3.036  51.800  1.00  0.00     0.151 C 
HETATM    5  C19 UNL     1      24.096   1.803  51.203  1.00  0.00     0.094 C 
ENDROOT
BRANCH   1   6
HETATM    6  C7  UNL     1      22.682   0.304  53.054  1.00  0.00    -0.004 A 
HETATM    7  C2  UNL     1      21.424   0.891  53.043  1.00  0.00    -0.050 A 
HETATM    8  C1  UNL     1      21.169   2.241  52.485  1.00  0.00     0.049 C 
HETATM    9  C3  UNL     1      20.408   0.111  53.591  1.00  0.00     0.007 A 
HETATM   10  C4  UNL     1      20.549  -1.142  54.116  1.00  0.00     0.001 A 
HETATM   11  C5  UNL     1      21.826  -1.670  54.097  1.00  0.00     0.001 A 
HETATM   12  C6  UNL     1      22.899  -0.972  53.573  1.00  0.00     0.014 A 
ENDBRANCH   1   6
BRANCH   3  13
HETATM   13  C9  UNL     1      26.940   2.202  53.346  1.00  0.00     0.192 A 
HETATM   14  N3  UNL     1      27.956   2.598  54.029  1.00  0.00    -0.198 NA
HETATM   15  C10 UNL     1      28.949   1.754  54.182  1.00  0.00     0.171 A 
HETATM   16  C11 UNL     1      28.999   0.356  53.626  1.00  0.00     0.111 A 
HETATM   17  S1  UNL     1      27.295   0.426  52.787  1.00  0.00    -0.058 SA
BRANCH  15  18
HETATM   18  O1  UNL     1      29.942   2.393  54.945  1.00  0.00    -0.344 OA
HETATM   19  H8  UNL     1      30.917   2.328  54.803  1.00  0.00     0.219 HD
ENDBRANCH  15  18
ENDBRANCH   3  13
BRANCH   4  20
HETATM   20  C13 UNL     1      25.477   3.794  50.741  1.00  0.00    -0.033 A 
HETATM   21  C14 UNL     1      26.564   3.311  50.069  1.00  0.00     0.009 A 
HETATM   22  C15 UNL     1      27.062   4.163  49.072  1.00  0.00     0.001 A 
HETATM   23  C16 UNL     1      26.546   5.397  48.745  1.00  0.00     0.000 A 
HETATM   24  C17 UNL     1      25.450   5.829  49.457  1.00  0.00     0.001 A 
HETATM   25  C18 UNL     1      24.908   5.043  50.451  1.00  0.00     0.009 A 
ENDBRANCH   4  20
TORSDOF 4
ENDMDL
MODEL 2
REMARK VINA RESULT:      -9.2      2.171      4.765
REMARK  4 active torsions:
REMARK  status: ('A' for Active; 'I' for Inactive)
REMARK    1  A    between atoms: C7_7  and  C8_8 
REMARK    2  A    between atoms: N2_10  and  C9_11 
REMARK    3  A    between atoms: C10_13  and  O1_14 
REMARK    4  A    between atoms: C12_17  and  C13_18 
ROOT
HETATM    1  C8  UNL     1      23.919   0.152  53.010  1.00  0.00     0.068 C 
HETATM    2  N1  UNL     1      24.308   0.755  51.923  1.00  0.00    -0.173 NA
HETATM    3  N2  UNL     1      25.697   0.912  51.860  1.00  0.00    -0.236 N 
HETATM    4  C12 UNL     1      26.114  -0.247  52.545  1.00  0.00     0.151 C 
HETATM    5  C19 UNL     1      25.162  -0.138  53.772  1.00  0.00     0.094 C 
ENDROOT
BRANCH   1   6
HETATM    6  C7  UNL     1      22.468  -0.045  53.132  1.00  0.00    -0.004 A 
HETATM    7  C2  UNL     1      22.109  -0.797  54.242  1.00  0.00    -0.050 A 
HETATM    8  C1  UNL     1      23.096  -1.311  55.222  1.00  0.00     0.049 C 
HETATM    9  C3  UNL     1      20.742  -1.030  54.375  1.00  0.00     0.007 A 
HETATM   10  C4  UNL     1      19.764  -0.589  53.530  1.00  0.00     0.001 A 
HETATM   11  C5  UNL     1      20.187   0.154  52.445  1.00  0.00     0.001 A 
HETATM   12  C6  UNL     1      21.523   0.438  52.228  1.00  0.00     0.014 A 
ENDBRANCH   1   6
BRANCH   3  13
HETATM   13  C9  UNL     1      26.106   2.109  51.145  1.00  0.00     0.192 A 
HETATM   14  N3  UNL     1      26.971   2.923  50.653  1.00  0.00    -0.198 NA
HETATM   15  C10 UNL     1      26.518   3.975  50.011  1.00  0.00     0.171 A 
HETATM   16  C11 UNL     1      25.064   4.308  49.801  1.00  0.00     0.111 A 
HETATM   17  S1  UNL     1      24.388   2.790  50.723  1.00  0.00    -0.058 SA
BRANCH  15  18
HETATM   18  O1  UNL     1      27.625   4.721  49.570  1.00  0.00    -0.344 OA
HETATM   19  H8  UNL     1      28.441   4.914  50.091  1.00  0.00     0.219 HD
ENDBRANCH  15  18
ENDBRANCH   3  13
BRANCH   4  20
HETATM   20  C13 UNL     1      27.490  -0.369  52.991  1.00  0.00    -0.033 A 
HETATM   21  C14 UNL     1      28.191   0.707  53.459  1.00  0.00     0.009 A 
HETATM   22  C15 UNL     1      29.506   0.421  53.854  1.00  0.00     0.001 A 
HETATM   23  C16 UNL     1      30.105  -0.817  53.802  1.00  0.00     0.000 A 
HETATM   24  C17 UNL     1      29.349  -1.862  53.320  1.00  0.00     0.001 A 
HETATM   25  C18 UNL     1      28.048  -1.654  52.915  1.00  0.00     0.009 A 
ENDBRANCH   4  20
TORSDOF 4
ENDMDL
MODEL 3
REMARK VINA RESULT:      -8.8      2.791      6.818
REMARK  4 active torsions:
REMARK  status: ('A' for Active; 'I' for Inactive)
REMARK    1  A    between atoms: C7_7  and  C8_8 
REMARK    2  A    between atoms: N2_10  and  C9_11 
REMARK    3  A    between atoms: C10_13  and  O1_14 
REMARK    4  A    between atoms: C12_17  and  C13_18 
ROOT
HETATM    1  C8  UNL     1      25.836   0.140  53.041  1.00  0.00     0.068 C 
HETATM    2  N1  UNL     1      25.494   1.218  52.393  1.00  0.00    -0.173 NA
HETATM    3  N2  UNL     1      24.115   1.299  52.171  1.00  0.00    -0.236 N 
HETATM    4  C12 UNL     1      23.633   0.653  53.326  1.00  0.00     0.151 C 
HETATM    5  C19 UNL     1      24.567  -0.593  53.292  1.00  0.00     0.094 C 
ENDROOT
BRANCH   1   6
HETATM    6  C7  UNL     1      27.274  -0.002  53.307  1.00  0.00    -0.004 A 
HETATM    7  C2  UNL     1      27.781  -1.240  52.936  1.00  0.00    -0.050 A 
HETATM    8  C1  UNL     1      26.952  -2.292  52.297  1.00  0.00     0.049 C 
HETATM    9  C3  UNL     1      29.136  -1.422  53.201  1.00  0.00     0.007 A 
HETATM   10  C4  UNL     1      29.973  -0.509  53.774  1.00  0.00     0.001 A 
HETATM   11  C5  UNL     1      29.408   0.703  54.121  1.00  0.00     0.001 A 
HETATM   12  C6  UNL     1      28.071   0.978  53.897  1.00  0.00     0.014 A 
ENDBRANCH   1   6
BRANCH   3  13
HETATM   13  C9  UNL     1      23.775   1.990  50.938  1.00  0.00     0.192 A 
HETATM   14  N3  UNL     1      23.047   2.216  49.902  1.00  0.00    -0.198 NA
HETATM   15  C10 UNL     1      23.425   3.180  49.094  1.00  0.00     0.171 A 
HETATM   16  C11 UNL     1      24.641   4.047  49.281  1.00  0.00     0.111 A 
HETATM   17  S1  UNL     1      25.213   3.224  50.896  1.00  0.00    -0.058 SA
BRANCH  15  18
HETATM   18  O1  UNL     1      22.498   3.244  48.039  1.00  0.00    -0.344 OA
HETATM   19  H8  UNL     1      21.526   3.391  48.125  1.00  0.00     0.219 HD
ENDBRANCH  15  18
ENDBRANCH   3  13
BRANCH   4  20
HETATM   20  C13 UNL     1      22.246   0.233  53.395  1.00  0.00    -0.033 A 
HETATM   21  C14 UNL     1      21.235   1.012  52.906  1.00  0.00     0.009 A 
HETATM   22  C15 UNL     1      19.953   0.462  53.045  1.00  0.00     0.001 A 
HETATM   23  C16 UNL     1      19.663  -0.756  53.617  1.00  0.00     0.000 A 
HETATM   24  C17 UNL     1      20.723  -1.495  54.092  1.00  0.00     0.001 A 
HETATM   25  C18 UNL     1      22.011  -1.017  53.988  1.00  0.00     0.009 A 
ENDBRANCH   4  20
TORSDOF 4
ENDMDL
MODEL 4
REMARK VINA RESULT:      -8.6      1.666      5.948
REMARK  4 active torsions:
REMARK  status: ('A' for Active; 'I' for Inactive)
REMARK    1  A    between atoms: C7_7  and  C8_8 
REMARK    2  A    between atoms: N2_10  and  C9_11 
REMARK    3  A    between atoms: C10_13  and  O1_14 
REMARK    4  A    between atoms: C12_17  and  C13_18 
ROOT
HETATM    1  C8  UNL     1      25.358   2.971  51.196  1.00  0.00     0.068 C 
HETATM    2  N1  UNL     1      26.097   1.899  51.152  1.00  0.00    -0.173 NA
HETATM    3  N2  UNL     1      25.638   0.892  52.008  1.00  0.00    -0.236 N 
HETATM    4  C12 UNL     1      24.250   1.132  51.962  1.00  0.00     0.151 C 
HETATM    5  C19 UNL     1      24.282   2.674  52.178  1.00  0.00     0.094 C 
ENDROOT
BRANCH   1   6
HETATM    6  C7  UNL     1      25.788   4.065  50.315  1.00  0.00    -0.004 A 
HETATM    7  C2  UNL     1      24.972   5.185  50.392  1.00  0.00    -0.050 A 
HETATM    8  C1  UNL     1      23.807   5.272  51.306  1.00  0.00     0.049 C 
HETATM    9  C3  UNL     1      25.332   6.233  49.548  1.00  0.00     0.007 A 
HETATM   10  C4  UNL     1      26.390   6.244  48.685  1.00  0.00     0.001 A 
HETATM   11  C5  UNL     1      27.164   5.100  48.656  1.00  0.00     0.001 A 
HETATM   12  C6  UNL     1      26.886   4.008  49.457  1.00  0.00     0.014 A 
ENDBRANCH   1   6
BRANCH   3  13
HETATM   13  C9  UNL     1      26.706   0.060  52.536  1.00  0.00     0.192 A 
HETATM   14  N3  UNL     1      27.347  -1.047  52.679  1.00  0.00    -0.198 NA
HETATM   15  C10 UNL     1      28.423  -1.031  53.430  1.00  0.00     0.171 A 
HETATM   16  C11 UNL     1      28.973   0.177  54.140  1.00  0.00     0.111 A 
HETATM   17  S1  UNL     1      27.629   1.378  53.536  1.00  0.00    -0.058 SA
BRANCH  15  18
HETATM   18  O1  UNL     1      28.952  -2.334  53.451  1.00  0.00    -0.344 OA
HETATM   19  H8  UNL     1      29.054  -2.933  52.674  1.00  0.00     0.219 HD
ENDBRANCH  15  18
ENDBRANCH   3  13
BRANCH   4  20
HETATM   20  C13 UNL     1      23.375   0.510  52.938  1.00  0.00    -0.033 A 
HETATM   21  C14 UNL     1      23.800  -0.517  53.732  1.00  0.00     0.009 A 
HETATM   22  C15 UNL     1      22.834  -1.004  54.625  1.00  0.00     0.001 A 
HETATM   23  C16 UNL     1      21.546  -0.533  54.745  1.00  0.00     0.000 A 
HETATM   24  C17 UNL     1      21.177   0.503  53.918  1.00  0.00     0.001 A 
HETATM   25  C18 UNL     1      22.074   1.032  53.016  1.00  0.00     0.009 A 
ENDBRANCH   4  20
TORSDOF 4
ENDMDL
MODEL 5
REMARK VINA RESULT:      -8.4      2.711      5.889
REMARK  4 active torsions:
REMARK  status: ('A' for Active; 'I' for Inactive)
REMARK    1  A    between atoms: C7_7  and  C8_8 
REMARK    2  A    between atoms: N2_10  and  C9_11 
REMARK    3  A    between atoms: C10_13  and  O1_14 
REMARK    4  A    between atoms: C12_17  and  C13_18 
ROOT
HETATM    1  C8  UNL     1      24.621   2.461  50.535  1.00  0.00     0.068 C 
HETATM    2  N1  UNL     1      23.924   2.158  51.594  1.00  0.00    -0.173 NA
HETATM    3  N2  UNL     1      24.674   1.470  52.554  1.00  0.00    -0.236 N 
HETATM    4  C12 UNL     1      25.944   2.042  52.343  1.00  0.00     0.151 C 
HETATM    5  C19 UNL     1      25.986   1.930  50.791  1.00  0.00     0.094 C 
ENDROOT
BRANCH   1   6
HETATM    6  C7  UNL     1      23.888   3.189  49.490  1.00  0.00    -0.004 A 
HETATM    7  C2  UNL     1      24.277   4.516  49.372  1.00  0.00    -0.050 A 
HETATM    8  C1  UNL     1      25.353   5.118  50.196  1.00  0.00     0.049 C 
HETATM    9  C3  UNL     1      23.582   5.247  48.411  1.00  0.00     0.007 A 
HETATM   10  C4  UNL     1      22.588   4.774  47.603  1.00  0.00     0.001 A 
HETATM   11  C5  UNL     1      22.248   3.445  47.770  1.00  0.00     0.001 A 
HETATM   12  C6  UNL     1      22.881   2.639  48.698  1.00  0.00     0.014 A 
ENDBRANCH   1   6
BRANCH   3  13
HETATM   13  C9  UNL     1      23.882   0.532  53.333  1.00  0.00     0.192 A 
HETATM   14  N3  UNL     1      23.724  -0.445  54.155  1.00  0.00    -0.198 NA
HETATM   15  C10 UNL     1      22.494  -0.793  54.454  1.00  0.00     0.171 A 
HETATM   16  C11 UNL     1      21.249  -0.141  53.915  1.00  0.00     0.111 A 
HETATM   17  S1  UNL     1      22.155   1.135  52.836  1.00  0.00    -0.058 SA
BRANCH  15  18
HETATM   18  O1  UNL     1      22.559  -1.873  55.351  1.00  0.00    -0.344 OA
HETATM   19  H8  UNL     1      23.367  -2.388  55.584  1.00  0.00     0.219 HD
ENDBRANCH  15  18
ENDBRANCH   3  13
BRANCH   4  20
HETATM   20  C13 UNL     1      27.122   1.421  52.919  1.00  0.00    -0.033 A 
HETATM   21  C14 UNL     1      28.045   2.145  53.622  1.00  0.00     0.009 A 
HETATM   22  C15 UNL     1      29.122   1.396  54.116  1.00  0.00     0.001 A 
HETATM   23  C16 UNL     1      29.300   0.042  53.946  1.00  0.00     0.000 A 
HETATM   24  C17 UNL     1      28.337  -0.633  53.230  1.00  0.00     0.001 A 
HETATM   25  C18 UNL     1      27.250   0.039  52.714  1.00  0.00     0.009 A 
ENDBRANCH   4  20
TORSDOF 4
ENDMDL
MODEL 6
REMARK VINA RESULT:      -8.4      2.371      4.767
REMARK  4 active torsions:
REMARK  status: ('A' for Active; 'I' for Inactive)
REMARK    1  A    between atoms: C7_7  and  C8_8 
REMARK    2  A    between atoms: N2_10  and  C9_11 
REMARK    3  A    between atoms: C10_13  and  O1_14 
REMARK    4  A    between atoms: C12_17  and  C13_18 
ROOT
HETATM    1  C8  UNL     1      23.543   2.027  52.219  1.00  0.00     0.068 C 
HETATM    2  N1  UNL     1      24.131   2.330  51.096  1.00  0.00    -0.173 NA
HETATM    3  N2  UNL     1      25.526   2.264  51.183  1.00  0.00    -0.236 N 
HETATM    4  C12 UNL     1      25.673   1.223  52.120  1.00  0.00     0.151 C 
HETATM    5  C19 UNL     1      24.641   1.721  53.174  1.00  0.00     0.094 C 
ENDROOT
BRANCH   1   6
HETATM    6  C7  UNL     1      22.075   2.075  52.191  1.00  0.00    -0.004 A 
HETATM    7  C2  UNL     1      21.483   0.829  52.342  1.00  0.00    -0.050 A 
HETATM    8  C1  UNL     1      22.264  -0.415  52.550  1.00  0.00     0.049 C 
HETATM    9  C3  UNL     1      20.091   0.830  52.290  1.00  0.00     0.007 A 
HETATM   10  C4  UNL     1      19.294   1.925  52.112  1.00  0.00     0.001 A 
HETATM   11  C5  UNL     1      19.944   3.135  51.969  1.00  0.00     0.001 A 
HETATM   12  C6  UNL     1      21.323   3.234  52.006  1.00  0.00     0.014 A 
ENDBRANCH   1   6
BRANCH   3  13
HETATM   13  C9  UNL     1      26.197   3.215  50.313  1.00  0.00     0.192 A 
HETATM   14  N3  UNL     1      27.187   3.641  49.609  1.00  0.00    -0.198 NA
HETATM   15  C10 UNL     1      27.036   4.782  48.979  1.00  0.00     0.171 A 
HETATM   16  C11 UNL     1      25.798   5.638  49.010  1.00  0.00     0.111 A 
HETATM   17  S1  UNL     1      24.806   4.492  50.157  1.00  0.00    -0.058 SA
BRANCH  15  18
HETATM   18  O1  UNL     1      28.230   5.053  48.288  1.00  0.00    -0.344 OA
HETATM   19  H8  UNL     1      29.108   4.636  48.458  1.00  0.00     0.219 HD
ENDBRANCH  15  18
ENDBRANCH   3  13
BRANCH   4  20
HETATM   20  C13 UNL     1      26.960   0.995  52.752  1.00  0.00    -0.033 A 
HETATM   21  C14 UNL     1      27.685   2.018  53.295  1.00  0.00     0.009 A 
HETATM   22  C15 UNL     1      28.903   1.630  53.871  1.00  0.00     0.001 A 
HETATM   23  C16 UNL     1      29.390   0.344  53.921  1.00  0.00     0.000 A 
HETATM   24  C17 UNL     1      28.615  -0.644  53.357  1.00  0.00     0.001 A 
HETATM   25  C18 UNL     1      27.405  -0.336  52.774  1.00  0.00     0.009 A 
ENDBRANCH   4  20
TORSDOF 4
ENDMDL
MODEL 7
REMARK VINA RESULT:      -8.2      1.524      5.879
REMARK  4 active torsions:
REMARK  status: ('A' for Active; 'I' for Inactive)
REMARK    1  A    between atoms: C7_7  and  C8_8 
REMARK    2  A    between atoms: N2_10  and  C9_11 
REMARK    3  A    between atoms: C10_13  and  O1_14 
REMARK    4  A    between atoms: C12_17  and  C13_18 
ROOT
HETATM    1  C8  UNL     1      23.934   3.699  51.380  1.00  0.00     0.068 C 
HETATM    2  N1  UNL     1      25.008   2.979  51.539  1.00  0.00    -0.173 NA
HETATM    3  N2  UNL     1      24.818   1.915  52.427  1.00  0.00    -0.236 N 
HETATM    4  C12 UNL     1      23.463   1.618  52.181  1.00  0.00     0.151 C 
HETATM    5  C19 UNL     1      22.900   3.068  52.242  1.00  0.00     0.094 C 
ENDROOT
BRANCH   1   6
HETATM    6  C7  UNL     1      24.070   4.832  50.454  1.00  0.00    -0.004 A 
HETATM    7  C2  UNL     1      23.664   4.535  49.161  1.00  0.00    -0.050 A 
HETATM    8  C1  UNL     1      23.112   3.214  48.772  1.00  0.00     0.049 C 
HETATM    9  C3  UNL     1      23.806   5.576  48.247  1.00  0.00     0.007 A 
HETATM   10  C4  UNL     1      24.294   6.823  48.518  1.00  0.00     0.001 A 
HETATM   11  C5  UNL     1      24.680   7.056  49.824  1.00  0.00     0.001 A 
HETATM   12  C6  UNL     1      24.577   6.084  50.802  1.00  0.00     0.014 A 
ENDBRANCH   1   6
BRANCH   3  13
HETATM   13  C9  UNL     1      26.019   1.566  53.167  1.00  0.00     0.192 A 
HETATM   14  N3  UNL     1      26.864   1.696  54.128  1.00  0.00    -0.198 NA
HETATM   15  C10 UNL     1      27.880   0.865  54.158  1.00  0.00     0.171 A 
HETATM   16  C11 UNL     1      28.140  -0.231  53.159  1.00  0.00     0.111 A 
HETATM   17  S1  UNL     1      26.610   0.123  52.089  1.00  0.00    -0.058 SA
BRANCH  15  18
HETATM   18  O1  UNL     1      28.669   1.191  55.275  1.00  0.00    -0.344 OA
HETATM   19  H8  UNL     1      29.466   0.701  55.588  1.00  0.00     0.219 HD
ENDBRANCH  15  18
ENDBRANCH   3  13
BRANCH   4  20
HETATM   20  C13 UNL     1      22.732   0.761  53.096  1.00  0.00    -0.033 A 
HETATM   21  C14 UNL     1      21.417   0.985  53.396  1.00  0.00     0.009 A 
HETATM   22  C15 UNL     1      20.857   0.064  54.293  1.00  0.00     0.001 A 
HETATM   23  C16 UNL     1      21.517  -1.001  54.862  1.00  0.00     0.000 A 
HETATM   24  C17 UNL     1      22.840  -1.175  54.523  1.00  0.00     0.001 A 
HETATM   25  C18 UNL     1      23.456  -0.308  53.646  1.00  0.00     0.009 A 
ENDBRANCH   4  20
TORSDOF 4
ENDMDL
MODEL 8
REMARK VINA RESULT:      -8.1      2.677      4.660
REMARK  4 active torsions:
REMARK  status: ('A' for Active; 'I' for Inactive)
REMARK    1  A    between atoms: C7_7  and  C8_8 
REMARK    2  A    between atoms: N2_10  and  C9_11 
REMARK    3  A    between atoms: C10_13  and  O1_14 
REMARK    4  A    between atoms: C12_17  and  C13_18 
ROOT
HETATM    1  C8  UNL     1      22.116   0.755  52.395  1.00  0.00     0.068 C 
HETATM    2  N1  UNL     1      22.377   1.817  51.687  1.00  0.00    -0.173 NA
HETATM    3  N2  UNL     1      23.712   2.221  51.791  1.00  0.00    -0.236 N 
HETATM    4  C12 UNL     1      24.342   0.971  51.959  1.00  0.00     0.151 C 
HETATM    5  C19 UNL     1      23.399   0.388  53.051  1.00  0.00     0.094 C 
ENDROOT
BRANCH   1   6
HETATM    6  C7  UNL     1      20.727   0.280  52.324  1.00  0.00    -0.004 A 
HETATM    7  C2  UNL     1      20.333  -0.430  53.450  1.00  0.00    -0.050 A 
HETATM    8  C1  UNL     1      21.220  -0.647  54.618  1.00  0.00     0.049 C 
HETATM    9  C3  UNL     1      19.030  -0.922  53.406  1.00  0.00     0.007 A 
HETATM   10  C4  UNL     1      18.144  -0.762  52.380  1.00  0.00     0.001 A 
HETATM   11  C5  UNL     1      18.597  -0.046  51.289  1.00  0.00     0.001 A 
HETATM   12  C6  UNL     1      19.874   0.482  51.240  1.00  0.00     0.014 A 
ENDBRANCH   1   6
BRANCH   3  13
HETATM   13  C9  UNL     1      23.886   3.658  51.669  1.00  0.00     0.192 A 
HETATM   14  N3  UNL     1      23.972   4.856  52.129  1.00  0.00    -0.198 NA
HETATM   15  C10 UNL     1      24.191   5.823  51.268  1.00  0.00     0.171 A 
HETATM   16  C11 UNL     1      24.352   5.645  49.782  1.00  0.00     0.111 A 
HETATM   17  S1  UNL     1      24.126   3.758  49.791  1.00  0.00    -0.058 SA
BRANCH  15  18
HETATM   18  O1  UNL     1      24.239   7.032  51.982  1.00  0.00    -0.344 OA
HETATM   19  H8  UNL     1      23.501   7.432  52.501  1.00  0.00     0.219 HD
ENDBRANCH  15  18
ENDBRANCH   3  13
BRANCH   4  20
HETATM   20  C13 UNL     1      25.721   0.911  52.407  1.00  0.00    -0.033 A 
HETATM   21  C14 UNL     1      26.428   2.040  52.712  1.00  0.00     0.009 A 
HETATM   22  C15 UNL     1      27.745   1.809  53.134  1.00  0.00     0.001 A 
HETATM   23  C16 UNL     1      28.342   0.575  53.255  1.00  0.00     0.000 A 
HETATM   24  C17 UNL     1      27.579  -0.526  52.933  1.00  0.00     0.001 A 
HETATM   25  C18 UNL     1      26.276  -0.374  52.511  1.00  0.00     0.009 A 
ENDBRANCH   4  20
TORSDOF 4
ENDMDL
MODEL 9
REMARK VINA RESULT:      -8.1      2.975      6.503
REMARK  4 active torsions:
REMARK  status: ('A' for Active; 'I' for Inactive)
REMARK    1  A    between atoms: C7_7  and  C8_8 
REMARK    2  A    between atoms: N2_10  and  C9_11 
REMARK    3  A    between atoms: C10_13  and  O1_14 
REMARK    4  A    between atoms: C12_17  and  C13_18 
ROOT
HETATM    1  C8  UNL     1      24.873   1.191  53.106  1.00  0.00     0.068 C 
HETATM    2  N1  UNL     1      24.402   2.400  53.233  1.00  0.00    -0.173 NA
HETATM    3  N2  UNL     1      23.081   2.513  52.789  1.00  0.00    -0.236 N 
HETATM    4  C12 UNL     1      22.595   1.230  53.109  1.00  0.00     0.151 C 
HETATM    5  C19 UNL     1      23.766   0.392  52.519  1.00  0.00     0.094 C 
ENDROOT
BRANCH   1   6
HETATM    6  C7  UNL     1      26.259   1.008  53.559  1.00  0.00    -0.004 A 
HETATM    7  C2  UNL     1      27.196   1.549  52.689  1.00  0.00    -0.050 A 
HETATM    8  C1  UNL     1      26.822   2.272  51.449  1.00  0.00     0.049 C 
HETATM    9  C3  UNL     1      28.523   1.369  53.071  1.00  0.00     0.007 A 
HETATM   10  C4  UNL     1      28.957   0.728  54.195  1.00  0.00     0.001 A 
HETATM   11  C5  UNL     1      27.976   0.212  55.020  1.00  0.00     0.001 A 
HETATM   12  C6  UNL     1      26.631   0.341  54.725  1.00  0.00     0.014 A 
ENDBRANCH   1   6
BRANCH   3  13
HETATM   13  C9  UNL     1      22.772   3.823  52.241  1.00  0.00     0.192 A 
HETATM   14  N3  UNL     1      22.309   5.022  52.301  1.00  0.00    -0.198 NA
HETATM   15  C10 UNL     1      22.404   5.763  51.221  1.00  0.00     0.171 A 
HETATM   16  C11 UNL     1      23.012   5.326  49.915  1.00  0.00     0.111 A 
HETATM   17  S1  UNL     1      23.461   3.572  50.494  1.00  0.00    -0.058 SA
BRANCH  15  18
HETATM   18  O1  UNL     1      21.834   7.015  51.508  1.00  0.00    -0.344 OA
HETATM   19  H8  UNL     1      22.212   7.703  52.107  1.00  0.00     0.219 HD
ENDBRANCH  15  18
ENDBRANCH   3  13
BRANCH   4  20
HETATM   20  C13 UNL     1      21.331   0.776  52.559  1.00  0.00    -0.033 A 
HETATM   21  C14 UNL     1      21.037   0.906  51.230  1.00  0.00     0.009 A 
HETATM   22  C15 UNL     1      19.778   0.415  50.858  1.00  0.00     0.001 A 
HETATM   23  C16 UNL     1      18.862  -0.163  51.708  1.00  0.00     0.000 A 
HETATM   24  C17 UNL     1      19.214  -0.266  53.035  1.00  0.00     0.001 A 
HETATM   25  C18 UNL     1      20.437   0.195  53.472  1.00  0.00     0.009 A 
ENDBRANCH   4  20
TORSDOF 4
ENDMDL
