MODEL 1
REMARK VINA RESULT:      -8.9      0.000      0.000
REMARK  4 active torsions:
REMARK  status: ('A' for Active; 'I' for Inactive)
REMARK    1  A    between atoms: O1_2  and  C2_3 
REMARK    2  A    between atoms: C5_6  and  C6_7 
REMARK    3  A    between atoms: N2_9  and  C7_10 
REMARK    4  A    between atoms: C16_21  and  O2_22 
ROOT
HETATM    1  C6  UNL     1      23.905   1.153  52.964  1.00  0.00     0.100 C 
HETATM    2  N1  UNL     1      25.154   0.770  53.114  1.00  0.00    -0.164 NA
HETATM    3  N2  UNL     1      25.669  -0.443  53.657  1.00  0.00    -0.213 N 
HETATM    4  C12 UNL     1      25.014  -0.903  54.879  1.00  0.00     0.237 C 
HETATM    5  N4  UNL     1      23.739  -0.993  55.236  1.00  0.00    -0.241 NA
HETATM    6  C13 UNL     1      22.671  -0.595  54.334  1.00  0.00     0.071 A 
HETATM    7  C14 UNL     1      21.493  -1.275  54.510  1.00  0.00     0.035 A 
HETATM    8  C15 UNL     1      20.450  -1.013  53.616  1.00  0.00     0.039 A 
HETATM    9  C16 UNL     1      20.570  -0.096  52.565  1.00  0.00     0.069 A 
HETATM   10  C18 UNL     1      21.749   0.589  52.381  1.00  0.00     0.053 A 
HETATM   11  C19 UNL     1      22.756   0.310  53.282  1.00  0.00     0.027 A 
ENDROOT
BRANCH   1  12
HETATM   12  C5  UNL     1      23.768   2.452  52.387  1.00  0.00    -0.005 A 
HETATM   13  C4  UNL     1      24.182   2.587  51.052  1.00  0.00     0.016 A 
HETATM   14  C3  UNL     1      24.212   3.762  50.333  1.00  0.00     0.037 A 
HETATM   15  C2  UNL     1      23.810   4.933  50.937  1.00  0.00     0.068 A 
HETATM   16  C21 UNL     1      23.390   4.888  52.247  1.00  0.00     0.037 A 
HETATM   17  C20 UNL     1      23.399   3.670  52.874  1.00  0.00     0.016 A 
BRANCH  15  18
HETATM   18  O1  UNL     1      23.815   6.132  50.277  1.00  0.00    -0.356 OA
HETATM   19  C1  UNL     1      23.973   7.382  50.917  1.00  0.00     0.210 C 
ENDBRANCH  15  18
ENDBRANCH   1  12
BRANCH   3  20
HETATM   20  C7  UNL     1      26.748  -1.179  53.115  1.00  0.00     0.127 C 
HETATM   21  N3  UNL     1      27.594  -0.253  53.489  1.00  0.00    -0.271 NA
HETATM   22  C8  UNL     1      29.014  -0.376  53.226  1.00  0.00     0.178 C 
HETATM   23  C9  UNL     1      29.464  -1.794  53.458  1.00  0.00    -0.009 C 
HETATM   24  C10 UNL     1      28.574  -2.716  53.053  1.00  0.00    -0.022 C 
HETATM   25  C11 UNL     1      27.251  -2.348  52.425  1.00  0.00     0.107 C 
ENDBRANCH   3  20
BRANCH   9  26
HETATM   26  O2  UNL     1      19.538   0.162  51.677  1.00  0.00    -0.356 OA
HETATM   27  C17 UNL     1      18.227  -0.345  51.904  1.00  0.00     0.210 C 
ENDBRANCH   9  26
TORSDOF 4
ENDMDL
MODEL 2
REMARK VINA RESULT:      -8.9      3.070      7.446
REMARK  4 active torsions:
REMARK  status: ('A' for Active; 'I' for Inactive)
REMARK    1  A    between atoms: O1_2  and  C2_3 
REMARK    2  A    between atoms: C5_6  and  C6_7 
REMARK    3  A    between atoms: N2_9  and  C7_10 
REMARK    4  A    between atoms: C16_21  and  O2_22 
ROOT
HETATM    1  C6  UNL     1      25.168   2.359  51.757  1.00  0.00     0.100 C 
HETATM    2  N1  UNL     1      24.021   1.802  52.076  1.00  0.00    -0.164 NA
HETATM    3  N2  UNL     1      22.695   2.206  51.742  1.00  0.00    -0.213 N 
HETATM    4  C12 UNL     1      22.434   3.638  51.866  1.00  0.00     0.237 C 
HETATM    5  N4  UNL     1      23.122   4.712  51.497  1.00  0.00    -0.241 NA
HETATM    6  C13 UNL     1      24.404   4.595  50.823  1.00  0.00     0.071 A 
HETATM    7  C14 UNL     1      24.697   5.628  49.971  1.00  0.00     0.035 A 
HETATM    8  C15 UNL     1      25.871   5.538  49.215  1.00  0.00     0.039 A 
HETATM    9  C16 UNL     1      26.738   4.441  49.299  1.00  0.00     0.069 A 
HETATM   10  C18 UNL     1      26.451   3.400  50.152  1.00  0.00     0.053 A 
HETATM   11  C19 UNL     1      25.288   3.523  50.884  1.00  0.00     0.027 A 
ENDROOT
BRANCH   1  12
HETATM   12  C5  UNL     1      26.305   1.673  52.283  1.00  0.00    -0.005 A 
HETATM   13  C4  UNL     1      26.326   0.280  52.115  1.00  0.00     0.016 A 
HETATM   14  C3  UNL     1      27.282  -0.578  52.614  1.00  0.00     0.037 A 
HETATM   15  C2  UNL     1      28.328  -0.067  53.349  1.00  0.00     0.068 A 
HETATM   16  C21 UNL     1      28.382   1.291  53.562  1.00  0.00     0.037 A 
HETATM   17  C20 UNL     1      27.382   2.058  53.025  1.00  0.00     0.016 A 
BRANCH  15  18
HETATM   18  O1  UNL     1      29.310  -0.866  53.870  1.00  0.00    -0.356 OA
HETATM   19  C1  UNL     1      29.637  -2.143  53.362  1.00  0.00     0.210 C 
ENDBRANCH  15  18
ENDBRANCH   1  12
BRANCH   3  20
HETATM   20  C7  UNL     1      21.659   1.332  51.341  1.00  0.00     0.127 C 
HETATM   21  N3  UNL     1      21.521   0.899  52.569  1.00  0.00    -0.271 NA
HETATM   22  C8  UNL     1      20.537  -0.109  52.909  1.00  0.00     0.178 C 
HETATM   23  C9  UNL     1      19.252   0.149  52.168  1.00  0.00    -0.009 C 
HETATM   24  C10 UNL     1      19.433   0.583  50.908  1.00  0.00    -0.022 C 
HETATM   25  C11 UNL     1      20.804   0.787  50.308  1.00  0.00     0.107 C 
ENDBRANCH   3  20
BRANCH   9  26
HETATM   26  O2  UNL     1      27.900   4.349  48.550  1.00  0.00    -0.356 OA
HETATM   27  C17 UNL     1      28.681   5.503  48.258  1.00  0.00     0.210 C 
ENDBRANCH   9  26
TORSDOF 4
ENDMDL
MODEL 3
REMARK VINA RESULT:      -8.8      2.898      6.401
REMARK  4 active torsions:
REMARK  status: ('A' for Active; 'I' for Inactive)
REMARK    1  A    between atoms: O1_2  and  C2_3 
REMARK    2  A    between atoms: C5_6  and  C6_7 
REMARK    3  A    between atoms: N2_9  and  C7_10 
REMARK    4  A    between atoms: C16_21  and  O2_22 
ROOT
HETATM    1  C6  UNL     1      24.637   1.693  51.518  1.00  0.00     0.100 C 
HETATM    2  N1  UNL     1      25.062   2.698  50.784  1.00  0.00    -0.164 NA
HETATM    3  N2  UNL     1      24.329   3.560  49.917  1.00  0.00    -0.213 N 
HETATM    4  C12 UNL     1      23.353   2.892  49.060  1.00  0.00     0.237 C 
HETATM    5  N4  UNL     1      22.450   1.946  49.292  1.00  0.00    -0.241 NA
HETATM    6  C13 UNL     1      22.283   1.369  50.616  1.00  0.00     0.071 A 
HETATM    7  C14 UNL     1      21.014   0.929  50.889  1.00  0.00     0.035 A 
HETATM    8  C15 UNL     1      20.754   0.448  52.177  1.00  0.00     0.039 A 
HETATM    9  C16 UNL     1      21.734   0.407  53.178  1.00  0.00     0.069 A 
HETATM   10  C18 UNL     1      23.009   0.848  52.911  1.00  0.00     0.053 A 
HETATM   11  C19 UNL     1      23.232   1.312  51.631  1.00  0.00     0.027 A 
ENDROOT
BRANCH   1  12
HETATM   12  C5  UNL     1      25.671   1.046  52.260  1.00  0.00    -0.005 A 
HETATM   13  C4  UNL     1      26.510   1.879  53.016  1.00  0.00     0.016 A 
HETATM   14  C3  UNL     1      27.613   1.473  53.736  1.00  0.00     0.037 A 
HETATM   15  C2  UNL     1      27.959   0.140  53.743  1.00  0.00     0.068 A 
HETATM   16  C21 UNL     1      27.188  -0.745  53.026  1.00  0.00     0.037 A 
HETATM   17  C20 UNL     1      26.113  -0.241  52.342  1.00  0.00     0.016 A 
BRANCH  15  18
HETATM   18  O1  UNL     1      29.041  -0.327  54.439  1.00  0.00    -0.356 OA
HETATM   19  C1  UNL     1      30.168  -0.928  53.832  1.00  0.00     0.210 C 
ENDBRANCH  15  18
ENDBRANCH   1  12
BRANCH   3  20
HETATM   20  C7  UNL     1      24.505   4.960  49.828  1.00  0.00     0.127 C 
HETATM   21  N3  UNL     1      23.413   5.162  50.521  1.00  0.00    -0.271 NA
HETATM   22  C8  UNL     1      22.953   6.500  50.833  1.00  0.00     0.178 C 
HETATM   23  C9  UNL     1      24.120   7.379  51.196  1.00  0.00    -0.009 C 
HETATM   24  C10 UNL     1      25.219   7.150  50.457  1.00  0.00    -0.022 C 
HETATM   25  C11 UNL     1      25.263   6.104  49.369  1.00  0.00     0.107 C 
ENDBRANCH   3  20
BRANCH   9  26
HETATM   26  O2  UNL     1      21.477  -0.067  54.455  1.00  0.00    -0.356 OA
HETATM   27  C17 UNL     1      22.139  -1.223  54.958  1.00  0.00     0.210 C 
ENDBRANCH   9  26
TORSDOF 4
ENDMDL
MODEL 4
REMARK VINA RESULT:      -8.6      2.815      4.060
REMARK  4 active torsions:
REMARK  status: ('A' for Active; 'I' for Inactive)
REMARK    1  A    between atoms: O1_2  and  C2_3 
REMARK    2  A    between atoms: C5_6  and  C6_7 
REMARK    3  A    between atoms: N2_9  and  C7_10 
REMARK    4  A    between atoms: C16_21  and  O2_22 
ROOT
HETATM    1  C6  UNL     1      25.195   3.236  50.566  1.00  0.00     0.100 C 
HETATM    2  N1  UNL     1      26.029   2.731  51.448  1.00  0.00    -0.164 NA
HETATM    3  N2  UNL     1      25.876   1.589  52.287  1.00  0.00    -0.213 N 
HETATM    4  C12 UNL     1      24.571   1.463  52.931  1.00  0.00     0.237 C 
HETATM    5  N4  UNL     1      23.330   1.610  52.483  1.00  0.00    -0.241 NA
HETATM    6  C13 UNL     1      23.062   1.960  51.097  1.00  0.00     0.071 A 
HETATM    7  C14 UNL     1      21.872   1.486  50.609  1.00  0.00     0.035 A 
HETATM    8  C15 UNL     1      21.590   1.703  49.256  1.00  0.00     0.039 A 
HETATM    9  C16 UNL     1      22.472   2.376  48.401  1.00  0.00     0.069 A 
HETATM   10  C18 UNL     1      23.668   2.855  48.884  1.00  0.00     0.053 A 
HETATM   11  C19 UNL     1      23.913   2.627  50.222  1.00  0.00     0.027 A 
ENDROOT
BRANCH   1  12
HETATM   12  C5  UNL     1      25.689   4.406  49.912  1.00  0.00    -0.005 A 
HETATM   13  C4  UNL     1      26.882   4.258  49.188  1.00  0.00     0.016 A 
HETATM   14  C3  UNL     1      27.571   5.268  48.553  1.00  0.00     0.037 A 
HETATM   15  C2  UNL     1      27.082   6.555  48.609  1.00  0.00     0.068 A 
HETATM   16  C21 UNL     1      25.916   6.787  49.301  1.00  0.00     0.037 A 
HETATM   17  C20 UNL     1      25.307   5.714  49.898  1.00  0.00     0.016 A 
BRANCH  15  18
HETATM   18  O1  UNL     1      27.717   7.602  47.999  1.00  0.00    -0.356 OA
HETATM   19  C1  UNL     1      27.281   8.192  46.790  1.00  0.00     0.210 C 
ENDBRANCH  15  18
ENDBRANCH   1  12
BRANCH   3  20
HETATM   20  C7  UNL     1      26.883   0.629  52.540  1.00  0.00     0.127 C 
HETATM   21  N3  UNL     1      27.682   1.558  53.001  1.00  0.00    -0.271 NA
HETATM   22  C8  UNL     1      29.012   1.241  53.481  1.00  0.00     0.178 C 
HETATM   23  C9  UNL     1      28.986  -0.039  54.273  1.00  0.00    -0.009 C 
HETATM   24  C10 UNL     1      28.163  -0.972  53.764  1.00  0.00    -0.022 C 
HETATM   25  C11 UNL     1      27.347  -0.742  52.515  1.00  0.00     0.107 C 
ENDBRANCH   3  20
BRANCH   9  26
HETATM   26  O2  UNL     1      22.194   2.589  47.060  1.00  0.00    -0.356 OA
HETATM   27  C17 UNL     1      21.930   3.897  46.562  1.00  0.00     0.210 C 
ENDBRANCH   9  26
TORSDOF 4
ENDMDL
MODEL 5
REMARK VINA RESULT:      -8.5      1.576      5.350
REMARK  4 active torsions:
REMARK  status: ('A' for Active; 'I' for Inactive)
REMARK    1  A    between atoms: O1_2  and  C2_3 
REMARK    2  A    between atoms: C5_6  and  C6_7 
REMARK    3  A    between atoms: N2_9  and  C7_10 
REMARK    4  A    between atoms: C16_21  and  O2_22 
ROOT
HETATM    1  C6  UNL     1      23.638   1.409  52.061  1.00  0.00     0.100 C 
HETATM    2  N1  UNL     1      24.543   0.549  52.474  1.00  0.00    -0.164 NA
HETATM    3  N2  UNL     1      25.964   0.656  52.465  1.00  0.00    -0.213 N 
HETATM    4  C12 UNL     1      26.537   1.201  51.237  1.00  0.00     0.237 C 
HETATM    5  N4  UNL     1      26.206   2.234  50.471  1.00  0.00    -0.241 NA
HETATM    6  C13 UNL     1      25.073   3.084  50.797  1.00  0.00     0.071 A 
HETATM    7  C14 UNL     1      25.193   4.381  50.371  1.00  0.00     0.035 A 
HETATM    8  C15 UNL     1      24.184   5.281  50.731  1.00  0.00     0.039 A 
HETATM    9  C16 UNL     1      23.077   4.904  51.501  1.00  0.00     0.069 A 
HETATM   10  C18 UNL     1      22.949   3.603  51.932  1.00  0.00     0.053 A 
HETATM   11  C19 UNL     1      23.959   2.742  51.556  1.00  0.00     0.027 A 
ENDROOT
BRANCH   1  12
HETATM   12  C5  UNL     1      22.295   0.950  52.218  1.00  0.00    -0.005 A 
HETATM   13  C4  UNL     1      21.889   0.650  53.527  1.00  0.00     0.016 A 
HETATM   14  C3  UNL     1      20.671   0.120  53.892  1.00  0.00     0.037 A 
HETATM   15  C2  UNL     1      19.737  -0.156  52.917  1.00  0.00     0.068 A 
HETATM   16  C21 UNL     1      20.057   0.108  51.605  1.00  0.00     0.037 A 
HETATM   17  C20 UNL     1      21.295   0.634  51.347  1.00  0.00     0.016 A 
BRANCH  15  18
HETATM   18  O1  UNL     1      18.509  -0.681  53.214  1.00  0.00    -0.356 OA
HETATM   19  C1  UNL     1      18.281  -2.052  53.472  1.00  0.00     0.210 C 
ENDBRANCH  15  18
ENDBRANCH   1  12
BRANCH   3  20
HETATM   20  C7  UNL     1      26.813   0.258  53.524  1.00  0.00     0.127 C 
HETATM   21  N3  UNL     1      27.487  -0.522  52.716  1.00  0.00    -0.271 NA
HETATM   22  C8  UNL     1      28.609  -1.309  53.188  1.00  0.00     0.178 C 
HETATM   23  C9  UNL     1      29.440  -0.503  54.151  1.00  0.00    -0.009 C 
HETATM   24  C10 UNL     1      28.713   0.277  54.969  1.00  0.00    -0.022 C 
HETATM   25  C11 UNL     1      27.205   0.329  54.915  1.00  0.00     0.107 C 
ENDBRANCH   3  20
BRANCH   9  26
HETATM   26  O2  UNL     1      22.078   5.795  51.860  1.00  0.00    -0.356 OA
HETATM   27  C17 UNL     1      21.589   6.763  50.938  1.00  0.00     0.210 C 
ENDBRANCH   9  26
TORSDOF 4
ENDMDL
MODEL 6
REMARK VINA RESULT:      -8.2      3.065      4.490
REMARK  4 active torsions:
REMARK  status: ('A' for Active; 'I' for Inactive)
REMARK    1  A    between atoms: O1_2  and  C2_3 
REMARK    2  A    between atoms: C5_6  and  C6_7 
REMARK    3  A    between atoms: N2_9  and  C7_10 
REMARK    4  A    between atoms: C16_21  and  O2_22 
ROOT
HETATM    1  C6  UNL     1      25.103   3.566  50.519  1.00  0.00     0.100 C 
HETATM    2  N1  UNL     1      25.800   3.146  51.552  1.00  0.00    -0.164 NA
HETATM    3  N2  UNL     1      25.447   2.201  52.558  1.00  0.00    -0.213 N 
HETATM    4  C12 UNL     1      24.090   2.333  53.084  1.00  0.00     0.237 C 
HETATM    5  N4  UNL     1      22.914   2.524  52.499  1.00  0.00    -0.241 NA
HETATM    6  C13 UNL     1      22.798   2.640  51.054  1.00  0.00     0.071 A 
HETATM    7  C14 UNL     1      21.601   2.212  50.543  1.00  0.00     0.035 A 
HETATM    8  C15 UNL     1      21.451   2.205  49.152  1.00  0.00     0.039 A 
HETATM    9  C16 UNL     1      22.471   2.613  48.282  1.00  0.00     0.069 A 
HETATM   10  C18 UNL     1      23.675   3.044  48.789  1.00  0.00     0.053 A 
HETATM   11  C19 UNL     1      23.787   3.042  50.164  1.00  0.00     0.027 A 
ENDROOT
BRANCH   1  12
HETATM   12  C5  UNL     1      25.784   4.537  49.723  1.00  0.00    -0.005 A 
HETATM   13  C4  UNL     1      27.043   4.164  49.227  1.00  0.00     0.016 A 
HETATM   14  C3  UNL     1      27.898   4.972  48.510  1.00  0.00     0.037 A 
HETATM   15  C2  UNL     1      27.526   6.269  48.233  1.00  0.00     0.068 A 
HETATM   16  C21 UNL     1      26.306   6.716  48.685  1.00  0.00     0.037 A 
HETATM   17  C20 UNL     1      25.529   5.834  49.390  1.00  0.00     0.016 A 
BRANCH  15  18
HETATM   18  O1  UNL     1      28.329   7.121  47.525  1.00  0.00    -0.356 OA
HETATM   19  C1  UNL     1      29.621   7.514  47.943  1.00  0.00     0.210 C 
ENDBRANCH  15  18
ENDBRANCH   1  12
BRANCH   3  20
HETATM   20  C7  UNL     1      26.308   1.203  53.071  1.00  0.00     0.127 C 
HETATM   21  N3  UNL     1      25.417   0.277  52.821  1.00  0.00    -0.271 NA
HETATM   22  C8  UNL     1      25.668  -1.116  53.129  1.00  0.00     0.178 C 
HETATM   23  C9  UNL     1      27.088  -1.477  52.780  1.00  0.00    -0.009 C 
HETATM   24  C10 UNL     1      27.975  -0.506  53.059  1.00  0.00    -0.022 C 
HETATM   25  C11 UNL     1      27.569   0.816  53.665  1.00  0.00     0.107 C 
ENDBRANCH   3  20
BRANCH   9  26
HETATM   26  O2  UNL     1      22.325   2.604  46.904  1.00  0.00    -0.356 OA
HETATM   27  C17 UNL     1      21.622   3.643  46.232  1.00  0.00     0.210 C 
ENDBRANCH   9  26
TORSDOF 4
ENDMDL
MODEL 7
REMARK VINA RESULT:      -7.7      3.451      5.832
REMARK  4 active torsions:
REMARK  status: ('A' for Active; 'I' for Inactive)
REMARK    1  A    between atoms: O1_2  and  C2_3 
REMARK    2  A    between atoms: C5_6  and  C6_7 
REMARK    3  A    between atoms: N2_9  and  C7_10 
REMARK    4  A    between atoms: C16_21  and  O2_22 
ROOT
HETATM    1  C6  UNL     1      23.151   3.836  50.146  1.00  0.00     0.100 C 
HETATM    2  N1  UNL     1      23.199   3.020  51.176  1.00  0.00    -0.164 NA
HETATM    3  N2  UNL     1      22.132   2.439  51.920  1.00  0.00    -0.213 N 
HETATM    4  C12 UNL     1      21.038   3.349  52.248  1.00  0.00     0.237 C 
HETATM    5  N4  UNL     1      20.379   4.256  51.537  1.00  0.00    -0.241 NA
HETATM    6  C13 UNL     1      20.698   4.499  50.140  1.00  0.00     0.071 A 
HETATM    7  C14 UNL     1      19.640   4.928  49.380  1.00  0.00     0.035 A 
HETATM    8  C15 UNL     1      19.848   5.091  48.006  1.00  0.00     0.039 A 
HETATM    9  C16 UNL     1      21.082   4.832  47.395  1.00  0.00     0.069 A 
HETATM   10  C18 UNL     1      22.148   4.401  48.151  1.00  0.00     0.053 A 
HETATM   11  C19 UNL     1      21.909   4.254  49.502  1.00  0.00     0.027 A 
ENDROOT
BRANCH   1  12
HETATM   12  C5  UNL     1      24.437   4.224  49.660  1.00  0.00    -0.005 A 
HETATM   13  C4  UNL     1      25.441   3.245  49.706  1.00  0.00     0.016 A 
HETATM   14  C3  UNL     1      26.763   3.430  49.365  1.00  0.00     0.037 A 
HETATM   15  C2  UNL     1      27.181   4.671  48.935  1.00  0.00     0.068 A 
HETATM   16  C21 UNL     1      26.258   5.688  48.862  1.00  0.00     0.037 A 
HETATM   17  C20 UNL     1      24.968   5.401  49.225  1.00  0.00     0.016 A 
BRANCH  15  18
HETATM   18  O1  UNL     1      28.479   4.919  48.581  1.00  0.00    -0.356 OA
HETATM   19  C1  UNL     1      28.935   6.159  48.079  1.00  0.00     0.210 C 
ENDBRANCH  15  18
ENDBRANCH   1  12
BRANCH   3  20
HETATM   20  C7  UNL     1      22.089   1.096  52.362  1.00  0.00     0.127 C 
HETATM   21  N3  UNL     1      23.365   1.129  52.651  1.00  0.00    -0.271 NA
HETATM   22  C8  UNL     1      24.046  -0.027  53.199  1.00  0.00     0.178 C 
HETATM   23  C9  UNL     1      23.171  -0.710  54.217  1.00  0.00    -0.009 C 
HETATM   24  C10 UNL     1      21.870  -0.732  53.881  1.00  0.00    -0.022 C 
HETATM   25  C11 UNL     1      21.350  -0.125  52.600  1.00  0.00     0.107 C 
ENDBRANCH   3  20
BRANCH   9  26
HETATM   26  O2  UNL     1      21.289   4.991  46.034  1.00  0.00    -0.356 OA
HETATM   27  C17 UNL     1      21.700   3.899  45.219  1.00  0.00     0.210 C 
ENDBRANCH   9  26
TORSDOF 4
ENDMDL
MODEL 8
REMARK VINA RESULT:      -7.7      8.760     12.280
REMARK  4 active torsions:
REMARK  status: ('A' for Active; 'I' for Inactive)
REMARK    1  A    between atoms: O1_2  and  C2_3 
REMARK    2  A    between atoms: C5_6  and  C6_7 
REMARK    3  A    between atoms: N2_9  and  C7_10 
REMARK    4  A    between atoms: C16_21  and  O2_22 
ROOT
HETATM    1  C6  UNL     1      30.983   7.366  46.796  1.00  0.00     0.100 C 
HETATM    2  N1  UNL     1      31.644   6.331  46.327  1.00  0.00    -0.164 NA
HETATM    3  N2  UNL     1      32.927   6.282  45.709  1.00  0.00    -0.213 N 
HETATM    4  C12 UNL     1      33.183   7.333  44.727  1.00  0.00     0.237 C 
HETATM    5  N4  UNL     1      32.959   8.642  44.732  1.00  0.00    -0.241 NA
HETATM    6  C13 UNL     1      32.349   9.301  45.876  1.00  0.00     0.071 A 
HETATM    7  C14 UNL     1      32.727  10.607  46.050  1.00  0.00     0.035 A 
HETATM    8  C15 UNL     1      32.255  11.276  47.184  1.00  0.00     0.039 A 
HETATM    9  C16 UNL     1      31.424  10.663  48.130  1.00  0.00     0.069 A 
HETATM   10  C18 UNL     1      31.041   9.352  47.962  1.00  0.00     0.053 A 
HETATM   11  C19 UNL     1      31.521   8.723  46.832  1.00  0.00     0.027 A 
ENDROOT
BRANCH   1  12
HETATM   12  C5  UNL     1      29.706   7.032  47.342  1.00  0.00    -0.005 A 
HETATM   13  C4  UNL     1      29.608   5.786  47.980  1.00  0.00     0.016 A 
HETATM   14  C3  UNL     1      28.457   5.235  48.501  1.00  0.00     0.037 A 
HETATM   15  C2  UNL     1      27.274   5.935  48.410  1.00  0.00     0.068 A 
HETATM   16  C21 UNL     1      27.283   7.167  47.797  1.00  0.00     0.037 A 
HETATM   17  C20 UNL     1      28.479   7.625  47.311  1.00  0.00     0.016 A 
BRANCH  15  18
HETATM   18  O1  UNL     1      26.098   5.444  48.908  1.00  0.00    -0.356 OA
HETATM   19  C1  UNL     1      25.387   6.038  49.976  1.00  0.00     0.210 C 
ENDBRANCH  15  18
ENDBRANCH   1  12
BRANCH   3  20
HETATM   20  C7  UNL     1      33.912   5.301  45.963  1.00  0.00     0.127 C 
HETATM   21  N3  UNL     1      33.934   5.623  47.232  1.00  0.00    -0.271 NA
HETATM   22  C8  UNL     1      34.808   4.946  48.169  1.00  0.00     0.178 C 
HETATM   23  C9  UNL     1      34.836   3.469  47.878  1.00  0.00    -0.009 C 
HETATM   24  C10 UNL     1      34.823   3.177  46.566  1.00  0.00    -0.022 C 
HETATM   25  C11 UNL     1      34.782   4.243  45.497  1.00  0.00     0.107 C 
ENDBRANCH   3  20
BRANCH   9  26
HETATM   26  O2  UNL     1      30.957  11.324  49.254  1.00  0.00    -0.356 OA
HETATM   27  C17 UNL     1      30.371  12.618  49.157  1.00  0.00     0.210 C 
ENDBRANCH   9  26
TORSDOF 4
ENDMDL
MODEL 9
REMARK VINA RESULT:      -7.6      2.875      7.239
REMARK  4 active torsions:
REMARK  status: ('A' for Active; 'I' for Inactive)
REMARK    1  A    between atoms: O1_2  and  C2_3 
REMARK    2  A    between atoms: C5_6  and  C6_7 
REMARK    3  A    between atoms: N2_9  and  C7_10 
REMARK    4  A    between atoms: C16_21  and  O2_22 
ROOT
HETATM    1  C6  UNL     1      22.487   1.449  52.635  1.00  0.00     0.100 C 
HETATM    2  N1  UNL     1      21.955   2.370  51.862  1.00  0.00    -0.164 NA
HETATM    3  N2  UNL     1      22.543   3.553  51.327  1.00  0.00    -0.213 N 
HETATM    4  C12 UNL     1      23.362   4.317  52.265  1.00  0.00     0.237 C 
HETATM    5  N4  UNL     1      24.285   3.959  53.150  1.00  0.00    -0.241 NA
HETATM    6  C13 UNL     1      24.662   2.567  53.330  1.00  0.00     0.071 A 
HETATM    7  C14 UNL     1      25.955   2.375  53.740  1.00  0.00     0.035 A 
HETATM    8  C15 UNL     1      26.418   1.058  53.843  1.00  0.00     0.039 A 
HETATM    9  C16 UNL     1      25.614  -0.049  53.542  1.00  0.00     0.069 A 
HETATM   10  C18 UNL     1      24.314   0.137  53.129  1.00  0.00     0.053 A 
HETATM   11  C19 UNL     1      23.890   1.446  53.042  1.00  0.00     0.027 A 
ENDROOT
BRANCH   1  12
HETATM   12  C5  UNL     1      21.584   0.401  52.986  1.00  0.00    -0.005 A 
HETATM   13  C4  UNL     1      20.335   0.415  52.345  1.00  0.00     0.016 A 
HETATM   14  C3  UNL     1      19.292  -0.451  52.594  1.00  0.00     0.037 A 
HETATM   15  C2  UNL     1      19.443  -1.433  53.548  1.00  0.00     0.068 A 
HETATM   16  C21 UNL     1      20.638  -1.515  54.224  1.00  0.00     0.037 A 
HETATM   17  C20 UNL     1      21.613  -0.606  53.904  1.00  0.00     0.016 A 
BRANCH  15  18
HETATM   18  O1  UNL     1      18.447  -2.323  53.840  1.00  0.00    -0.356 OA
HETATM   19  C1  UNL     1      17.175  -2.312  53.222  1.00  0.00     0.210 C 
ENDBRANCH  15  18
ENDBRANCH   1  12
BRANCH   3  20
HETATM   20  C7  UNL     1      22.363   4.021  50.005  1.00  0.00     0.127 C 
HETATM   21  N3  UNL     1      21.997   5.197  50.449  1.00  0.00    -0.271 NA
HETATM   22  C8  UNL     1      21.633   6.267  49.542  1.00  0.00     0.178 C 
HETATM   23  C9  UNL     1      22.566   6.285  48.360  1.00  0.00    -0.009 C 
HETATM   24  C10 UNL     1      22.912   5.061  47.927  1.00  0.00    -0.022 C 
HETATM   25  C11 UNL     1      22.404   3.795  48.576  1.00  0.00     0.107 C 
ENDBRANCH   3  20
BRANCH   9  26
HETATM   26  O2  UNL     1      26.071  -1.353  53.641  1.00  0.00    -0.356 OA
HETATM   27  C17 UNL     1      26.874  -1.931  52.618  1.00  0.00     0.210 C 
ENDBRANCH   9  26
TORSDOF 4
ENDMDL
