MODEL 1
REMARK VINA RESULT:      -8.0      0.000      0.000
REMARK  6 active torsions:
REMARK  status: ('A' for Active; 'I' for Inactive)
REMARK    1  A    between atoms: O1_1  and  C1_2 
REMARK    2  A    between atoms: C1_2  and  C7_9 
REMARK    3  A    between atoms: C2_3  and  C3_4 
REMARK    4  A    between atoms: C7_9  and  C8_10 
REMARK    5  A    between atoms: C8_10  and  N1_11 
REMARK    6  A    between atoms: C12_15  and  N2_16 
ROOT
HETATM    1  N1  UNL     1      24.583   3.918  50.040  1.00  0.00    -0.351 N 
HETATM    2  C9  UNL     1      23.690   3.148  49.251  1.00  0.00     0.092 C 
HETATM    3  C10 UNL     1      22.799   2.176  49.296  1.00  0.00     0.021 C 
HETATM    4  C11 UNL     1      22.402   1.441  50.535  1.00  0.00     0.050 C 
HETATM    5  C12 UNL     1      22.505   1.233  51.864  1.00  0.00     0.104 C 
HETATM    6  N3  UNL     1      23.308   1.852  52.863  1.00  0.00    -0.358 N 
HETATM    7  C18 UNL     1      23.392   3.322  52.862  1.00  0.00     0.273 C 
HETATM    8  N4  UNL     1      23.918   3.792  51.666  1.00  0.00    -0.265 NA
HETATM    9  C19 UNL     1      24.242   4.855  51.123  1.00  0.00     0.205 C 
HETATM   10  H18 UNL     1      23.831   1.338  53.589  1.00  0.00     0.162 HD
ENDROOT
BRANCH   1  11
HETATM   11  C8  UNL     1      25.941   3.646  49.719  1.00  0.00     0.135 C 
BRANCH  11  12
HETATM   12  C7  UNL     1      26.466   2.282  49.942  1.00  0.00     0.084 C 
BRANCH  12  13
HETATM   13  C1  UNL     1      26.840   2.023  51.356  1.00  0.00     0.044 C 
HETATM   14  C2  UNL     1      26.884   1.191  52.447  1.00  0.00     0.035 C 
BRANCH  13  15
HETATM   15  O1  UNL     1      27.449   3.265  51.748  1.00  0.00    -0.365 OA
HETATM   16  H1  UNL     1      27.309   4.030  51.076  1.00  0.00     0.217 HD
ENDBRANCH  13  15
BRANCH  14  17
HETATM   17  C3  UNL     1      26.323  -0.101  52.260  1.00  0.00     0.039 C 
HETATM   18  C4  UNL     1      27.020  -1.215  52.565  1.00  0.00     0.068 A 
HETATM   19  C5  UNL     1      28.348  -1.119  53.096  1.00  0.00     0.045 A 
HETATM   20  O2  UNL     1      27.248  -2.572  52.686  1.00  0.00    -0.339 OA
HETATM   21  C6  UNL     1      28.537  -2.430  53.202  1.00  0.00     0.187 A 
ENDBRANCH  14  17
ENDBRANCH  12  13
ENDBRANCH  11  12
ENDBRANCH   1  11
BRANCH   5  22
HETATM   22  N2  UNL     1      21.725   0.226  52.550  1.00  0.00    -0.339 N 
HETATM   23  C13 UNL     1      20.325  -0.082  52.505  1.00  0.00     0.112 C 
HETATM   24  C14 UNL     1      19.840  -0.919  53.422  1.00  0.00     0.026 C 
HETATM   25 BR1  UNL     1      17.990  -1.177  53.193  1.00  0.00    -0.050 Br
HETATM   26  C15 UNL     1      20.708  -1.573  54.401  1.00  0.00     0.018 C 
HETATM   27  C16 UNL     1      22.011  -1.339  54.375  1.00  0.00    -0.005 C 
HETATM   28  C17 UNL     1      22.669  -0.451  53.394  1.00  0.00     0.157 C 
ENDBRANCH   5  22
TORSDOF 6
ENDMDL
MODEL 2
REMARK VINA RESULT:      -7.7      4.385      6.631
REMARK  6 active torsions:
REMARK  status: ('A' for Active; 'I' for Inactive)
REMARK    1  A    between atoms: O1_1  and  C1_2 
REMARK    2  A    between atoms: C1_2  and  C7_9 
REMARK    3  A    between atoms: C2_3  and  C3_4 
REMARK    4  A    between atoms: C7_9  and  C8_10 
REMARK    5  A    between atoms: C8_10  and  N1_11 
REMARK    6  A    between atoms: C12_15  and  N2_16 
ROOT
HETATM    1  N1  UNL     1      25.481   6.577  49.430  1.00  0.00    -0.351 N 
HETATM    2  C9  UNL     1      26.390   5.599  48.951  1.00  0.00     0.092 C 
HETATM    3  C10 UNL     1      26.795   4.353  49.112  1.00  0.00     0.021 C 
HETATM    4  C11 UNL     1      26.242   3.402  50.123  1.00  0.00     0.050 C 
HETATM    5  C12 UNL     1      25.386   3.117  51.127  1.00  0.00     0.104 C 
HETATM    6  N3  UNL     1      24.396   3.902  51.783  1.00  0.00    -0.358 N 
HETATM    7  C18 UNL     1      23.492   4.707  50.944  1.00  0.00     0.273 C 
HETATM    8  N4  UNL     1      24.203   5.626  50.183  1.00  0.00    -0.265 NA
HETATM    9  C19 UNL     1      24.011   6.539  49.371  1.00  0.00     0.205 C 
HETATM   10  H18 UNL     1      24.268   3.939  52.806  1.00  0.00     0.162 HD
ENDROOT
BRANCH   1  11
HETATM   11  C8  UNL     1      26.152   7.650  50.078  1.00  0.00     0.135 C 
BRANCH  11  12
HETATM   12  C7  UNL     1      26.729   8.731  49.252  1.00  0.00     0.084 C 
BRANCH  12  13
HETATM   13  C1  UNL     1      28.004   9.266  49.795  1.00  0.00     0.044 C 
HETATM   14  C2  UNL     1      29.338   9.554  49.648  1.00  0.00     0.035 C 
BRANCH  13  15
HETATM   15  O1  UNL     1      27.629   9.672  51.122  1.00  0.00    -0.365 OA
HETATM   16  H1  UNL     1      27.267   8.908  51.706  1.00  0.00     0.217 HD
ENDBRANCH  13  15
BRANCH  14  17
HETATM   17  C3  UNL     1      29.904   9.223  48.387  1.00  0.00     0.039 C 
HETATM   18  C4  UNL     1      31.028   8.483  48.299  1.00  0.00     0.068 A 
HETATM   19  C5  UNL     1      31.677   8.005  49.484  1.00  0.00     0.045 A 
HETATM   20  O2  UNL     1      32.065   7.825  47.665  1.00  0.00    -0.339 OA
HETATM   21  C6  UNL     1      32.661   7.380  48.846  1.00  0.00     0.187 A 
ENDBRANCH  14  17
ENDBRANCH  12  13
ENDBRANCH  11  12
ENDBRANCH   1  11
BRANCH   5  22
HETATM   22  N2  UNL     1      25.349   1.819  51.764  1.00  0.00    -0.339 N 
HETATM   23  C13 UNL     1      24.297   1.132  52.455  1.00  0.00     0.112 C 
HETATM   24  C14 UNL     1      24.614   0.036  53.144  1.00  0.00     0.026 C 
HETATM   25 BR1  UNL     1      23.098  -0.699  53.982  1.00  0.00    -0.050 Br
HETATM   26  C15 UNL     1      25.972  -0.508  53.141  1.00  0.00     0.018 C 
HETATM   27  C16 UNL     1      26.912   0.093  52.429  1.00  0.00    -0.005 C 
HETATM   28  C17 UNL     1      26.679   1.300  51.607  1.00  0.00     0.157 C 
ENDBRANCH   5  22
TORSDOF 6
ENDMDL
MODEL 3
REMARK VINA RESULT:      -7.7      3.275      6.098
REMARK  6 active torsions:
REMARK  status: ('A' for Active; 'I' for Inactive)
REMARK    1  A    between atoms: O1_1  and  C1_2 
REMARK    2  A    between atoms: C1_2  and  C7_9 
REMARK    3  A    between atoms: C2_3  and  C3_4 
REMARK    4  A    between atoms: C7_9  and  C8_10 
REMARK    5  A    between atoms: C8_10  and  N1_11 
REMARK    6  A    between atoms: C12_15  and  N2_16 
ROOT
HETATM    1  N1  UNL     1      19.689   1.192  51.741  1.00  0.00    -0.351 N 
HETATM    2  C9  UNL     1      19.962   2.441  52.356  1.00  0.00     0.092 C 
HETATM    3  C10 UNL     1      20.820   3.443  52.393  1.00  0.00     0.021 C 
HETATM    4  C11 UNL     1      22.062   3.532  51.567  1.00  0.00     0.050 C 
HETATM    5  C12 UNL     1      22.896   3.024  50.637  1.00  0.00     0.104 C 
HETATM    6  N3  UNL     1      22.856   1.815  49.885  1.00  0.00    -0.358 N 
HETATM    7  C18 UNL     1      21.575   1.434  49.267  1.00  0.00     0.273 C 
HETATM    8  N4  UNL     1      20.587   1.267  50.227  1.00  0.00    -0.265 NA
HETATM    9  C19 UNL     1      19.398   0.937  50.321  1.00  0.00     0.205 C 
HETATM   10  H18 UNL     1      23.667   1.194  49.742  1.00  0.00     0.162 HD
ENDROOT
BRANCH   1  11
HETATM   11  C8  UNL     1      19.787   0.115  52.665  1.00  0.00     0.135 C 
BRANCH  11  12
HETATM   12  C7  UNL     1      20.437   0.355  53.971  1.00  0.00     0.084 C 
BRANCH  12  13
HETATM   13  C1  UNL     1      21.618  -0.515  54.205  1.00  0.00     0.044 C 
HETATM   14  C2  UNL     1      22.953  -0.788  54.037  1.00  0.00     0.035 C 
BRANCH  13  15
HETATM   15  O1  UNL     1      21.065  -1.584  54.991  1.00  0.00    -0.365 OA
HETATM   16  H1  UNL     1      20.384  -2.165  54.486  1.00  0.00     0.217 HD
ENDBRANCH  13  15
BRANCH  14  17
HETATM   17  C3  UNL     1      23.686   0.164  53.277  1.00  0.00     0.039 C 
HETATM   18  C4  UNL     1      24.993   0.391  53.517  1.00  0.00     0.068 A 
HETATM   19  C5  UNL     1      25.679  -0.333  54.547  1.00  0.00     0.045 A 
HETATM   20  O2  UNL     1      26.229   0.984  53.341  1.00  0.00    -0.339 OA
HETATM   21  C6  UNL     1      26.855   0.255  54.352  1.00  0.00     0.187 A 
ENDBRANCH  14  17
ENDBRANCH  12  13
ENDBRANCH  11  12
ENDBRANCH   1  11
BRANCH   5  22
HETATM   22  N2  UNL     1      24.099   3.711  50.221  1.00  0.00    -0.339 N 
HETATM   23  C13 UNL     1      24.293   4.981  49.585  1.00  0.00     0.112 C 
HETATM   24  C14 UNL     1      25.506   5.261  49.107  1.00  0.00     0.026 C 
HETATM   25 BR1  UNL     1      25.541   6.964  48.306  1.00  0.00    -0.050 Br
HETATM   26  C15 UNL     1      26.633   4.346  49.286  1.00  0.00     0.018 C 
HETATM   27  C16 UNL     1      26.453   3.214  49.949  1.00  0.00    -0.005 C 
HETATM   28  C17 UNL     1      25.164   2.803  50.545  1.00  0.00     0.157 C 
ENDBRANCH   5  22
TORSDOF 6
ENDMDL
MODEL 4
REMARK VINA RESULT:      -7.3      3.770      6.494
REMARK  6 active torsions:
REMARK  status: ('A' for Active; 'I' for Inactive)
REMARK    1  A    between atoms: O1_1  and  C1_2 
REMARK    2  A    between atoms: C1_2  and  C7_9 
REMARK    3  A    between atoms: C2_3  and  C3_4 
REMARK    4  A    between atoms: C7_9  and  C8_10 
REMARK    5  A    between atoms: C8_10  and  N1_11 
REMARK    6  A    between atoms: C12_15  and  N2_16 
ROOT
HETATM    1  N1  UNL     1      21.518   3.130  51.317  1.00  0.00    -0.351 N 
HETATM    2  C9  UNL     1      21.992   4.183  52.141  1.00  0.00     0.092 C 
HETATM    3  C10 UNL     1      22.928   5.106  52.255  1.00  0.00     0.021 C 
HETATM    4  C11 UNL     1      24.028   5.329  51.268  1.00  0.00     0.050 C 
HETATM    5  C12 UNL     1      24.658   5.017  50.117  1.00  0.00     0.104 C 
HETATM    6  N3  UNL     1      24.396   4.024  49.130  1.00  0.00    -0.358 N 
HETATM    7  C18 UNL     1      23.006   3.862  48.673  1.00  0.00     0.273 C 
HETATM    8  N4  UNL     1      22.170   3.519  49.727  1.00  0.00    -0.265 NA
HETATM    9  C19 UNL     1      20.987   3.233  49.948  1.00  0.00     0.205 C 
HETATM   10  H18 UNL     1      25.118   3.416  48.712  1.00  0.00     0.162 HD
ENDROOT
BRANCH   1  11
HETATM   11  C8  UNL     1      21.667   1.861  51.942  1.00  0.00     0.135 C 
BRANCH  11  12
HETATM   12  C7  UNL     1      22.718   1.692  52.968  1.00  0.00     0.084 C 
BRANCH  12  13
HETATM   13  C1  UNL     1      23.985   1.142  52.423  1.00  0.00     0.044 C 
HETATM   14  C2  UNL     1      25.177   0.484  52.602  1.00  0.00     0.035 C 
BRANCH  13  15
HETATM   15  O1  UNL     1      23.892   1.473  51.027  1.00  0.00    -0.365 OA
HETATM   16  H1  UNL     1      24.754   1.872  50.635  1.00  0.00     0.217 HD
ENDBRANCH  13  15
BRANCH  14  17
HETATM   17  C3  UNL     1      25.457   0.068  53.932  1.00  0.00     0.039 C 
HETATM   18  C4  UNL     1      26.725  -0.013  54.385  1.00  0.00     0.068 A 
HETATM   19  C5  UNL     1      27.825   0.327  53.531  1.00  0.00     0.045 A 
HETATM   20  O2  UNL     1      27.728  -0.263  55.301  1.00  0.00    -0.339 OA
HETATM   21  C6  UNL     1      28.767   0.080  54.435  1.00  0.00     0.187 A 
ENDBRANCH  14  17
ENDBRANCH  12  13
ENDBRANCH  11  12
ENDBRANCH   1  11
BRANCH   5  22
HETATM   22  N2  UNL     1      25.835   5.725  49.665  1.00  0.00    -0.339 N 
HETATM   23  C13 UNL     1      26.143   7.125  49.625  1.00  0.00     0.112 C 
HETATM   24  C14 UNL     1      27.221   7.508  48.940  1.00  0.00     0.026 C 
HETATM   25 BR1  UNL     1      27.435   9.377  49.005  1.00  0.00    -0.050 Br
HETATM   26  C15 UNL     1      28.116   6.538  48.310  1.00  0.00     0.018 C 
HETATM   27  C16 UNL     1      27.861   5.245  48.427  1.00  0.00    -0.005 C 
HETATM   28  C17 UNL     1      26.712   4.696  49.179  1.00  0.00     0.157 C 
ENDBRANCH   5  22
TORSDOF 6
ENDMDL
MODEL 5
REMARK VINA RESULT:      -7.2      1.864      2.212
REMARK  6 active torsions:
REMARK  status: ('A' for Active; 'I' for Inactive)
REMARK    1  A    between atoms: O1_1  and  C1_2 
REMARK    2  A    between atoms: C1_2  and  C7_9 
REMARK    3  A    between atoms: C2_3  and  C3_4 
REMARK    4  A    between atoms: C7_9  and  C8_10 
REMARK    5  A    between atoms: C8_10  and  N1_11 
REMARK    6  A    between atoms: C12_15  and  N2_16 
ROOT
HETATM    1  N1  UNL     1      22.847   4.381  49.686  1.00  0.00    -0.351 N 
HETATM    2  C9  UNL     1      22.787   3.145  48.993  1.00  0.00     0.092 C 
HETATM    3  C10 UNL     1      22.319   1.913  49.053  1.00  0.00     0.021 C 
HETATM    4  C11 UNL     1      21.516   1.362  50.187  1.00  0.00     0.050 C 
HETATM    5  C12 UNL     1      20.916   1.511  51.386  1.00  0.00     0.104 C 
HETATM    6  N3  UNL     1      20.830   2.621  52.274  1.00  0.00    -0.358 N 
HETATM    7  C18 UNL     1      20.503   3.936  51.699  1.00  0.00     0.273 C 
HETATM    8  N4  UNL     1      21.455   4.323  50.765  1.00  0.00    -0.265 NA
HETATM    9  C19 UNL     1      21.727   5.276  50.024  1.00  0.00     0.205 C 
HETATM   10  H18 UNL     1      20.977   2.561  53.294  1.00  0.00     0.162 HD
ENDROOT
BRANCH   1  11
HETATM   11  C8  UNL     1      24.168   4.682  50.118  1.00  0.00     0.135 C 
BRANCH  11  12
HETATM   12  C7  UNL     1      24.983   3.603  50.719  1.00  0.00     0.084 C 
BRANCH  12  13
HETATM   13  C1  UNL     1      24.504   3.188  52.062  1.00  0.00     0.044 C 
HETATM   14  C2  UNL     1      24.297   2.215  53.008  1.00  0.00     0.035 C 
BRANCH  13  15
HETATM   15  O1  UNL     1      24.035   4.427  52.621  1.00  0.00    -0.365 OA
HETATM   16  H1  UNL     1      23.984   4.429  53.648  1.00  0.00     0.217 HD
ENDBRANCH  13  15
BRANCH  14  17
HETATM   17  C3  UNL     1      24.701   0.903  52.642  1.00  0.00     0.039 C 
HETATM   18  C4  UNL     1      25.761   0.310  53.229  1.00  0.00     0.068 A 
HETATM   19  C5  UNL     1      26.503   0.992  54.248  1.00  0.00     0.045 A 
HETATM   20  O2  UNL     1      26.679  -0.695  53.465  1.00  0.00    -0.339 OA
HETATM   21  C6  UNL     1      27.371   0.007  54.453  1.00  0.00     0.187 A 
ENDBRANCH  14  17
ENDBRANCH  12  13
ENDBRANCH  11  12
ENDBRANCH   1  11
BRANCH   5  22
HETATM   22  N2  UNL     1      20.190   0.435  52.025  1.00  0.00    -0.339 N 
HETATM   23  C13 UNL     1      18.826   0.010  51.905  1.00  0.00     0.112 C 
HETATM   24  C14 UNL     1      18.368  -0.874  52.792  1.00  0.00     0.026 C 
HETATM   25 BR1  UNL     1      16.560  -1.285  52.465  1.00  0.00    -0.050 Br
HETATM   26  C15 UNL     1      19.237  -1.463  53.810  1.00  0.00     0.018 C 
HETATM   27  C16 UNL     1      20.515  -1.120  53.852  1.00  0.00    -0.005 C 
HETATM   28  C17 UNL     1      21.145  -0.169  52.912  1.00  0.00     0.157 C 
ENDBRANCH   5  22
TORSDOF 6
ENDMDL
MODEL 6
REMARK VINA RESULT:      -7.2      3.183      5.307
REMARK  6 active torsions:
REMARK  status: ('A' for Active; 'I' for Inactive)
REMARK    1  A    between atoms: O1_1  and  C1_2 
REMARK    2  A    between atoms: C1_2  and  C7_9 
REMARK    3  A    between atoms: C2_3  and  C3_4 
REMARK    4  A    between atoms: C7_9  and  C8_10 
REMARK    5  A    between atoms: C8_10  and  N1_11 
REMARK    6  A    between atoms: C12_15  and  N2_16 
ROOT
HETATM    1  N1  UNL     1      23.316   6.034  49.395  1.00  0.00    -0.351 N 
HETATM    2  C9  UNL     1      22.976   4.829  48.729  1.00  0.00     0.092 C 
HETATM    3  C10 UNL     1      22.945   3.516  48.854  1.00  0.00     0.021 C 
HETATM    4  C11 UNL     1      23.388   2.767  50.069  1.00  0.00     0.050 C 
HETATM    5  C12 UNL     1      23.884   2.745  51.323  1.00  0.00     0.104 C 
HETATM    6  N3  UNL     1      24.300   3.789  52.198  1.00  0.00    -0.358 N 
HETATM    7  C18 UNL     1      23.425   4.967  52.326  1.00  0.00     0.273 C 
HETATM    8  N4  UNL     1      23.256   5.598  51.101  1.00  0.00    -0.265 NA
HETATM    9  C19 UNL     1      22.701   6.590  50.612  1.00  0.00     0.205 C 
HETATM   10  H18 UNL     1      25.172   3.771  52.750  1.00  0.00     0.162 HD
ENDROOT
BRANCH   1  11
HETATM   11  C8  UNL     1      24.425   6.682  48.784  1.00  0.00     0.135 C 
BRANCH  11  12
HETATM   12  C7  UNL     1      25.659   6.876  49.574  1.00  0.00     0.084 C 
BRANCH  12  13
HETATM   13  C1  UNL     1      26.707   5.866  49.280  1.00  0.00     0.044 C 
HETATM   14  C2  UNL     1      27.843   5.483  48.611  1.00  0.00     0.035 C 
BRANCH  13  15
HETATM   15  O1  UNL     1      26.317   4.762  50.115  1.00  0.00    -0.365 OA
HETATM   16  H1  UNL     1      26.989   4.547  50.863  1.00  0.00     0.217 HD
ENDBRANCH  13  15
BRANCH  14  17
HETATM   17  C3  UNL     1      28.391   6.449  47.725  1.00  0.00     0.039 C 
HETATM   18  C4  UNL     1      29.725   6.619  47.617  1.00  0.00     0.068 A 
HETATM   19  C5  UNL     1      30.625   5.820  48.394  1.00  0.00     0.045 A 
HETATM   20  O2  UNL     1      30.895   7.180  47.142  1.00  0.00    -0.339 OA
HETATM   21  C6  UNL     1      31.733   6.377  47.918  1.00  0.00     0.187 A 
ENDBRANCH  14  17
ENDBRANCH  12  13
ENDBRANCH  11  12
ENDBRANCH   1  11
BRANCH   5  22
HETATM   22  N2  UNL     1      24.097   1.512  52.049  1.00  0.00    -0.339 N 
HETATM   23  C13 UNL     1      23.225   0.744  52.889  1.00  0.00     0.112 C 
HETATM   24  C14 UNL     1      23.762  -0.236  53.616  1.00  0.00     0.026 C 
HETATM   25 BR1  UNL     1      22.453  -1.106  54.651  1.00  0.00    -0.050 Br
HETATM   26  C15 UNL     1      25.180  -0.581  53.513  1.00  0.00     0.018 C 
HETATM   27  C16 UNL     1      25.952   0.085  52.670  1.00  0.00    -0.005 C 
HETATM   28  C17 UNL     1      25.470   1.175  51.795  1.00  0.00     0.157 C 
ENDBRANCH   5  22
TORSDOF 6
ENDMDL
MODEL 7
REMARK VINA RESULT:      -7.2      4.531      7.563
REMARK  6 active torsions:
REMARK  status: ('A' for Active; 'I' for Inactive)
REMARK    1  A    between atoms: O1_1  and  C1_2 
REMARK    2  A    between atoms: C1_2  and  C7_9 
REMARK    3  A    between atoms: C2_3  and  C3_4 
REMARK    4  A    between atoms: C7_9  and  C8_10 
REMARK    5  A    between atoms: C8_10  and  N1_11 
REMARK    6  A    between atoms: C12_15  and  N2_16 
ROOT
HETATM    1  N1  UNL     1      24.212   4.885  50.578  1.00  0.00    -0.351 N 
HETATM    2  C9  UNL     1      25.047   4.172  49.679  1.00  0.00     0.092 C 
HETATM    3  C10 UNL     1      25.980   3.242  49.605  1.00  0.00     0.021 C 
HETATM    4  C11 UNL     1      26.547   2.510  50.777  1.00  0.00     0.050 C 
HETATM    5  C12 UNL     1      26.596   2.269  52.104  1.00  0.00     0.104 C 
HETATM    6  N3  UNL     1      25.884   2.837  53.199  1.00  0.00    -0.358 N 
HETATM    7  C18 UNL     1      24.428   3.003  53.057  1.00  0.00     0.273 C 
HETATM    8  N4  UNL     1      24.121   3.834  51.988  1.00  0.00    -0.265 NA
HETATM    9  C19 UNL     1      23.142   4.343  51.430  1.00  0.00     0.205 C 
HETATM   10  H18 UNL     1      26.321   3.133  54.085  1.00  0.00     0.162 HD
ENDROOT
BRANCH   1  11
HETATM   11  C8  UNL     1      24.560   6.263  50.641  1.00  0.00     0.135 C 
BRANCH  11  12
HETATM   12  C7  UNL     1      25.598   6.778  49.723  1.00  0.00     0.084 C 
BRANCH  12  13
HETATM   13  C1  UNL     1      26.111   8.117  50.112  1.00  0.00     0.044 C 
HETATM   14  C2  UNL     1      27.087   9.082  50.068  1.00  0.00     0.035 C 
BRANCH  13  15
HETATM   15  O1  UNL     1      25.050   8.628  50.937  1.00  0.00    -0.365 OA
HETATM   16  H1  UNL     1      25.058   8.267  51.899  1.00  0.00     0.217 HD
ENDBRANCH  13  15
BRANCH  14  17
HETATM   17  C3  UNL     1      28.234   8.762  49.292  1.00  0.00     0.039 C 
HETATM   18  C4  UNL     1      28.973   9.729  48.709  1.00  0.00     0.068 A 
HETATM   19  C5  UNL     1      28.619  11.108  48.866  1.00  0.00     0.045 A 
HETATM   20  O2  UNL     1      30.002  10.250  47.950  1.00  0.00    -0.339 OA
HETATM   21  C6  UNL     1      29.620  11.581  48.131  1.00  0.00     0.187 A 
ENDBRANCH  14  17
ENDBRANCH  12  13
ENDBRANCH  11  12
ENDBRANCH   1  11
BRANCH   5  22
HETATM   22  N2  UNL     1      27.489   1.287  52.678  1.00  0.00    -0.339 N 
HETATM   23  C13 UNL     1      27.532  -0.141  52.557  1.00  0.00     0.112 C 
HETATM   24  C14 UNL     1      28.329  -0.814  53.386  1.00  0.00     0.026 C 
HETATM   25 BR1  UNL     1      28.227  -2.667  53.069  1.00  0.00    -0.050 Br
HETATM   26  C15 UNL     1      29.199  -0.129  54.342  1.00  0.00     0.018 C 
HETATM   27  C16 UNL     1      29.208   1.194  54.382  1.00  0.00    -0.005 C 
HETATM   28  C17 UNL     1      28.387   2.050  53.500  1.00  0.00     0.157 C 
ENDBRANCH   5  22
TORSDOF 6
ENDMDL
MODEL 8
REMARK VINA RESULT:      -7.1      4.498      7.231
REMARK  6 active torsions:
REMARK  status: ('A' for Active; 'I' for Inactive)
REMARK    1  A    between atoms: O1_1  and  C1_2 
REMARK    2  A    between atoms: C1_2  and  C7_9 
REMARK    3  A    between atoms: C2_3  and  C3_4 
REMARK    4  A    between atoms: C7_9  and  C8_10 
REMARK    5  A    between atoms: C8_10  and  N1_11 
REMARK    6  A    between atoms: C12_15  and  N2_16 
ROOT
HETATM    1  N1  UNL     1      24.781   5.916  50.226  1.00  0.00    -0.351 N 
HETATM    2  C9  UNL     1      25.735   5.176  49.481  1.00  0.00     0.092 C 
HETATM    3  C10 UNL     1      26.473   4.082  49.488  1.00  0.00     0.021 C 
HETATM    4  C11 UNL     1      26.491   3.074  50.590  1.00  0.00     0.050 C 
HETATM    5  C12 UNL     1      26.058   2.632  51.789  1.00  0.00     0.104 C 
HETATM    6  N3  UNL     1      25.127   3.175  52.721  1.00  0.00    -0.358 N 
HETATM    7  C18 UNL     1      23.849   3.683  52.197  1.00  0.00     0.273 C 
HETATM    8  N4  UNL     1      24.056   4.712  51.288  1.00  0.00    -0.265 NA
HETATM    9  C19 UNL     1      23.414   5.507  50.590  1.00  0.00     0.205 C 
HETATM   10  H18 UNL     1      25.290   3.229  53.739  1.00  0.00     0.162 HD
ENDROOT
BRANCH   1  11
HETATM   11  C8  UNL     1      25.310   7.154  50.681  1.00  0.00     0.135 C 
BRANCH  11  12
HETATM   12  C7  UNL     1      25.692   8.176  49.683  1.00  0.00     0.084 C 
BRANCH  12  13
HETATM   13  C1  UNL     1      27.162   8.338  49.545  1.00  0.00     0.044 C 
HETATM   14  C2  UNL     1      28.325   8.142  48.843  1.00  0.00     0.035 C 
BRANCH  13  15
HETATM   15  O1  UNL     1      27.509   9.051  50.745  1.00  0.00    -0.365 OA
HETATM   16  H1  UNL     1      26.719   9.201  51.385  1.00  0.00     0.217 HD
ENDBRANCH  13  15
BRANCH  14  17
HETATM   17  C3  UNL     1      28.191   7.446  47.611  1.00  0.00     0.039 C 
HETATM   18  C4  UNL     1      28.572   8.010  46.446  1.00  0.00     0.068 A 
HETATM   19  C5  UNL     1      29.130   9.330  46.426  1.00  0.00     0.045 A 
HETATM   20  O2  UNL     1      28.769   8.085  45.081  1.00  0.00    -0.339 OA
HETATM   21  C6  UNL     1      29.309   9.372  45.110  1.00  0.00     0.187 A 
ENDBRANCH  14  17
ENDBRANCH  12  13
ENDBRANCH  11  12
ENDBRANCH   1  11
BRANCH   5  22
HETATM   22  N2  UNL     1      26.535   1.400  52.377  1.00  0.00    -0.339 N 
HETATM   23  C13 UNL     1      27.840   1.005  52.822  1.00  0.00     0.112 C 
HETATM   24  C14 UNL     1      28.037  -0.281  53.112  1.00  0.00     0.026 C 
HETATM   25 BR1  UNL     1      29.812  -0.586  53.661  1.00  0.00    -0.050 Br
HETATM   26  C15 UNL     1      26.949  -1.257  53.061  1.00  0.00     0.018 C 
HETATM   27  C16 UNL     1      25.732  -0.857  52.728  1.00  0.00    -0.005 C 
HETATM   28  C17 UNL     1      25.383   0.543  52.407  1.00  0.00     0.157 C 
ENDBRANCH   5  22
TORSDOF 6
ENDMDL
MODEL 9
REMARK VINA RESULT:      -7.1      6.776      9.211
REMARK  6 active torsions:
REMARK  status: ('A' for Active; 'I' for Inactive)
REMARK    1  A    between atoms: O1_1  and  C1_2 
REMARK    2  A    between atoms: C1_2  and  C7_9 
REMARK    3  A    between atoms: C2_3  and  C3_4 
REMARK    4  A    between atoms: C7_9  and  C8_10 
REMARK    5  A    between atoms: C8_10  and  N1_11 
REMARK    6  A    between atoms: C12_15  and  N2_16 
ROOT
HETATM    1  N1  UNL     1      30.901   9.707  47.399  1.00  0.00    -0.351 N 
HETATM    2  C9  UNL     1      30.309   9.073  46.276  1.00  0.00     0.092 C 
HETATM    3  C10 UNL     1      29.366   8.228  45.906  1.00  0.00     0.021 C 
HETATM    4  C11 UNL     1      28.429   7.536  46.842  1.00  0.00     0.050 C 
HETATM    5  C12 UNL     1      27.973   7.297  48.089  1.00  0.00     0.104 C 
HETATM    6  N3  UNL     1      28.384   7.790  49.361  1.00  0.00    -0.358 N 
HETATM    7  C18 UNL     1      28.632   9.235  49.489  1.00  0.00     0.273 C 
HETATM    8  N4  UNL     1      29.638   9.648  48.626  1.00  0.00    -0.265 NA
HETATM    9  C19 UNL     1      30.273  10.665  48.322  1.00  0.00     0.205 C 
HETATM   10  H18 UNL     1      28.513   7.200  50.198  1.00  0.00     0.162 HD
ENDROOT
BRANCH   1  11
HETATM   11  C8  UNL     1      32.234   9.261  47.616  1.00  0.00     0.135 C 
BRANCH  11  12
HETATM   12  C7  UNL     1      32.497   8.316  48.723  1.00  0.00     0.084 C 
BRANCH  12  13
HETATM   13  C1  UNL     1      31.869   6.986  48.518  1.00  0.00     0.044 C 
HETATM   14  C2  UNL     1      31.683   5.857  47.760  1.00  0.00     0.035 C 
BRANCH  13  15
HETATM   15  O1  UNL     1      31.076   6.831  49.707  1.00  0.00    -0.365 OA
HETATM   16  H1  UNL     1      31.019   7.680  50.284  1.00  0.00     0.217 HD
ENDBRANCH  13  15
BRANCH  14  17
HETATM   17  C3  UNL     1      32.392   5.817  46.529  1.00  0.00     0.039 C 
HETATM   18  C4  UNL     1      33.449   4.996  46.359  1.00  0.00     0.068 A 
HETATM   19  C5  UNL     1      33.878   4.135  47.420  1.00  0.00     0.045 A 
HETATM   20  O2  UNL     1      34.504   4.415  45.683  1.00  0.00    -0.339 OA
HETATM   21  C6  UNL     1      34.885   3.593  46.744  1.00  0.00     0.187 A 
ENDBRANCH  14  17
ENDBRANCH  12  13
ENDBRANCH  11  12
ENDBRANCH   1  11
BRANCH   5  22
HETATM   22  N2  UNL     1      26.874   6.394  48.350  1.00  0.00    -0.339 N 
HETATM   23  C13 UNL     1      25.455   6.601  48.343  1.00  0.00     0.112 C 
HETATM   24  C14 UNL     1      24.681   5.640  48.848  1.00  0.00     0.026 C 
HETATM   25 BR1  UNL     1      22.863   6.116  48.754  1.00  0.00    -0.050 Br
HETATM   26  C15 UNL     1      25.240   4.376  49.327  1.00  0.00     0.018 C 
HETATM   27  C16 UNL     1      26.545   4.170  49.249  1.00  0.00    -0.005 C 
HETATM   28  C17 UNL     1      27.502   5.147  48.689  1.00  0.00     0.157 C 
ENDBRANCH   5  22
TORSDOF 6
ENDMDL
