MODEL 1
REMARK VINA RESULT:      -7.4      0.000      0.000
REMARK  8 active torsions:
REMARK  status: ('A' for Active; 'I' for Inactive)
REMARK    1  A    between atoms: C2_2  and  C3_3 
REMARK    2  A    between atoms: C3_3  and  S1_10 
REMARK    3  A    between atoms: C4_4  and  C5_5 
REMARK    4  A    between atoms: C6_6  and  O1_7 
REMARK    5  A    between atoms: C6_6  and  C7_8 
REMARK    6  A    between atoms: C7_8  and  O2_9 
REMARK    7  A    between atoms: S1_10  and  C8_11 
REMARK    8  A    between atoms: C8_11  and  C9_13 
ROOT
HETATM    1  C9  UNL     1      25.175   3.738  50.234  1.00  0.00     0.042 A 
HETATM    2  C10 UNL     1      26.373   3.444  49.592  1.00  0.00     0.018 A 
HETATM    3  C11 UNL     1      27.228   4.288  48.928  1.00  0.00     0.008 A 
HETATM    4  C12 UNL     1      26.843   5.603  48.898  1.00  0.00    -0.060 A 
HETATM    5  C13 UNL     1      27.709   6.585  48.202  1.00  0.00     0.048 C 
HETATM    6  C14 UNL     1      25.682   6.048  49.490  1.00  0.00     0.030 A 
HETATM    7  C15 UNL     1      24.898   5.107  50.131  1.00  0.00     0.059 A 
HETATM    8  C16 UNL     1      23.699   5.619  50.732  1.00  0.00     0.100 C 
HETATM    9  N1  UNL     1      22.723   6.015  51.217  1.00  0.00    -0.191 NA
ENDROOT
BRANCH   1  10
HETATM   10  C8  UNL     1      24.317   2.759  50.925  1.00  0.00     0.221 C 
HETATM   11  O3  UNL     1      23.397   2.444  50.094  1.00  0.00    -0.280 OA
BRANCH  10  12
HETATM   12  S1  UNL     1      24.880   2.418  52.572  1.00  0.00    -0.074 SA
BRANCH  12  13
HETATM   13  C3  UNL     1      25.105   0.689  52.831  1.00  0.00     0.040 C 
HETATM   14  C4  UNL     1      26.353   0.440  52.394  1.00  0.00    -0.004 C 
BRANCH  13  15
HETATM   15  C2  UNL     1      24.427  -0.492  53.334  1.00  0.00    -0.016 C 
HETATM   16  C1  UNL     1      23.202  -0.041  53.519  1.00  0.00     0.065 C 
ENDBRANCH  13  15
BRANCH  14  17
HETATM   17  C5  UNL     1      26.745  -0.953  52.522  1.00  0.00     0.031 C 
HETATM   18  C6  UNL     1      27.949  -1.307  52.931  1.00  0.00     0.066 C 
BRANCH  18  19
HETATM   19  O1  UNL     1      28.537  -0.062  53.135  1.00  0.00    -0.363 OA
HETATM   20  H6  UNL     1      29.022   0.160  53.997  1.00  0.00     0.217 HD
ENDBRANCH  18  19
BRANCH  18  21
HETATM   21  C7  UNL     1      29.028  -2.210  53.295  1.00  0.00     0.228 C 
BRANCH  21  22
HETATM   22  O2  UNL     1      28.594  -3.514  53.351  1.00  0.00    -0.394 OA
HETATM   23  H9  UNL     1      29.337  -4.154  53.425  1.00  0.00     0.209 HD
ENDBRANCH  21  22
ENDBRANCH  18  21
ENDBRANCH  14  17
ENDBRANCH  12  13
ENDBRANCH  10  12
ENDBRANCH   1  10
TORSDOF 8
ENDMDL
MODEL 2
REMARK VINA RESULT:      -7.3      3.206      7.212
REMARK  8 active torsions:
REMARK  status: ('A' for Active; 'I' for Inactive)
REMARK    1  A    between atoms: C2_2  and  C3_3 
REMARK    2  A    between atoms: C3_3  and  S1_10 
REMARK    3  A    between atoms: C4_4  and  C5_5 
REMARK    4  A    between atoms: C6_6  and  O1_7 
REMARK    5  A    between atoms: C6_6  and  C7_8 
REMARK    6  A    between atoms: C7_8  and  O2_9 
REMARK    7  A    between atoms: S1_10  and  C8_11 
REMARK    8  A    between atoms: C8_11  and  C9_13 
ROOT
HETATM    1  C9  UNL     1      24.371   1.263  53.052  1.00  0.00     0.042 A 
HETATM    2  C10 UNL     1      23.081   1.755  52.893  1.00  0.00     0.018 A 
HETATM    3  C11 UNL     1      21.881   1.120  53.100  1.00  0.00     0.008 A 
HETATM    4  C12 UNL     1      21.975  -0.181  53.522  1.00  0.00    -0.060 A 
HETATM    5  C13 UNL     1      20.727  -0.942  53.769  1.00  0.00     0.048 C 
HETATM    6  C14 UNL     1      23.183  -0.807  53.725  1.00  0.00     0.030 A 
HETATM    7  C15 UNL     1      24.328  -0.068  53.486  1.00  0.00     0.059 A 
HETATM    8  C16 UNL     1      25.562  -0.766  53.711  1.00  0.00     0.100 C 
HETATM    9  N1  UNL     1      26.569  -1.316  53.882  1.00  0.00    -0.191 NA
ENDROOT
BRANCH   1  10
HETATM   10  C8  UNL     1      25.609   2.023  52.806  1.00  0.00     0.221 C 
HETATM   11  O3  UNL     1      25.921   2.565  53.922  1.00  0.00    -0.280 OA
BRANCH  10  12
HETATM   12  S1  UNL     1      26.156   1.890  51.124  1.00  0.00    -0.074 SA
BRANCH  12  13
HETATM   13  C3  UNL     1      25.671   3.293  50.175  1.00  0.00     0.040 C 
HETATM   14  C4  UNL     1      26.825   3.791  49.692  1.00  0.00    -0.004 C 
BRANCH  13  15
HETATM   15  C2  UNL     1      24.503   4.049  49.762  1.00  0.00    -0.016 C 
HETATM   16  C1  UNL     1      23.651   3.086  49.465  1.00  0.00     0.065 C 
ENDBRANCH  13  15
BRANCH  14  17
HETATM   17  C5  UNL     1      26.645   4.973  48.866  1.00  0.00     0.031 C 
HETATM   18  C6  UNL     1      27.648   5.775  48.563  1.00  0.00     0.066 C 
BRANCH  18  19
HETATM   19  O1  UNL     1      28.700   5.147  49.224  1.00  0.00    -0.363 OA
HETATM   20  H6  UNL     1      29.561   5.636  49.435  1.00  0.00     0.217 HD
ENDBRANCH  18  19
BRANCH  18  21
HETATM   21  C7  UNL     1      28.315   6.916  47.959  1.00  0.00     0.228 C 
BRANCH  21  22
HETATM   22  O2  UNL     1      28.764   7.798  48.913  1.00  0.00    -0.394 OA
HETATM   23  H9  UNL     1      28.139   8.542  49.061  1.00  0.00     0.209 HD
ENDBRANCH  21  22
ENDBRANCH  18  21
ENDBRANCH  14  17
ENDBRANCH  12  13
ENDBRANCH  10  12
ENDBRANCH   1  10
TORSDOF 8
ENDMDL
MODEL 3
REMARK VINA RESULT:      -7.2      2.855      6.610
REMARK  8 active torsions:
REMARK  status: ('A' for Active; 'I' for Inactive)
REMARK    1  A    between atoms: C2_2  and  C3_3 
REMARK    2  A    between atoms: C3_3  and  S1_10 
REMARK    3  A    between atoms: C4_4  and  C5_5 
REMARK    4  A    between atoms: C6_6  and  O1_7 
REMARK    5  A    between atoms: C6_6  and  C7_8 
REMARK    6  A    between atoms: C7_8  and  O2_9 
REMARK    7  A    between atoms: S1_10  and  C8_11 
REMARK    8  A    between atoms: C8_11  and  C9_13 
ROOT
HETATM    1  C9  UNL     1      24.817   1.399  52.656  1.00  0.00     0.042 A 
HETATM    2  C10 UNL     1      24.501   0.238  53.351  1.00  0.00     0.018 A 
HETATM    3  C11 UNL     1      25.181  -0.955  53.397  1.00  0.00     0.008 A 
HETATM    4  C12 UNL     1      26.330  -1.000  52.651  1.00  0.00    -0.060 A 
HETATM    5  C13 UNL     1      27.127  -2.251  52.643  1.00  0.00     0.048 C 
HETATM    6  C14 UNL     1      26.773   0.071  51.909  1.00  0.00     0.030 A 
HETATM    7  C15 UNL     1      26.007   1.222  51.939  1.00  0.00     0.059 A 
HETATM    8  C16 UNL     1      26.510   2.311  51.150  1.00  0.00     0.100 C 
HETATM    9  N1  UNL     1      26.899   3.198  50.512  1.00  0.00    -0.191 NA
ENDROOT
BRANCH   1  10
HETATM   10  C8  UNL     1      24.023   2.640  52.667  1.00  0.00     0.221 C 
HETATM   11  O3  UNL     1      24.558   3.397  53.550  1.00  0.00    -0.280 OA
BRANCH  10  12
HETATM   12  S1  UNL     1      22.691   2.596  51.497  1.00  0.00    -0.074 SA
BRANCH  12  13
HETATM   13  C3  UNL     1      23.170   3.287  49.949  1.00  0.00     0.040 C 
HETATM   14  C4  UNL     1      23.689   4.490  50.259  1.00  0.00    -0.004 C 
BRANCH  13  15
HETATM   15  C2  UNL     1      23.192   3.004  48.525  1.00  0.00    -0.016 C 
HETATM   16  C1  UNL     1      22.331   2.009  48.435  1.00  0.00     0.065 C 
ENDBRANCH  13  15
BRANCH  14  17
HETATM   17  C5  UNL     1      24.154   5.237  49.104  1.00  0.00     0.031 C 
HETATM   18  C6  UNL     1      25.244   5.981  49.142  1.00  0.00     0.066 C 
BRANCH  18  19
HETATM   19  O1  UNL     1      25.652   5.785  50.458  1.00  0.00    -0.363 OA
HETATM   20  H6  UNL     1      26.449   5.202  50.685  1.00  0.00     0.217 HD
ENDBRANCH  18  19
BRANCH  18  21
HETATM   21  C7  UNL     1      26.271   6.879  48.642  1.00  0.00     0.228 C 
BRANCH  21  22
HETATM   22  O2  UNL     1      27.122   7.277  49.646  1.00  0.00    -0.394 OA
HETATM   23  H9  UNL     1      27.803   7.913  49.331  1.00  0.00     0.209 HD
ENDBRANCH  21  22
ENDBRANCH  18  21
ENDBRANCH  14  17
ENDBRANCH  12  13
ENDBRANCH  10  12
ENDBRANCH   1  10
TORSDOF 8
ENDMDL
MODEL 4
REMARK VINA RESULT:      -7.2      2.082      2.096
REMARK  8 active torsions:
REMARK  status: ('A' for Active; 'I' for Inactive)
REMARK    1  A    between atoms: C2_2  and  C3_3 
REMARK    2  A    between atoms: C3_3  and  S1_10 
REMARK    3  A    between atoms: C4_4  and  C5_5 
REMARK    4  A    between atoms: C6_6  and  O1_7 
REMARK    5  A    between atoms: C6_6  and  C7_8 
REMARK    6  A    between atoms: C7_8  and  O2_9 
REMARK    7  A    between atoms: S1_10  and  C8_11 
REMARK    8  A    between atoms: C8_11  and  C9_13 
ROOT
HETATM    1  C9  UNL     1      24.465   3.476  49.981  1.00  0.00     0.042 A 
HETATM    2  C10 UNL     1      25.788   3.091  49.798  1.00  0.00     0.018 A 
HETATM    3  C11 UNL     1      26.843   3.824  49.314  1.00  0.00     0.008 A 
HETATM    4  C12 UNL     1      26.544   5.116  48.964  1.00  0.00    -0.060 A 
HETATM    5  C13 UNL     1      27.626   5.980  48.431  1.00  0.00     0.048 C 
HETATM    6  C14 UNL     1      25.278   5.642  49.088  1.00  0.00     0.030 A 
HETATM    7  C15 UNL     1      24.294   4.809  49.588  1.00  0.00     0.059 A 
HETATM    8  C16 UNL     1      22.991   5.403  49.699  1.00  0.00     0.100 C 
HETATM    9  N1  UNL     1      21.931   5.865  49.788  1.00  0.00    -0.191 NA
ENDROOT
BRANCH   1  10
HETATM   10  C8  UNL     1      23.394   2.614  50.511  1.00  0.00     0.221 C 
HETATM   11  O3  UNL     1      22.812   2.103  49.492  1.00  0.00    -0.280 OA
BRANCH  10  12
HETATM   12  S1  UNL     1      23.338   2.625  52.283  1.00  0.00    -0.074 SA
BRANCH  12  13
HETATM   13  C3  UNL     1      24.364   1.367  52.968  1.00  0.00     0.040 C 
HETATM   14  C4  UNL     1      25.478   2.014  53.361  1.00  0.00    -0.004 C 
BRANCH  13  15
HETATM   15  C2  UNL     1      24.405  -0.059  53.237  1.00  0.00    -0.016 C 
HETATM   16  C1  UNL     1      23.123  -0.369  53.240  1.00  0.00     0.065 C 
ENDBRANCH  13  15
BRANCH  14  17
HETATM   17  C5  UNL     1      26.471   1.143  53.965  1.00  0.00     0.031 C 
HETATM   18  C6  UNL     1      27.758   1.439  53.960  1.00  0.00     0.066 C 
BRANCH  18  19
HETATM   19  O1  UNL     1      27.748   2.655  53.284  1.00  0.00    -0.363 OA
HETATM   20  H6  UNL     1      28.168   3.487  53.683  1.00  0.00     0.217 HD
ENDBRANCH  18  19
BRANCH  18  21
HETATM   21  C7  UNL     1      29.174   1.260  54.233  1.00  0.00     0.228 C 
BRANCH  21  22
HETATM   22  O2  UNL     1      29.724   2.391  54.790  1.00  0.00    -0.394 OA
HETATM   23  H9  UNL     1      29.993   3.050  54.112  1.00  0.00     0.209 HD
ENDBRANCH  21  22
ENDBRANCH  18  21
ENDBRANCH  14  17
ENDBRANCH  12  13
ENDBRANCH  10  12
ENDBRANCH   1  10
TORSDOF 8
ENDMDL
MODEL 5
REMARK VINA RESULT:      -7.0      2.476      5.554
REMARK  8 active torsions:
REMARK  status: ('A' for Active; 'I' for Inactive)
REMARK    1  A    between atoms: C2_2  and  C3_3 
REMARK    2  A    between atoms: C3_3  and  S1_10 
REMARK    3  A    between atoms: C4_4  and  C5_5 
REMARK    4  A    between atoms: C6_6  and  O1_7 
REMARK    5  A    between atoms: C6_6  and  C7_8 
REMARK    6  A    between atoms: C7_8  and  O2_9 
REMARK    7  A    between atoms: S1_10  and  C8_11 
REMARK    8  A    between atoms: C8_11  and  C9_13 
ROOT
HETATM    1  C9  UNL     1      22.269   1.531  51.759  1.00  0.00     0.042 A 
HETATM    2  C10 UNL     1      23.024   0.412  52.091  1.00  0.00     0.018 A 
HETATM    3  C11 UNL     1      22.759  -0.565  53.019  1.00  0.00     0.008 A 
HETATM    4  C12 UNL     1      21.586  -0.410  53.711  1.00  0.00    -0.060 A 
HETATM    5  C13 UNL     1      21.222  -1.421  54.733  1.00  0.00     0.048 C 
HETATM    6  C14 UNL     1      20.733   0.648  53.494  1.00  0.00     0.030 A 
HETATM    7  C15 UNL     1      21.103   1.572  52.533  1.00  0.00     0.059 A 
HETATM    8  C16 UNL     1      20.181   2.656  52.344  1.00  0.00     0.100 C 
HETATM    9  N1  UNL     1      19.451   3.543  52.182  1.00  0.00    -0.191 NA
ENDROOT
BRANCH   1  10
HETATM   10  C8  UNL     1      22.634   2.533  50.742  1.00  0.00     0.221 C 
HETATM   11  O3  UNL     1      21.958   2.240  49.696  1.00  0.00    -0.280 OA
BRANCH  10  12
HETATM   12  S1  UNL     1      23.821   3.704  51.347  1.00  0.00    -0.074 SA
BRANCH  12  13
HETATM   13  C3  UNL     1      25.471   3.152  51.070  1.00  0.00     0.040 C 
HETATM   14  C4  UNL     1      25.814   2.521  52.208  1.00  0.00    -0.004 C 
BRANCH  13  15
HETATM   15  C2  UNL     1      26.527   3.150  50.073  1.00  0.00    -0.016 C 
HETATM   16  C1  UNL     1      26.230   4.223  49.365  1.00  0.00     0.065 C 
ENDBRANCH  13  15
BRANCH  14  17
HETATM   17  C5  UNL     1      27.162   1.980  52.187  1.00  0.00     0.031 C 
HETATM   18  C6  UNL     1      27.962   2.049  53.235  1.00  0.00     0.066 C 
BRANCH  18  19
HETATM   19  O1  UNL     1      27.145   2.710  54.148  1.00  0.00    -0.363 OA
HETATM   20  H6  UNL     1      26.597   3.519  53.881  1.00  0.00     0.217 HD
ENDBRANCH  18  19
BRANCH  18  21
HETATM   21  C7  UNL     1      29.177   1.853  54.009  1.00  0.00     0.228 C 
BRANCH  21  22
HETATM   22  O2  UNL     1      29.977   0.884  53.449  1.00  0.00    -0.394 OA
HETATM   23  H9  UNL     1      29.938   0.887  52.467  1.00  0.00     0.209 HD
ENDBRANCH  21  22
ENDBRANCH  18  21
ENDBRANCH  14  17
ENDBRANCH  12  13
ENDBRANCH  10  12
ENDBRANCH   1  10
TORSDOF 8
ENDMDL
MODEL 6
REMARK VINA RESULT:      -6.9      2.924      6.347
REMARK  8 active torsions:
REMARK  status: ('A' for Active; 'I' for Inactive)
REMARK    1  A    between atoms: C2_2  and  C3_3 
REMARK    2  A    between atoms: C3_3  and  S1_10 
REMARK    3  A    between atoms: C4_4  and  C5_5 
REMARK    4  A    between atoms: C6_6  and  O1_7 
REMARK    5  A    between atoms: C6_6  and  C7_8 
REMARK    6  A    between atoms: C7_8  and  O2_9 
REMARK    7  A    between atoms: S1_10  and  C8_11 
REMARK    8  A    between atoms: C8_11  and  C9_13 
ROOT
HETATM    1  C9  UNL     1      25.386   1.720  52.558  1.00  0.00     0.042 A 
HETATM    2  C10 UNL     1      26.750   1.961  52.439  1.00  0.00     0.018 A 
HETATM    3  C11 UNL     1      27.802   1.107  52.661  1.00  0.00     0.008 A 
HETATM    4  C12 UNL     1      27.452  -0.159  53.054  1.00  0.00    -0.060 A 
HETATM    5  C13 UNL     1      28.526  -1.147  53.316  1.00  0.00     0.048 C 
HETATM    6  C14 UNL     1      26.142  -0.549  53.216  1.00  0.00     0.030 A 
HETATM    7  C15 UNL     1      25.165   0.397  52.963  1.00  0.00     0.059 A 
HETATM    8  C16 UNL     1      23.815  -0.057  53.146  1.00  0.00     0.100 C 
HETATM    9  N1  UNL     1      22.719  -0.404  53.295  1.00  0.00    -0.191 NA
ENDROOT
BRANCH   1  10
HETATM   10  C8  UNL     1      24.321   2.704  52.297  1.00  0.00     0.221 C 
HETATM   11  O3  UNL     1      24.241   3.429  53.348  1.00  0.00    -0.280 OA
BRANCH  10  12
HETATM   12  S1  UNL     1      23.601   2.504  50.689  1.00  0.00    -0.074 SA
BRANCH  12  13
HETATM   13  C3  UNL     1      23.991   3.861  49.634  1.00  0.00     0.040 C 
HETATM   14  C4  UNL     1      25.322   4.017  49.761  1.00  0.00    -0.004 C 
BRANCH  13  15
HETATM   15  C2  UNL     1      23.387   4.814  48.721  1.00  0.00    -0.016 C 
HETATM   16  C1  UNL     1      22.117   4.458  48.762  1.00  0.00     0.065 C 
ENDBRANCH  13  15
BRANCH  14  17
HETATM   17  C5  UNL     1      25.857   5.103  48.958  1.00  0.00     0.031 C 
HETATM   18  C6  UNL     1      27.155   5.280  48.794  1.00  0.00     0.066 C 
BRANCH  18  19
HETATM   19  O1  UNL     1      27.664   4.225  49.547  1.00  0.00    -0.363 OA
HETATM   20  H6  UNL     1      27.722   4.275  50.558  1.00  0.00     0.217 HD
ENDBRANCH  18  19
BRANCH  18  21
HETATM   21  C7  UNL     1      28.370   5.909  48.304  1.00  0.00     0.228 C 
BRANCH  21  22
HETATM   22  O2  UNL     1      29.452   5.591  49.090  1.00  0.00    -0.394 OA
HETATM   23  H9  UNL     1      29.199   5.069  49.884  1.00  0.00     0.209 HD
ENDBRANCH  21  22
ENDBRANCH  18  21
ENDBRANCH  14  17
ENDBRANCH  12  13
ENDBRANCH  10  12
ENDBRANCH   1  10
TORSDOF 8
ENDMDL
MODEL 7
REMARK VINA RESULT:      -6.8      2.777      3.573
REMARK  8 active torsions:
REMARK  status: ('A' for Active; 'I' for Inactive)
REMARK    1  A    between atoms: C2_2  and  C3_3 
REMARK    2  A    between atoms: C3_3  and  S1_10 
REMARK    3  A    between atoms: C4_4  and  C5_5 
REMARK    4  A    between atoms: C6_6  and  O1_7 
REMARK    5  A    between atoms: C6_6  and  C7_8 
REMARK    6  A    between atoms: C7_8  and  O2_9 
REMARK    7  A    between atoms: S1_10  and  C8_11 
REMARK    8  A    between atoms: C8_11  and  C9_13 
ROOT
HETATM    1  C9  UNL     1      25.333   4.219  49.503  1.00  0.00     0.042 A 
HETATM    2  C10 UNL     1      26.655   3.852  49.273  1.00  0.00     0.018 A 
HETATM    3  C11 UNL     1      27.685   4.605  48.765  1.00  0.00     0.008 A 
HETATM    4  C12 UNL     1      27.359   5.896  48.440  1.00  0.00    -0.060 A 
HETATM    5  C13 UNL     1      28.412   6.780  47.884  1.00  0.00     0.048 C 
HETATM    6  C14 UNL     1      26.091   6.405  48.611  1.00  0.00     0.030 A 
HETATM    7  C15 UNL     1      25.133   5.554  49.133  1.00  0.00     0.059 A 
HETATM    8  C16 UNL     1      23.828   6.130  49.291  1.00  0.00     0.100 C 
HETATM    9  N1  UNL     1      22.766   6.578  49.420  1.00  0.00    -0.191 NA
ENDROOT
BRANCH   1  10
HETATM   10  C8  UNL     1      24.290   3.337  50.056  1.00  0.00     0.221 C 
HETATM   11  O3  UNL     1      23.646   2.875  49.052  1.00  0.00    -0.280 OA
BRANCH  10  12
HETATM   12  S1  UNL     1      24.340   3.268  51.828  1.00  0.00    -0.074 SA
BRANCH  12  13
HETATM   13  C3  UNL     1      24.591   1.620  52.401  1.00  0.00     0.040 C 
HETATM   14  C4  UNL     1      23.350   1.129  52.576  1.00  0.00    -0.004 C 
BRANCH  13  15
HETATM   15  C2  UNL     1      25.635   0.668  52.729  1.00  0.00    -0.016 C 
HETATM   16  C1  UNL     1      26.552   0.951  51.824  1.00  0.00     0.065 C 
ENDBRANCH  13  15
BRANCH  14  17
HETATM   17  C5  UNL     1      23.331  -0.243  53.053  1.00  0.00     0.031 C 
HETATM   18  C6  UNL     1      22.372  -0.700  53.836  1.00  0.00     0.066 C 
BRANCH  18  19
HETATM   19  O1  UNL     1      21.578   0.435  53.974  1.00  0.00    -0.363 OA
HETATM   20  H6  UNL     1      21.175   0.695  54.866  1.00  0.00     0.217 HD
ENDBRANCH  18  19
BRANCH  18  21
HETATM   21  C7  UNL     1      21.647  -1.670  54.640  1.00  0.00     0.228 C 
BRANCH  21  22
HETATM   22  O2  UNL     1      20.297  -1.626  54.382  1.00  0.00    -0.394 OA
HETATM   23  H9  UNL     1      20.063  -0.937  53.721  1.00  0.00     0.209 HD
ENDBRANCH  21  22
ENDBRANCH  18  21
ENDBRANCH  14  17
ENDBRANCH  12  13
ENDBRANCH  10  12
ENDBRANCH   1  10
TORSDOF 8
ENDMDL
MODEL 8
REMARK VINA RESULT:      -6.8      3.515      7.081
REMARK  8 active torsions:
REMARK  status: ('A' for Active; 'I' for Inactive)
REMARK    1  A    between atoms: C2_2  and  C3_3 
REMARK    2  A    between atoms: C3_3  and  S1_10 
REMARK    3  A    between atoms: C4_4  and  C5_5 
REMARK    4  A    between atoms: C6_6  and  O1_7 
REMARK    5  A    between atoms: C6_6  and  C7_8 
REMARK    6  A    between atoms: C7_8  and  O2_9 
REMARK    7  A    between atoms: S1_10  and  C8_11 
REMARK    8  A    between atoms: C8_11  and  C9_13 
ROOT
HETATM    1  C9  UNL     1      23.801   2.962  52.168  1.00  0.00     0.042 A 
HETATM    2  C10 UNL     1      24.955   2.846  52.934  1.00  0.00     0.018 A 
HETATM    3  C11 UNL     1      25.487   1.730  53.533  1.00  0.00     0.008 A 
HETATM    4  C12 UNL     1      24.777   0.573  53.346  1.00  0.00    -0.060 A 
HETATM    5  C13 UNL     1      25.280  -0.680  53.959  1.00  0.00     0.048 C 
HETATM    6  C14 UNL     1      23.614   0.529  52.611  1.00  0.00     0.030 A 
HETATM    7  C15 UNL     1      23.173   1.716  52.053  1.00  0.00     0.059 A 
HETATM    8  C16 UNL     1      21.956   1.618  51.297  1.00  0.00     0.100 C 
HETATM    9  N1  UNL     1      20.971   1.560  50.687  1.00  0.00    -0.191 NA
ENDROOT
BRANCH   1  10
HETATM   10  C8  UNL     1      23.305   4.209  51.560  1.00  0.00     0.221 C 
HETATM   11  O3  UNL     1      22.743   4.865  52.504  1.00  0.00    -0.280 OA
BRANCH  10  12
HETATM   12  S1  UNL     1      23.670   4.304  49.827  1.00  0.00    -0.074 SA
BRANCH  12  13
HETATM   13  C3  UNL     1      25.332   4.816  49.546  1.00  0.00     0.040 C 
HETATM   14  C4  UNL     1      25.282   6.161  49.575  1.00  0.00    -0.004 C 
BRANCH  13  15
HETATM   15  C2  UNL     1      26.666   4.298  49.306  1.00  0.00    -0.016 C 
HETATM   16  C1  UNL     1      26.525   3.029  49.640  1.00  0.00     0.065 C 
ENDBRANCH  13  15
BRANCH  14  17
HETATM   17  C5  UNL     1      26.572   6.794  49.361  1.00  0.00     0.031 C 
HETATM   18  C6  UNL     1      26.827   8.022  49.773  1.00  0.00     0.066 C 
BRANCH  18  19
HETATM   19  O1  UNL     1      25.612   8.363  50.359  1.00  0.00    -0.363 OA
HETATM   20  H6  UNL     1      25.055   7.682  50.861  1.00  0.00     0.217 HD
ENDBRANCH  18  19
BRANCH  18  21
HETATM   21  C7  UNL     1      27.609   9.230  49.983  1.00  0.00     0.228 C 
BRANCH  21  22
HETATM   22  O2  UNL     1      27.521   9.665  51.284  1.00  0.00    -0.394 OA
HETATM   23  H9  UNL     1      27.528  10.645  51.353  1.00  0.00     0.209 HD
ENDBRANCH  21  22
ENDBRANCH  18  21
ENDBRANCH  14  17
ENDBRANCH  12  13
ENDBRANCH  10  12
ENDBRANCH   1  10
TORSDOF 8
ENDMDL
MODEL 9
REMARK VINA RESULT:      -6.6      3.223      5.549
REMARK  8 active torsions:
REMARK  status: ('A' for Active; 'I' for Inactive)
REMARK    1  A    between atoms: C2_2  and  C3_3 
REMARK    2  A    between atoms: C3_3  and  S1_10 
REMARK    3  A    between atoms: C4_4  and  C5_5 
REMARK    4  A    between atoms: C6_6  and  O1_7 
REMARK    5  A    between atoms: C6_6  and  C7_8 
REMARK    6  A    between atoms: C7_8  and  O2_9 
REMARK    7  A    between atoms: S1_10  and  C8_11 
REMARK    8  A    between atoms: C8_11  and  C9_13 
ROOT
HETATM    1  C9  UNL     1      24.101   2.995  52.359  1.00  0.00     0.042 A 
HETATM    2  C10 UNL     1      24.086   1.877  53.185  1.00  0.00     0.018 A 
HETATM    3  C11 UNL     1      24.905   0.774  53.164  1.00  0.00     0.008 A 
HETATM    4  C12 UNL     1      25.870   0.783  52.190  1.00  0.00    -0.060 A 
HETATM    5  C13 UNL     1      26.798  -0.369  52.095  1.00  0.00     0.048 C 
HETATM    6  C14 UNL     1      26.010   1.821  51.296  1.00  0.00     0.030 A 
HETATM    7  C15 UNL     1      25.128   2.880  51.413  1.00  0.00     0.059 A 
HETATM    8  C16 UNL     1      25.314   3.937  50.459  1.00  0.00     0.100 C 
HETATM    9  N1  UNL     1      25.446   4.796  49.692  1.00  0.00    -0.191 NA
ENDROOT
BRANCH   1  10
HETATM   10  C8  UNL     1      23.177   4.138  52.457  1.00  0.00     0.221 C 
HETATM   11  O3  UNL     1      23.727   4.972  53.257  1.00  0.00    -0.280 OA
BRANCH  10  12
HETATM   12  S1  UNL     1      21.724   3.915  51.465  1.00  0.00    -0.074 SA
BRANCH  12  13
HETATM   13  C3  UNL     1      21.384   2.207  51.194  1.00  0.00     0.040 C 
HETATM   14  C4  UNL     1      20.608   1.846  52.233  1.00  0.00    -0.004 C 
BRANCH  13  15
HETATM   15  C2  UNL     1      21.648   1.119  50.271  1.00  0.00    -0.016 C 
HETATM   16  C1  UNL     1      22.233   1.749  49.271  1.00  0.00     0.065 C 
ENDBRANCH  13  15
BRANCH  14  17
HETATM   17  C5  UNL     1      20.207   0.450  52.200  1.00  0.00     0.031 C 
HETATM   18  C6  UNL     1      20.269  -0.322  53.269  1.00  0.00     0.066 C 
BRANCH  18  19
HETATM   19  O1  UNL     1      20.768   0.571  54.213  1.00  0.00    -0.363 OA
HETATM   20  H6  UNL     1      21.596   0.359  54.757  1.00  0.00     0.217 HD
ENDBRANCH  18  19
BRANCH  18  21
HETATM   21  C7  UNL     1      20.132  -1.539  54.052  1.00  0.00     0.228 C 
BRANCH  21  22
HETATM   22  O2  UNL     1      21.131  -1.646  54.991  1.00  0.00    -0.394 OA
HETATM   23  H9  UNL     1      20.779  -1.779  55.900  1.00  0.00     0.209 HD
ENDBRANCH  21  22
ENDBRANCH  18  21
ENDBRANCH  14  17
ENDBRANCH  12  13
ENDBRANCH  10  12
ENDBRANCH   1  10
TORSDOF 8
ENDMDL
