MODEL 1
REMARK VINA RESULT:      -7.2      0.000      0.000
REMARK  5 active torsions:
REMARK  status: ('A' for Active; 'I' for Inactive)
REMARK    1  A    between atoms: C1_2  and  C2_3 
REMARK    2  A    between atoms: C2_3  and  O1_4 
REMARK    3  A    between atoms: O1_4  and  C3_5 
REMARK    4  A    between atoms: C3_5  and  C4_6 
REMARK    5  A    between atoms: C6_8  and  C7_9 
ROOT
HETATM    1  C4  UNL     1      26.590   0.778  54.402  1.00  0.00     0.131 C 
HETATM    2  C5  UNL     1      25.555   0.500  53.304  1.00  0.00     0.090 C 
HETATM    3  C6  UNL     1      24.625  -0.362  54.115  1.00  0.00     0.066 C 
HETATM    4  N1  UNL     1      25.347  -0.930  55.026  1.00  0.00    -0.183 NA
HETATM    5  N2  UNL     1      26.687  -0.564  54.946  1.00  0.00    -0.306 N 
HETATM    6  H17 UNL     1      27.550  -1.104  55.204  1.00  0.00     0.182 HD
ENDROOT
BRANCH   3   7
HETATM    7  C7  UNL     1      23.186  -0.507  53.893  1.00  0.00    -0.007 A 
HETATM    8  C8  UNL     1      22.414  -1.298  54.718  1.00  0.00     0.016 A 
HETATM    9  C9  UNL     1      21.057  -1.437  54.514  1.00  0.00     0.040 A 
HETATM   10  C10 UNL     1      20.515  -0.747  53.446  1.00  0.00     0.102 A 
HETATM   11  C11 UNL     1      21.271   0.046  52.614  1.00  0.00     0.103 A 
HETATM   12  O3  UNL     1      19.160  -0.808  53.139  1.00  0.00    -0.346 OA
HETATM   13  C12 UNL     1      22.622   0.170  52.837  1.00  0.00     0.053 A 
HETATM   14  O2  UNL     1      20.765   0.755  51.532  1.00  0.00    -0.346 OA
HETATM   15  C13 UNL     1      19.461   0.430  51.069  1.00  0.00     0.202 C 
HETATM   16  C14 UNL     1      18.532   0.007  52.175  1.00  0.00     0.202 C 
ENDBRANCH   3   7
BRANCH   1  17
HETATM   17  C3  UNL     1      27.891   1.290  53.830  1.00  0.00     0.194 C 
BRANCH  17  18
HETATM   18  O1  UNL     1      28.994   0.684  54.374  1.00  0.00    -0.388 OA
BRANCH  18  19
HETATM   19  C2  UNL     1      29.804   0.040  53.480  1.00  0.00     0.182 C 
BRANCH  19  20
HETATM   20  C1  UNL     1      30.104  -1.391  53.866  1.00  0.00     0.140 C 
HETATM   21 CL1  UNL     1      28.969  -2.506  53.075  1.00  0.00    -0.128 Cl
ENDBRANCH  19  20
ENDBRANCH  18  19
ENDBRANCH  17  18
ENDBRANCH   1  17
TORSDOF 5
ENDMDL
MODEL 2
REMARK VINA RESULT:      -7.2      1.823      1.968
REMARK  5 active torsions:
REMARK  status: ('A' for Active; 'I' for Inactive)
REMARK    1  A    between atoms: C1_2  and  C2_3 
REMARK    2  A    between atoms: C2_3  and  O1_4 
REMARK    3  A    between atoms: O1_4  and  C3_5 
REMARK    4  A    between atoms: C3_5  and  C4_6 
REMARK    5  A    between atoms: C6_8  and  C7_9 
ROOT
HETATM    1  C4  UNL     1      25.934   1.708  52.416  1.00  0.00     0.131 C 
HETATM    2  C5  UNL     1      25.300   0.655  53.336  1.00  0.00     0.090 C 
HETATM    3  C6  UNL     1      23.885   1.165  53.282  1.00  0.00     0.066 C 
HETATM    4  N1  UNL     1      23.958   2.437  53.060  1.00  0.00    -0.183 NA
HETATM    5  N2  UNL     1      25.272   2.882  52.952  1.00  0.00    -0.306 N 
HETATM    6  H17 UNL     1      25.690   3.816  53.192  1.00  0.00     0.182 HD
ENDROOT
BRANCH   3   7
HETATM    7  C7  UNL     1      22.679   0.353  53.451  1.00  0.00    -0.007 A 
HETATM    8  C8  UNL     1      22.682  -0.769  54.254  1.00  0.00     0.016 A 
HETATM    9  C9  UNL     1      21.548  -1.537  54.416  1.00  0.00     0.040 A 
HETATM   10  C10 UNL     1      20.416  -1.126  53.736  1.00  0.00     0.102 A 
HETATM   11  C11 UNL     1      20.397  -0.010  52.932  1.00  0.00     0.103 A 
HETATM   12  O3  UNL     1      19.212  -1.818  53.821  1.00  0.00    -0.346 OA
HETATM   13  C12 UNL     1      21.539   0.740  52.785  1.00  0.00     0.053 A 
HETATM   14  O2  UNL     1      19.282   0.435  52.234  1.00  0.00    -0.346 OA
HETATM   15  C13 UNL     1      18.179  -0.451  52.098  1.00  0.00     0.202 C 
HETATM   16  C14 UNL     1      17.994  -1.348  53.292  1.00  0.00     0.202 C 
ENDBRANCH   3   7
BRANCH   1  17
HETATM   17  C3  UNL     1      27.437   1.745  52.560  1.00  0.00     0.194 C 
BRANCH  17  18
HETATM   18  O1  UNL     1      27.848   2.202  53.786  1.00  0.00    -0.388 OA
BRANCH  18  19
HETATM   19  C2  UNL     1      28.980   1.612  54.276  1.00  0.00     0.182 C 
BRANCH  19  20
HETATM   20  C1  UNL     1      28.788   0.155  54.634  1.00  0.00     0.140 C 
HETATM   21 CL1  UNL     1      29.710  -0.890  53.529  1.00  0.00    -0.128 Cl
ENDBRANCH  19  20
ENDBRANCH  18  19
ENDBRANCH  17  18
ENDBRANCH   1  17
TORSDOF 5
ENDMDL
MODEL 3
REMARK VINA RESULT:      -7.0      2.059      2.742
REMARK  5 active torsions:
REMARK  status: ('A' for Active; 'I' for Inactive)
REMARK    1  A    between atoms: C1_2  and  C2_3 
REMARK    2  A    between atoms: C2_3  and  O1_4 
REMARK    3  A    between atoms: O1_4  and  C3_5 
REMARK    4  A    between atoms: C3_5  and  C4_6 
REMARK    5  A    between atoms: C6_8  and  C7_9 
ROOT
HETATM    1  C4  UNL     1      27.422   1.972  52.971  1.00  0.00     0.131 C 
HETATM    2  C5  UNL     1      26.134   2.249  53.760  1.00  0.00     0.090 C 
HETATM    3  C6  UNL     1      25.168   2.156  52.610  1.00  0.00     0.066 C 
HETATM    4  N1  UNL     1      25.824   2.493  51.547  1.00  0.00    -0.183 NA
HETATM    5  N2  UNL     1      27.149   2.814  51.822  1.00  0.00    -0.306 N 
HETATM    6  H17 UNL     1      27.795   3.487  51.337  1.00  0.00     0.182 HD
ENDROOT
BRANCH   3   7
HETATM    7  C7  UNL     1      23.763   1.757  52.707  1.00  0.00    -0.007 A 
HETATM    8  C8  UNL     1      22.752   2.607  52.309  1.00  0.00     0.016 A 
HETATM    9  C9  UNL     1      21.427   2.235  52.397  1.00  0.00     0.040 A 
HETATM   10  C10 UNL     1      21.167   0.975  52.902  1.00  0.00     0.102 A 
HETATM   11  C11 UNL     1      22.164   0.115  53.302  1.00  0.00     0.103 A 
HETATM   12  O3  UNL     1      19.871   0.487  53.039  1.00  0.00    -0.346 OA
HETATM   13  C12 UNL     1      23.477   0.507  53.205  1.00  0.00     0.053 A 
HETATM   14  O2  UNL     1      21.944  -1.158  53.813  1.00  0.00    -0.346 OA
HETATM   15  C13 UNL     1      20.626  -1.497  54.222  1.00  0.00     0.202 C 
HETATM   16  C14 UNL     1      19.563  -0.845  53.381  1.00  0.00     0.202 C 
ENDBRANCH   3   7
BRANCH   1  17
HETATM   17  C3  UNL     1      28.652   2.386  53.743  1.00  0.00     0.194 C 
BRANCH  17  18
HETATM   18  O1  UNL     1      29.042   1.456  54.672  1.00  0.00    -0.388 OA
BRANCH  18  19
HETATM   19  C2  UNL     1      28.735   0.160  54.361  1.00  0.00     0.182 C 
BRANCH  19  20
HETATM   20  C1  UNL     1      29.867  -0.577  53.681  1.00  0.00     0.140 C 
HETATM   21 CL1  UNL     1      29.386  -2.243  53.290  1.00  0.00    -0.128 Cl
ENDBRANCH  19  20
ENDBRANCH  18  19
ENDBRANCH  17  18
ENDBRANCH   1  17
TORSDOF 5
ENDMDL
MODEL 4
REMARK VINA RESULT:      -6.7      2.239      2.552
REMARK  5 active torsions:
REMARK  status: ('A' for Active; 'I' for Inactive)
REMARK    1  A    between atoms: C1_2  and  C2_3 
REMARK    2  A    between atoms: C2_3  and  O1_4 
REMARK    3  A    between atoms: O1_4  and  C3_5 
REMARK    4  A    between atoms: C3_5  and  C4_6 
REMARK    5  A    between atoms: C6_8  and  C7_9 
ROOT
HETATM    1  C4  UNL     1      26.280  -0.363  53.812  1.00  0.00     0.131 C 
HETATM    2  C5  UNL     1      25.223  -0.212  52.709  1.00  0.00     0.090 C 
HETATM    3  C6  UNL     1      24.013  -0.120  53.600  1.00  0.00     0.066 C 
HETATM    4  N1  UNL     1      24.298  -0.773  54.680  1.00  0.00    -0.183 NA
HETATM    5  N2  UNL     1      25.578  -1.317  54.648  1.00  0.00    -0.306 N 
HETATM    6  H17 UNL     1      25.952  -2.188  55.102  1.00  0.00     0.182 HD
ENDROOT
BRANCH   3   7
HETATM    7  C7  UNL     1      22.769   0.582  53.280  1.00  0.00    -0.007 A 
HETATM    8  C8  UNL     1      21.567   0.187  53.829  1.00  0.00     0.016 A 
HETATM    9  C9  UNL     1      20.393   0.845  53.531  1.00  0.00     0.040 A 
HETATM   10  C10 UNL     1      20.483   1.914  52.659  1.00  0.00     0.102 A 
HETATM   11  C11 UNL     1      21.674   2.321  52.104  1.00  0.00     0.103 A 
HETATM   12  O3  UNL     1      19.368   2.656  52.283  1.00  0.00    -0.346 OA
HETATM   13  C12 UNL     1      22.832   1.649  52.415  1.00  0.00     0.053 A 
HETATM   14  O2  UNL     1      21.807   3.389  51.226  1.00  0.00    -0.346 OA
HETATM   15  C13 UNL     1      20.629   3.917  50.632  1.00  0.00     0.202 C 
HETATM   16  C14 UNL     1      19.431   3.853  51.541  1.00  0.00     0.202 C 
ENDBRANCH   3   7
BRANCH   1  17
HETATM   17  C3  UNL     1      27.587  -0.887  53.266  1.00  0.00     0.194 C 
BRANCH  17  18
HETATM   18  O1  UNL     1      28.599  -0.881  54.192  1.00  0.00    -0.388 OA
BRANCH  18  19
HETATM   19  C2  UNL     1      28.701   0.265  54.933  1.00  0.00     0.182 C 
BRANCH  19  20
HETATM   20  C1  UNL     1      29.535   1.336  54.266  1.00  0.00     0.140 C 
HETATM   21 CL1  UNL     1      28.495   2.572  53.525  1.00  0.00    -0.128 Cl
ENDBRANCH  19  20
ENDBRANCH  18  19
ENDBRANCH  17  18
ENDBRANCH   1  17
TORSDOF 5
ENDMDL
MODEL 5
REMARK VINA RESULT:      -6.5      3.683      7.758
REMARK  5 active torsions:
REMARK  status: ('A' for Active; 'I' for Inactive)
REMARK    1  A    between atoms: C1_2  and  C2_3 
REMARK    2  A    between atoms: C2_3  and  O1_4 
REMARK    3  A    between atoms: O1_4  and  C3_5 
REMARK    4  A    between atoms: C3_5  and  C4_6 
REMARK    5  A    between atoms: C6_8  and  C7_9 
ROOT
HETATM    1  C4  UNL     1      21.206   3.634  52.422  1.00  0.00     0.131 C 
HETATM    2  C5  UNL     1      21.982   2.396  51.952  1.00  0.00     0.090 C 
HETATM    3  C6  UNL     1      23.319   2.759  52.540  1.00  0.00     0.066 C 
HETATM    4  N1  UNL     1      23.362   4.051  52.590  1.00  0.00    -0.183 NA
HETATM    5  N2  UNL     1      22.201   4.640  52.101  1.00  0.00    -0.306 N 
HETATM    6  H17 UNL     1      22.064   5.566  51.623  1.00  0.00     0.182 HD
ENDROOT
BRANCH   3   7
HETATM    7  C7  UNL     1      24.350   1.811  52.965  1.00  0.00    -0.007 A 
HETATM    8  C8  UNL     1      24.090   0.459  53.034  1.00  0.00     0.016 A 
HETATM    9  C9  UNL     1      25.058  -0.438  53.433  1.00  0.00     0.040 A 
HETATM   10  C10 UNL     1      26.295   0.086  53.758  1.00  0.00     0.102 A 
HETATM   11  C11 UNL     1      26.571   1.432  53.693  1.00  0.00     0.103 A 
HETATM   12  O3  UNL     1      27.351  -0.719  54.173  1.00  0.00    -0.346 OA
HETATM   13  C12 UNL     1      25.591   2.307  53.293  1.00  0.00     0.053 A 
HETATM   14  O2  UNL     1      27.800   1.997  54.010  1.00  0.00    -0.346 OA
HETATM   15  C13 UNL     1      28.742   1.200  54.715  1.00  0.00     0.202 C 
HETATM   16  C14 UNL     1      28.672  -0.258  54.347  1.00  0.00     0.202 C 
ENDBRANCH   3   7
BRANCH   1  17
HETATM   17  C3  UNL     1      19.911   3.805  51.664  1.00  0.00     0.194 C 
BRANCH  17  18
HETATM   18  O1  UNL     1      18.905   2.997  52.130  1.00  0.00    -0.388 OA
BRANCH  18  19
HETATM   19  C2  UNL     1      18.054   2.519  51.173  1.00  0.00     0.182 C 
BRANCH  19  20
HETATM   20  C1  UNL     1      18.549   1.252  50.511  1.00  0.00     0.140 C 
HETATM   21 CL1  UNL     1      19.097   0.080  51.730  1.00  0.00    -0.128 Cl
ENDBRANCH  19  20
ENDBRANCH  18  19
ENDBRANCH  17  18
ENDBRANCH   1  17
TORSDOF 5
ENDMDL
MODEL 6
REMARK VINA RESULT:      -6.4      4.280      7.150
REMARK  5 active torsions:
REMARK  status: ('A' for Active; 'I' for Inactive)
REMARK    1  A    between atoms: C1_2  and  C2_3 
REMARK    2  A    between atoms: C2_3  and  O1_4 
REMARK    3  A    between atoms: O1_4  and  C3_5 
REMARK    4  A    between atoms: C3_5  and  C4_6 
REMARK    5  A    between atoms: C6_8  and  C7_9 
ROOT
HETATM    1  C4  UNL     1      22.562   4.197  51.507  1.00  0.00     0.131 C 
HETATM    2  C5  UNL     1      23.600   3.989  52.618  1.00  0.00     0.090 C 
HETATM    3  C6  UNL     1      23.527   2.487  52.685  1.00  0.00     0.066 C 
HETATM    4  N1  UNL     1      22.335   2.157  52.307  1.00  0.00    -0.183 NA
HETATM    5  N2  UNL     1      21.557   3.264  51.980  1.00  0.00    -0.306 N 
HETATM    6  H17 UNL     1      20.518   3.403  52.052  1.00  0.00     0.182 HD
ENDROOT
BRANCH   3   7
HETATM    7  C7  UNL     1      24.613   1.598  53.101  1.00  0.00    -0.007 A 
HETATM    8  C8  UNL     1      24.412   0.239  53.227  1.00  0.00     0.016 A 
HETATM    9  C9  UNL     1      25.432  -0.603  53.618  1.00  0.00     0.040 A 
HETATM   10  C10 UNL     1      26.657  -0.018  53.875  1.00  0.00     0.102 A 
HETATM   11  C11 UNL     1      26.874   1.336  53.753  1.00  0.00     0.103 A 
HETATM   12  O3  UNL     1      27.762  -0.763  54.276  1.00  0.00    -0.346 OA
HETATM   13  C12 UNL     1      25.842   2.155  53.363  1.00  0.00     0.053 A 
HETATM   14  O2  UNL     1      28.089   1.961  54.001  1.00  0.00    -0.346 OA
HETATM   15  C13 UNL     1      29.090   1.229  54.695  1.00  0.00     0.202 C 
HETATM   16  C14 UNL     1      29.068  -0.242  54.380  1.00  0.00     0.202 C 
ENDBRANCH   3   7
BRANCH   1  17
HETATM   17  C3  UNL     1      22.078   5.626  51.453  1.00  0.00     0.194 C 
BRANCH  17  18
HETATM   18  O1  UNL     1      22.999   6.486  50.909  1.00  0.00    -0.388 OA
BRANCH  18  19
HETATM   19  C2  UNL     1      23.617   6.033  49.776  1.00  0.00     0.182 C 
BRANCH  19  20
HETATM   20  C1  UNL     1      25.123   6.171  49.821  1.00  0.00     0.140 C 
HETATM   21 CL1  UNL     1      25.907   4.630  49.413  1.00  0.00    -0.128 Cl
ENDBRANCH  19  20
ENDBRANCH  18  19
ENDBRANCH  17  18
ENDBRANCH   1  17
TORSDOF 5
ENDMDL
MODEL 7
REMARK VINA RESULT:      -6.4      3.002      7.654
REMARK  5 active torsions:
REMARK  status: ('A' for Active; 'I' for Inactive)
REMARK    1  A    between atoms: C1_2  and  C2_3 
REMARK    2  A    between atoms: C2_3  and  O1_4 
REMARK    3  A    between atoms: O1_4  and  C3_5 
REMARK    4  A    between atoms: C3_5  and  C4_6 
REMARK    5  A    between atoms: C6_8  and  C7_9 
ROOT
HETATM    1  C4  UNL     1      21.688  -0.092  51.926  1.00  0.00     0.131 C 
HETATM    2  C5  UNL     1      22.760   0.997  52.073  1.00  0.00     0.090 C 
HETATM    3  C6  UNL     1      23.657   0.269  53.038  1.00  0.00     0.066 C 
HETATM    4  N1  UNL     1      22.901  -0.538  53.709  1.00  0.00    -0.183 NA
HETATM    5  N2  UNL     1      21.566  -0.458  53.324  1.00  0.00    -0.306 N 
HETATM    6  H17 UNL     1      20.692  -0.616  53.885  1.00  0.00     0.182 HD
ENDROOT
BRANCH   3   7
HETATM    7  C7  UNL     1      25.103   0.457  53.167  1.00  0.00    -0.007 A 
HETATM    8  C8  UNL     1      25.656   1.720  53.203  1.00  0.00     0.016 A 
HETATM    9  C9  UNL     1      27.018   1.903  53.325  1.00  0.00     0.040 A 
HETATM   10  C10 UNL     1      27.793   0.761  53.408  1.00  0.00     0.102 A 
HETATM   11  C11 UNL     1      27.256  -0.505  53.374  1.00  0.00     0.103 A 
HETATM   12  O3  UNL     1      29.178   0.817  53.534  1.00  0.00    -0.346 OA
HETATM   13  C12 UNL     1      25.897  -0.663  53.251  1.00  0.00     0.053 A 
HETATM   14  O2  UNL     1      28.001  -1.675  53.455  1.00  0.00    -0.346 OA
HETATM   15  C13 UNL     1      29.407  -1.588  53.272  1.00  0.00     0.202 C 
HETATM   16  C14 UNL     1      29.991  -0.304  53.796  1.00  0.00     0.202 C 
ENDBRANCH   3   7
BRANCH   1  17
HETATM   17  C3  UNL     1      20.411   0.456  51.334  1.00  0.00     0.194 C 
BRANCH  17  18
HETATM   18  O1  UNL     1      20.588   1.654  50.689  1.00  0.00    -0.388 OA
BRANCH  18  19
HETATM   19  C2  UNL     1      19.560   2.545  50.827  1.00  0.00     0.182 C 
BRANCH  19  20
HETATM   20  C1  UNL     1      19.828   3.612  51.865  1.00  0.00     0.140 C 
HETATM   21 CL1  UNL     1      21.440   4.323  51.634  1.00  0.00    -0.128 Cl
ENDBRANCH  19  20
ENDBRANCH  18  19
ENDBRANCH  17  18
ENDBRANCH   1  17
TORSDOF 5
ENDMDL
MODEL 8
REMARK VINA RESULT:      -6.4      5.109      5.825
REMARK  5 active torsions:
REMARK  status: ('A' for Active; 'I' for Inactive)
REMARK    1  A    between atoms: C1_2  and  C2_3 
REMARK    2  A    between atoms: C2_3  and  O1_4 
REMARK    3  A    between atoms: O1_4  and  C3_5 
REMARK    4  A    between atoms: C3_5  and  C4_6 
REMARK    5  A    between atoms: C6_8  and  C7_9 
ROOT
HETATM    1  C4  UNL     1      25.825   4.430  50.105  1.00  0.00     0.131 C 
HETATM    2  C5  UNL     1      24.826   3.333  49.710  1.00  0.00     0.090 C 
HETATM    3  C6  UNL     1      24.899   2.527  50.979  1.00  0.00     0.066 C 
HETATM    4  N1  UNL     1      26.076   2.725  51.476  1.00  0.00    -0.183 NA
HETATM    5  N2  UNL     1      26.844   3.584  50.696  1.00  0.00    -0.306 N 
HETATM    6  H17 UNL     1      27.885   3.622  50.560  1.00  0.00     0.182 HD
ENDROOT
BRANCH   3   7
HETATM    7  C7  UNL     1      23.827   1.690  51.520  1.00  0.00    -0.007 A 
HETATM    8  C8  UNL     1      22.588   1.641  50.916  1.00  0.00     0.016 A 
HETATM    9  C9  UNL     1      21.575   0.854  51.422  1.00  0.00     0.040 A 
HETATM   10  C10 UNL     1      21.865   0.122  52.558  1.00  0.00     0.102 A 
HETATM   11  C11 UNL     1      23.095   0.159  53.172  1.00  0.00     0.103 A 
HETATM   12  O3  UNL     1      20.925  -0.708  53.161  1.00  0.00    -0.346 OA
HETATM   13  C12 UNL     1      24.090   0.952  52.650  1.00  0.00     0.053 A 
HETATM   14  O2  UNL     1      23.426  -0.560  54.313  1.00  0.00    -0.346 OA
HETATM   15  C13 UNL     1      22.371  -1.143  55.066  1.00  0.00     0.202 C 
HETATM   16  C14 UNL     1      21.221  -1.602  54.211  1.00  0.00     0.202 C 
ENDBRANCH   3   7
BRANCH   1  17
HETATM   17  C3  UNL     1      26.309   5.206  48.903  1.00  0.00     0.194 C 
BRANCH  17  18
HETATM   18  O1  UNL     1      27.566   4.837  48.496  1.00  0.00    -0.388 OA
BRANCH  18  19
HETATM   19  C2  UNL     1      28.419   5.874  48.232  1.00  0.00     0.182 C 
BRANCH  19  20
HETATM   20  C1  UNL     1      27.723   7.215  48.154  1.00  0.00     0.140 C 
HETATM   21 CL1  UNL     1      28.123   8.042  46.633  1.00  0.00    -0.128 Cl
ENDBRANCH  19  20
ENDBRANCH  18  19
ENDBRANCH  17  18
ENDBRANCH   1  17
TORSDOF 5
ENDMDL
MODEL 9
REMARK VINA RESULT:      -6.4      3.974      4.706
REMARK  5 active torsions:
REMARK  status: ('A' for Active; 'I' for Inactive)
REMARK    1  A    between atoms: C1_2  and  C2_3 
REMARK    2  A    between atoms: C2_3  and  O1_4 
REMARK    3  A    between atoms: O1_4  and  C3_5 
REMARK    4  A    between atoms: C3_5  and  C4_6 
REMARK    5  A    between atoms: C6_8  and  C7_9 
ROOT
HETATM    1  C4  UNL     1      25.532   0.200  53.365  1.00  0.00     0.131 C 
HETATM    2  C5  UNL     1      25.119   0.994  52.118  1.00  0.00     0.090 C 
HETATM    3  C6  UNL     1      23.743   1.393  52.578  1.00  0.00     0.066 C 
HETATM    4  N1  UNL     1      23.347   0.476  53.400  1.00  0.00    -0.183 NA
HETATM    5  N2  UNL     1      24.295  -0.528  53.570  1.00  0.00    -0.306 N 
HETATM    6  H17 UNL     1      24.164  -1.548  53.788  1.00  0.00     0.182 HD
ENDROOT
BRANCH   3   7
HETATM    7  C7  UNL     1      23.018   2.595  52.159  1.00  0.00    -0.007 A 
HETATM    8  C8  UNL     1      21.652   2.573  51.972  1.00  0.00     0.016 A 
HETATM    9  C9  UNL     1      20.965   3.702  51.578  1.00  0.00     0.040 A 
HETATM   10  C10 UNL     1      21.713   4.849  51.383  1.00  0.00     0.102 A 
HETATM   11  C11 UNL     1      23.076   4.886  51.567  1.00  0.00     0.103 A 
HETATM   12  O3  UNL     1      21.133   6.049  50.986  1.00  0.00    -0.346 OA
HETATM   13  C12 UNL     1      23.739   3.749  51.959  1.00  0.00     0.053 A 
HETATM   14  O2  UNL     1      23.862   6.017  51.382  1.00  0.00    -0.346 OA
HETATM   15  C13 UNL     1      23.294   7.121  50.690  1.00  0.00     0.202 C 
HETATM   16  C14 UNL     1      21.820   7.280  50.943  1.00  0.00     0.202 C 
ENDBRANCH   3   7
BRANCH   1  17
HETATM   17  C3  UNL     1      26.718  -0.693  53.093  1.00  0.00     0.194 C 
BRANCH  17  18
HETATM   18  O1  UNL     1      27.501  -0.900  54.200  1.00  0.00    -0.388 OA
BRANCH  18  19
HETATM   19  C2  UNL     1      27.936   0.236  54.824  1.00  0.00     0.182 C 
BRANCH  19  20
HETATM   20  C1  UNL     1      29.095   0.902  54.116  1.00  0.00     0.140 C 
HETATM   21 CL1  UNL     1      28.647   2.535  53.576  1.00  0.00    -0.128 Cl
ENDBRANCH  19  20
ENDBRANCH  18  19
ENDBRANCH  17  18
ENDBRANCH   1  17
TORSDOF 5
ENDMDL
