MODEL 1
REMARK VINA RESULT:      -9.1      0.000      0.000
REMARK  1 active torsions:
REMARK  status: ('A' for Active; 'I' for Inactive)
REMARK    1  A    between atoms: O1_2  and  C2_3 
ROOT
HETATM    1  C2  UNL     1      19.634   0.689  51.168  1.00  0.00     0.080 C 
HETATM    2  C3  UNL     1      19.696   0.963  52.440  1.00  0.00     0.028 C 
HETATM    3  C4  UNL     1      20.296   2.133  52.673  1.00  0.00     0.112 C 
HETATM    4  N1  UNL     1      21.713   2.234  52.521  1.00  0.00    -0.325 N 
HETATM    5  C5  UNL     1      22.417   3.350  52.335  1.00  0.00     0.037 A 
HETATM    6  C6  UNL     1      23.774   2.869  52.351  1.00  0.00     0.038 A 
HETATM    7  C7  UNL     1      23.884   1.497  52.541  1.00  0.00    -0.033 A 
HETATM    8  C8  UNL     1      22.560   1.153  52.643  1.00  0.00     0.023 A 
HETATM    9  C9  UNL     1      22.386  -0.328  52.873  1.00  0.00     0.058 C 
HETATM   10  C10 UNL     1      23.150  -0.621  54.175  1.00  0.00     0.006 C 
HETATM   11  C11 UNL     1      24.622  -0.459  53.891  1.00  0.00     0.005 C 
HETATM   12  C12 UNL     1      24.832   0.367  52.662  1.00  0.00     0.040 C 
HETATM   13  C13 UNL     1      22.663   4.841  52.123  1.00  0.00     0.027 C 
HETATM   14  C14 UNL     1      23.533   5.495  51.261  1.00  0.00     0.128 A 
HETATM   15  C15 UNL     1      24.578   5.538  50.191  1.00  0.00     0.291 A 
HETATM   16  O2  UNL     1      25.152   6.590  50.693  1.00  0.00    -0.271 OA
HETATM   17  N2  UNL     1      24.668   4.585  49.091  1.00  0.00     0.019 N 
HETATM   18  C16 UNL     1      23.555   3.623  49.248  1.00  0.00     0.194 A 
HETATM   19  C17 UNL     1      23.141   2.688  48.391  1.00  0.00     0.051 A 
HETATM   20  C18 UNL     1      21.889   2.714  48.846  1.00  0.00     0.010 A 
HETATM   21  C19 UNL     1      21.158   3.393  49.784  1.00  0.00    -0.028 A 
HETATM   22  C20 UNL     1      22.448   3.819  49.830  1.00  0.00     0.097 A 
HETATM   23  C21 UNL     1      23.522   4.521  50.236  1.00  0.00     0.241 A 
HETATM   24  C22 UNL     1      20.847   1.641  48.796  1.00  0.00    -0.009 C 
HETATM   25  C23 UNL     1      20.288   1.215  49.990  1.00  0.00     0.035 C 
HETATM   26  H15 UNL     1      25.471   4.724  48.385  1.00  0.00     0.292 HD
ENDROOT
BRANCH   1  27
HETATM   27  O1  UNL     1      18.702  -0.311  51.199  1.00  0.00    -0.355 OA
HETATM   28  C1  UNL     1      18.143  -0.667  52.446  1.00  0.00     0.210 C 
ENDBRANCH   1  27
TORSDOF 1
ENDMDL
MODEL 2
REMARK VINA RESULT:      -8.7      2.246      4.663
REMARK  1 active torsions:
REMARK  status: ('A' for Active; 'I' for Inactive)
REMARK    1  A    between atoms: O1_2  and  C2_3 
ROOT
HETATM    1  C2  UNL     1      25.311   1.954  53.494  1.00  0.00     0.080 C 
HETATM    2  C3  UNL     1      25.343   0.785  52.922  1.00  0.00     0.028 C 
HETATM    3  C4  UNL     1      24.711   0.785  51.745  1.00  0.00     0.112 C 
HETATM    4  N1  UNL     1      23.283   0.825  51.719  1.00  0.00    -0.325 N 
HETATM    5  C5  UNL     1      22.515   1.207  50.699  1.00  0.00     0.037 A 
HETATM    6  C6  UNL     1      21.188   0.951  51.196  1.00  0.00     0.038 A 
HETATM    7  C7  UNL     1      21.158   0.429  52.483  1.00  0.00    -0.033 A 
HETATM    8  C8  UNL     1      22.500   0.371  52.759  1.00  0.00     0.023 A 
HETATM    9  C9  UNL     1      22.762  -0.190  54.135  1.00  0.00     0.058 C 
HETATM   10  C10 UNL     1      22.123  -1.590  54.122  1.00  0.00     0.006 C 
HETATM   11  C11 UNL     1      20.626  -1.412  54.071  1.00  0.00     0.005 C 
HETATM   12  C12 UNL     1      20.276  -0.046  53.573  1.00  0.00     0.040 C 
HETATM   13  C13 UNL     1      22.184   1.747  49.311  1.00  0.00     0.027 C 
HETATM   14  C14 UNL     1      21.215   2.656  48.908  1.00  0.00     0.128 A 
HETATM   15  C15 UNL     1      20.084   3.604  49.152  1.00  0.00     0.291 A 
HETATM   16  O2  UNL     1      19.505   3.318  48.024  1.00  0.00    -0.271 OA
HETATM   17  N2  UNL     1      19.946   4.431  50.345  1.00  0.00     0.019 N 
HETATM   18  C16 UNL     1      21.112   4.152  51.212  1.00  0.00     0.194 A 
HETATM   19  C17 UNL     1      21.496   4.794  52.317  1.00  0.00     0.051 A 
HETATM   20  C18 UNL     1      22.778   4.476  52.150  1.00  0.00     0.010 A 
HETATM   21  C19 UNL     1      23.553   3.799  51.246  1.00  0.00    -0.028 A 
HETATM   22  C20 UNL     1      22.253   3.738  50.853  1.00  0.00     0.097 A 
HETATM   23  C21 UNL     1      21.186   3.414  50.101  1.00  0.00     0.241 A 
HETATM   24  C22 UNL     1      23.862   4.363  53.177  1.00  0.00    -0.009 C 
HETATM   25  C23 UNL     1      24.538   3.158  53.287  1.00  0.00     0.035 C 
HETATM   26  H15 UNL     1      19.082   5.072  50.402  1.00  0.00     0.292 HD
ENDROOT
BRANCH   1  27
HETATM   27  O1  UNL     1      26.288   1.770  54.434  1.00  0.00    -0.355 OA
HETATM   28  C1  UNL     1      26.610   0.450  54.815  1.00  0.00     0.210 C 
ENDBRANCH   1  27
TORSDOF 1
ENDMDL
MODEL 3
REMARK VINA RESULT:      -8.3      2.426      5.156
REMARK  1 active torsions:
REMARK  status: ('A' for Active; 'I' for Inactive)
REMARK    1  A    between atoms: O1_2  and  C2_3 
ROOT
HETATM    1  C2  UNL     1      20.878   0.399  51.657  1.00  0.00     0.080 C 
HETATM    2  C3  UNL     1      21.340   1.102  50.663  1.00  0.00     0.028 C 
HETATM    3  C4  UNL     1      22.660   0.962  50.520  1.00  0.00     0.112 C 
HETATM    4  N1  UNL     1      23.536   1.598  51.455  1.00  0.00    -0.325 N 
HETATM    5  C5  UNL     1      24.805   1.276  51.703  1.00  0.00     0.037 A 
HETATM    6  C6  UNL     1      25.206   2.295  52.638  1.00  0.00     0.038 A 
HETATM    7  C7  UNL     1      24.204   3.206  52.946  1.00  0.00    -0.033 A 
HETATM    8  C8  UNL     1      23.180   2.720  52.173  1.00  0.00     0.023 A 
HETATM    9  C9  UNL     1      21.933   3.557  52.310  1.00  0.00     0.058 C 
HETATM   10  C10 UNL     1      22.352   4.971  51.871  1.00  0.00     0.006 C 
HETATM   11  C11 UNL     1      23.286   5.520  52.921  1.00  0.00     0.005 C 
HETATM   12  C12 UNL     1      23.868   4.410  53.738  1.00  0.00     0.040 C 
HETATM   13  C13 UNL     1      26.104   0.485  51.593  1.00  0.00     0.027 C 
HETATM   14  C14 UNL     1      26.989   0.068  52.578  1.00  0.00     0.128 A 
HETATM   15  C15 UNL     1      27.453  -0.061  53.995  1.00  0.00     0.291 A 
HETATM   16  O2  UNL     1      28.708   0.020  53.667  1.00  0.00    -0.271 OA
HETATM   17  N2  UNL     1      26.564  -0.209  55.141  1.00  0.00     0.019 N 
HETATM   18  C16 UNL     1      25.177  -0.215  54.625  1.00  0.00     0.194 A 
HETATM   19  C17 UNL     1      24.050  -0.496  55.282  1.00  0.00     0.051 A 
HETATM   20  C18 UNL     1      23.422  -0.913  54.184  1.00  0.00     0.010 A 
HETATM   21  C19 UNL     1      23.695  -1.078  52.853  1.00  0.00    -0.028 A 
HETATM   22  C20 UNL     1      24.789  -0.560  53.471  1.00  0.00     0.097 A 
HETATM   23  C21 UNL     1      26.036  -0.077  53.613  1.00  0.00     0.241 A 
HETATM   24  C22 UNL     1      21.953  -0.953  53.897  1.00  0.00    -0.009 C 
HETATM   25  C23 UNL     1      21.484  -0.272  52.786  1.00  0.00     0.035 C 
HETATM   26  H15 UNL     1      27.024  -0.289  56.112  1.00  0.00     0.292 HD
ENDROOT
BRANCH   1  27
HETATM   27  O1  UNL     1      19.545   0.434  51.356  1.00  0.00    -0.355 OA
HETATM   28  C1  UNL     1      18.634  -0.127  52.278  1.00  0.00     0.210 C 
ENDBRANCH   1  27
TORSDOF 1
ENDMDL
MODEL 4
REMARK VINA RESULT:      -7.9      1.777      2.401
REMARK  1 active torsions:
REMARK  status: ('A' for Active; 'I' for Inactive)
REMARK    1  A    between atoms: O1_2  and  C2_3 
ROOT
HETATM    1  C2  UNL     1      21.660   0.276  52.163  1.00  0.00     0.080 C 
HETATM    2  C3  UNL     1      22.082   0.950  53.194  1.00  0.00     0.028 C 
HETATM    3  C4  UNL     1      22.054   2.268  52.978  1.00  0.00     0.112 C 
HETATM    4  N1  UNL     1      23.034   2.856  52.119  1.00  0.00    -0.325 N 
HETATM    5  C5  UNL     1      22.945   4.031  51.496  1.00  0.00     0.037 A 
HETATM    6  C6  UNL     1      24.235   4.147  50.867  1.00  0.00     0.038 A 
HETATM    7  C7  UNL     1      25.079   3.069  51.104  1.00  0.00    -0.033 A 
HETATM    8  C8  UNL     1      24.272   2.292  51.895  1.00  0.00     0.023 A 
HETATM    9  C9  UNL     1      24.966   1.022  52.322  1.00  0.00     0.058 C 
HETATM   10  C10 UNL     1      26.222   1.490  53.077  1.00  0.00     0.006 C 
HETATM   11  C11 UNL     1      27.161   2.108  52.070  1.00  0.00     0.005 C 
HETATM   12  C12 UNL     1      26.418   2.502  50.833  1.00  0.00     0.040 C 
HETATM   13  C13 UNL     1      22.308   5.342  51.049  1.00  0.00     0.027 C 
HETATM   14  C14 UNL     1      22.306   5.962  49.806  1.00  0.00     0.128 A 
HETATM   15  C15 UNL     1      22.659   6.057  48.356  1.00  0.00     0.291 A 
HETATM   16  O2  UNL     1      22.779   7.350  48.394  1.00  0.00    -0.271 OA
HETATM   17  N2  UNL     1      22.762   4.912  47.458  1.00  0.00     0.019 N 
HETATM   18  C16 UNL     1      22.446   3.702  48.249  1.00  0.00     0.194 A 
HETATM   19  C17 UNL     1      22.250   2.456  47.815  1.00  0.00     0.051 A 
HETATM   20  C18 UNL     1      21.457   2.141  48.837  1.00  0.00     0.010 A 
HETATM   21  C19 UNL     1      20.933   2.748  49.947  1.00  0.00    -0.028 A 
HETATM   22  C20 UNL     1      21.731   3.631  49.291  1.00  0.00     0.097 A 
HETATM   23  C21 UNL     1      22.371   4.785  49.027  1.00  0.00     0.241 A 
HETATM   24  C22 UNL     1      21.169   0.795  49.426  1.00  0.00    -0.009 C 
HETATM   25  C23 UNL     1      21.430   0.599  50.772  1.00  0.00     0.035 C 
HETATM   26  H15 UNL     1      23.027   5.113  46.433  1.00  0.00     0.292 HD
ENDROOT
BRANCH   1  27
HETATM   27  O1  UNL     1      21.454  -0.937  52.758  1.00  0.00    -0.355 OA
HETATM   28  C1  UNL     1      22.227  -1.268  53.892  1.00  0.00     0.210 C 
ENDBRANCH   1  27
TORSDOF 1
ENDMDL
MODEL 5
REMARK VINA RESULT:      -7.9      2.459      5.104
REMARK  1 active torsions:
REMARK  status: ('A' for Active; 'I' for Inactive)
REMARK    1  A    between atoms: O1_2  and  C2_3 
ROOT
HETATM    1  C2  UNL     1      25.329   0.708  53.658  1.00  0.00     0.080 C 
HETATM    2  C3  UNL     1      25.722   1.935  53.850  1.00  0.00     0.028 C 
HETATM    3  C4  UNL     1      24.710   2.803  53.779  1.00  0.00     0.112 C 
HETATM    4  N1  UNL     1      24.149   3.120  52.503  1.00  0.00    -0.325 N 
HETATM    5  C5  UNL     1      22.943   3.635  52.269  1.00  0.00     0.037 A 
HETATM    6  C6  UNL     1      22.961   3.831  50.842  1.00  0.00     0.038 A 
HETATM    7  C7  UNL     1      24.147   3.442  50.233  1.00  0.00    -0.033 A 
HETATM    8  C8  UNL     1      24.855   3.006  51.324  1.00  0.00     0.023 A 
HETATM    9  C9  UNL     1      26.232   2.524  50.938  1.00  0.00     0.058 C 
HETATM   10  C10 UNL     1      26.905   3.737  50.273  1.00  0.00     0.006 C 
HETATM   11  C11 UNL     1      26.214   3.980  48.954  1.00  0.00     0.005 C 
HETATM   12  C12 UNL     1      24.864   3.336  48.943  1.00  0.00     0.040 C 
HETATM   13  C13 UNL     1      21.547   4.156  52.595  1.00  0.00     0.027 C 
HETATM   14  C14 UNL     1      20.335   3.941  51.953  1.00  0.00     0.128 A 
HETATM   15  C15 UNL     1      19.469   3.339  50.892  1.00  0.00     0.291 A 
HETATM   16  O2  UNL     1      18.696   4.381  50.830  1.00  0.00    -0.271 OA
HETATM   17  N2  UNL     1      19.675   2.014  50.318  1.00  0.00     0.019 N 
HETATM   18  C16 UNL     1      20.856   1.423  50.984  1.00  0.00     0.194 A 
HETATM   19  C17 UNL     1      21.312   0.171  50.905  1.00  0.00     0.051 A 
HETATM   20  C18 UNL     1      21.872   0.217  52.113  1.00  0.00     0.010 A 
HETATM   21  C19 UNL     1      21.992   1.103  53.150  1.00  0.00    -0.028 A 
HETATM   22  C20 UNL     1      21.300   1.691  52.139  1.00  0.00     0.097 A 
HETATM   23  C21 UNL     1      20.624   2.644  51.472  1.00  0.00     0.241 A 
HETATM   24  C22 UNL     1      23.022  -0.580  52.648  1.00  0.00    -0.009 C 
HETATM   25  C23 UNL     1      24.125   0.106  53.129  1.00  0.00     0.035 C 
HETATM   26  H15 UNL     1      18.981   1.695  49.557  1.00  0.00     0.292 HD
ENDROOT
BRANCH   1  27
HETATM   27  O1  UNL     1      26.428   0.044  54.129  1.00  0.00    -0.355 OA
HETATM   28  C1  UNL     1      27.706   0.552  53.807  1.00  0.00     0.210 C 
ENDBRANCH   1  27
TORSDOF 1
ENDMDL
MODEL 6
REMARK VINA RESULT:      -7.8      2.453      5.184
REMARK  1 active torsions:
REMARK  status: ('A' for Active; 'I' for Inactive)
REMARK    1  A    between atoms: O1_2  and  C2_3 
ROOT
HETATM    1  C2  UNL     1      20.704   3.326  48.852  1.00  0.00     0.080 C 
HETATM    2  C3  UNL     1      21.394   3.869  47.890  1.00  0.00     0.028 C 
HETATM    3  C4  UNL     1      22.696   3.587  47.987  1.00  0.00     0.112 C 
HETATM    4  N1  UNL     1      23.479   4.234  48.993  1.00  0.00    -0.325 N 
HETATM    5  C5  UNL     1      24.647   3.821  49.481  1.00  0.00     0.037 A 
HETATM    6  C6  UNL     1      25.007   4.893  50.373  1.00  0.00     0.038 A 
HETATM    7  C7  UNL     1      24.078   5.925  50.421  1.00  0.00    -0.033 A 
HETATM    8  C8  UNL     1      23.142   5.457  49.534  1.00  0.00     0.023 A 
HETATM    9  C9  UNL     1      21.991   6.420  49.380  1.00  0.00     0.058 C 
HETATM   10  C10 UNL     1      22.632   7.730  48.891  1.00  0.00     0.006 C 
HETATM   11  C11 UNL     1      23.443   8.299  50.029  1.00  0.00     0.005 C 
HETATM   12  C12 UNL     1      23.759   7.234  51.032  1.00  0.00     0.040 C 
HETATM   13  C13 UNL     1      25.850   2.902  49.666  1.00  0.00     0.027 C 
HETATM   14  C14 UNL     1      26.515   2.512  50.821  1.00  0.00     0.128 A 
HETATM   15  C15 UNL     1      26.731   2.495  52.301  1.00  0.00     0.291 A 
HETATM   16  O2  UNL     1      28.023   2.419  52.185  1.00  0.00    -0.271 OA
HETATM   17  N2  UNL     1      25.660   2.559  53.289  1.00  0.00     0.019 N 
HETATM   18  C16 UNL     1      24.381   2.630  52.549  1.00  0.00     0.194 A 
HETATM   19  C17 UNL     1      23.140   2.532  53.029  1.00  0.00     0.051 A 
HETATM   20  C18 UNL     1      22.651   2.059  51.883  1.00  0.00     0.010 A 
HETATM   21  C19 UNL     1      23.111   1.724  50.638  1.00  0.00    -0.028 A 
HETATM   22  C20 UNL     1      24.145   2.199  51.382  1.00  0.00     0.097 A 
HETATM   23  C21 UNL     1      25.400   2.573  51.689  1.00  0.00     0.241 A 
HETATM   24  C22 UNL     1      21.251   2.130  51.357  1.00  0.00    -0.009 C 
HETATM   25  C23 UNL     1      21.044   2.727  50.124  1.00  0.00     0.035 C 
HETATM   26  H15 UNL     1      25.948   2.541  54.328  1.00  0.00     0.292 HD
ENDROOT
BRANCH   1  27
HETATM   27  O1  UNL     1      19.448   3.455  48.327  1.00  0.00    -0.355 OA
HETATM   28  C1  UNL     1      19.274   3.232  46.944  1.00  0.00     0.210 C 
ENDBRANCH   1  27
TORSDOF 1
ENDMDL
MODEL 7
REMARK VINA RESULT:      -7.8      8.761     12.358
REMARK  1 active torsions:
REMARK  status: ('A' for Active; 'I' for Inactive)
REMARK    1  A    between atoms: O1_2  and  C2_3 
ROOT
HETATM    1  C2  UNL     1      30.642   9.154  44.457  1.00  0.00     0.080 C 
HETATM    2  C3  UNL     1      30.285   9.774  45.545  1.00  0.00     0.028 C 
HETATM    3  C4  UNL     1      31.155   9.582  46.541  1.00  0.00     0.112 C 
HETATM    4  N1  UNL     1      31.191   8.315  47.203  1.00  0.00    -0.325 N 
HETATM    5  C5  UNL     1      32.199   7.819  47.920  1.00  0.00     0.037 A 
HETATM    6  C6  UNL     1      31.648   6.585  48.417  1.00  0.00     0.038 A 
HETATM    7  C7  UNL     1      30.342   6.344  48.009  1.00  0.00    -0.033 A 
HETATM    8  C8  UNL     1      30.108   7.463  47.251  1.00  0.00     0.023 A 
HETATM    9  C9  UNL     1      28.712   7.466  46.679  1.00  0.00     0.058 C 
HETATM   10  C10 UNL     1      27.781   7.402  47.901  1.00  0.00     0.006 C 
HETATM   11  C11 UNL     1      27.926   6.034  48.520  1.00  0.00     0.005 C 
HETATM   12  C12 UNL     1      29.209   5.396  48.088  1.00  0.00     0.040 C 
HETATM   13  C13 UNL     1      33.588   7.767  48.546  1.00  0.00     0.027 C 
HETATM   14  C14 UNL     1      34.489   6.715  48.647  1.00  0.00     0.128 A 
HETATM   15  C15 UNL     1      34.935   5.306  48.416  1.00  0.00     0.291 A 
HETATM   16  O2  UNL     1      35.577   5.247  49.544  1.00  0.00    -0.271 OA
HETATM   17  N2  UNL     1      34.600   4.521  47.234  1.00  0.00     0.019 N 
HETATM   18  C16 UNL     1      33.778   5.380  46.352  1.00  0.00     0.194 A 
HETATM   19  C17 UNL     1      33.390   5.148  45.097  1.00  0.00     0.051 A 
HETATM   20  C18 UNL     1      33.310   6.444  44.800  1.00  0.00     0.010 A 
HETATM   21  C19 UNL     1      33.535   7.648  45.413  1.00  0.00    -0.028 A 
HETATM   22  C20 UNL     1      33.776   6.645  46.298  1.00  0.00     0.097 A 
HETATM   23  C21 UNL     1      34.110   6.051  47.458  1.00  0.00     0.241 A 
HETATM   24  C22 UNL     1      32.479   7.121  43.754  1.00  0.00    -0.009 C 
HETATM   25  C23 UNL     1      31.597   8.110  44.158  1.00  0.00     0.035 C 
HETATM   26  H15 UNL     1      34.981   3.514  47.188  1.00  0.00     0.292 HD
ENDROOT
BRANCH   1  27
HETATM   27  O1  UNL     1      29.828   9.789  43.561  1.00  0.00    -0.355 OA
HETATM   28  C1  UNL     1      28.502  10.078  43.948  1.00  0.00     0.210 C 
ENDBRANCH   1  27
TORSDOF 1
ENDMDL
MODEL 8
REMARK VINA RESULT:      -7.7      8.824     12.073
REMARK  1 active torsions:
REMARK  status: ('A' for Active; 'I' for Inactive)
REMARK    1  A    between atoms: O1_2  and  C2_3 
ROOT
HETATM    1  C2  UNL     1      32.616   9.574  45.189  1.00  0.00     0.080 C 
HETATM    2  C3  UNL     1      32.093   8.627  44.463  1.00  0.00     0.028 C 
HETATM    3  C4  UNL     1      30.810   8.413  44.768  1.00  0.00     0.112 C 
HETATM    4  N1  UNL     1      30.484   7.740  45.986  1.00  0.00    -0.325 N 
HETATM    5  C5  UNL     1      29.317   7.775  46.627  1.00  0.00     0.037 A 
HETATM    6  C6  UNL     1      29.531   6.853  47.713  1.00  0.00     0.038 A 
HETATM    7  C7  UNL     1      30.796   6.279  47.725  1.00  0.00    -0.033 A 
HETATM    8  C8  UNL     1      31.348   6.872  46.618  1.00  0.00     0.023 A 
HETATM    9  C9  UNL     1      32.762   6.401  46.382  1.00  0.00     0.058 C 
HETATM   10  C10 UNL     1      32.651   4.876  46.214  1.00  0.00     0.006 C 
HETATM   11  C11 UNL     1      32.283   4.291  47.554  1.00  0.00     0.005 C 
HETATM   12  C12 UNL     1      31.688   5.340  48.440  1.00  0.00     0.040 C 
HETATM   13  C13 UNL     1      27.877   8.193  46.909  1.00  0.00     0.027 C 
HETATM   14  C14 UNL     1      27.257   8.532  48.105  1.00  0.00     0.128 A 
HETATM   15  C15 UNL     1      27.234   8.769  49.581  1.00  0.00     0.291 A 
HETATM   16  O2  UNL     1      26.018   8.330  49.706  1.00  0.00    -0.271 OA
HETATM   17  N2  UNL     1      28.351   9.315  50.344  1.00  0.00     0.019 N 
HETATM   18  C16 UNL     1      29.450   9.580  49.389  1.00  0.00     0.194 A 
HETATM   19  C17 UNL     1      30.594  10.232  49.603  1.00  0.00     0.051 A 
HETATM   20  C18 UNL     1      30.707  10.608  48.330  1.00  0.00     0.010 A 
HETATM   21  C19 UNL     1      30.003  10.484  47.162  1.00  0.00    -0.028 A 
HETATM   22  C20 UNL     1      29.349   9.819  48.150  1.00  0.00     0.097 A 
HETATM   23  C21 UNL     1      28.398   9.072  48.741  1.00  0.00     0.241 A 
HETATM   24  C22 UNL     1      31.942  10.962  47.559  1.00  0.00    -0.009 C 
HETATM   25  C23 UNL     1      32.221  10.247  46.406  1.00  0.00     0.035 C 
HETATM   26  H15 UNL     1      28.209   9.435  51.406  1.00  0.00     0.292 HD
ENDROOT
BRANCH   1  27
HETATM   27  O1  UNL     1      33.744   9.820  44.456  1.00  0.00    -0.355 OA
HETATM   28  C1  UNL     1      34.970   9.291  44.914  1.00  0.00     0.210 C 
ENDBRANCH   1  27
TORSDOF 1
ENDMDL
MODEL 9
REMARK VINA RESULT:      -7.7      8.157     11.825
REMARK  1 active torsions:
REMARK  status: ('A' for Active; 'I' for Inactive)
REMARK    1  A    between atoms: O1_2  and  C2_3 
ROOT
HETATM    1  C2  UNL     1      30.882  10.761  47.853  1.00  0.00     0.080 C 
HETATM    2  C3  UNL     1      30.616  10.466  49.093  1.00  0.00     0.028 C 
HETATM    3  C4  UNL     1      31.238   9.352  49.487  1.00  0.00     0.112 C 
HETATM    4  N1  UNL     1      30.766   8.085  49.022  1.00  0.00    -0.325 N 
HETATM    5  C5  UNL     1      31.452   6.943  48.988  1.00  0.00     0.037 A 
HETATM    6  C6  UNL     1      30.464   6.002  48.528  1.00  0.00     0.038 A 
HETATM    7  C7  UNL     1      29.215   6.562  48.292  1.00  0.00    -0.033 A 
HETATM    8  C8  UNL     1      29.465   7.871  48.619  1.00  0.00     0.023 A 
HETATM    9  C9  UNL     1      28.234   8.729  48.460  1.00  0.00     0.058 C 
HETATM   10  C10 UNL     1      27.187   8.099  49.395  1.00  0.00     0.006 C 
HETATM   11  C11 UNL     1      26.790   6.767  48.809  1.00  0.00     0.005 C 
HETATM   12  C12 UNL     1      27.831   6.284  47.850  1.00  0.00     0.040 C 
HETATM   13  C13 UNL     1      32.653   6.017  49.148  1.00  0.00     0.027 C 
HETATM   14  C14 UNL     1      33.133   5.015  48.315  1.00  0.00     0.128 A 
HETATM   15  C15 UNL     1      33.110   4.178  47.076  1.00  0.00     0.291 A 
HETATM   16  O2  UNL     1      33.547   3.122  47.693  1.00  0.00    -0.271 OA
HETATM   17  N2  UNL     1      32.687   4.660  45.766  1.00  0.00     0.019 N 
HETATM   18  C16 UNL     1      32.317   6.085  45.919  1.00  0.00     0.194 A 
HETATM   19  C17 UNL     1      32.037   6.975  44.965  1.00  0.00     0.051 A 
HETATM   20  C18 UNL     1      32.431   8.009  45.707  1.00  0.00     0.010 A 
HETATM   21  C19 UNL     1      32.962   8.231  46.949  1.00  0.00    -0.028 A 
HETATM   22  C20 UNL     1      32.742   6.899  46.790  1.00  0.00     0.097 A 
HETATM   23  C21 UNL     1      32.709   5.589  47.095  1.00  0.00     0.241 A 
HETATM   24  C22 UNL     1      32.013   9.444  45.619  1.00  0.00    -0.009 C 
HETATM   25  C23 UNL     1      31.465  10.037  46.746  1.00  0.00     0.035 C 
HETATM   26  H15 UNL     1      32.715   3.956  44.950  1.00  0.00     0.292 HD
ENDROOT
BRANCH   1  27
HETATM   27  O1  UNL     1      30.447  12.057  47.833  1.00  0.00    -0.355 OA
HETATM   28  C1  UNL     1      30.094  12.664  49.059  1.00  0.00     0.210 C 
ENDBRANCH   1  27
TORSDOF 1
ENDMDL
