MODEL 1
REMARK VINA RESULT:      -7.9      0.000      0.000
REMARK  5 active torsions:
REMARK  status: ('A' for Active; 'I' for Inactive)
REMARK    1  A    between atoms: C2_2  and  C10_14 
REMARK    2  A    between atoms: C3_3  and  C4_5 
REMARK    3  A    between atoms: C5_6  and  O2_7 
REMARK    4  A    between atoms: C7_9  and  O3_10 
REMARK    5  A    between atoms: C13_17  and  O5_18 
ROOT
HETATM    1  C1  UNL     1      24.156   1.905  52.217  1.00  0.00     0.018 A 
HETATM    2  C2  UNL     1      23.923   0.737  52.775  1.00  0.00     0.014 A 
HETATM    3  C3  UNL     1      25.126   0.002  53.006  1.00  0.00     0.029 A 
HETATM    4  O1  UNL     1      25.130   1.161  52.483  1.00  0.00     0.000 OA
ENDROOT
BRANCH   3   5
HETATM    5  C4  UNL     1      26.473  -0.485  53.114  1.00  0.00    -0.011 C 
HETATM    6  C5  UNL     1      27.361   0.166  53.886  1.00  0.00     0.073 C 
HETATM    7  C6  UNL     1      28.781  -0.098  54.179  1.00  0.00     0.071 C 
HETATM    8  C7  UNL     1      29.345  -1.191  53.730  1.00  0.00     0.069 C 
HETATM    9  C8  UNL     1      28.909  -2.358  52.925  1.00  0.00     0.232 C 
HETATM   10  O4  UNL     1      27.543  -2.577  53.118  1.00  0.00    -0.380 OA
HETATM   11  C9  UNL     1      26.779  -1.714  52.335  1.00  0.00     0.206 C 
BRANCH   6  12
HETATM   12  O2  UNL     1      26.863   1.304  54.539  1.00  0.00    -0.360 OA
HETATM   13  H3  UNL     1      26.014   1.749  54.274  1.00  0.00     0.217 HD
ENDBRANCH   6  12
BRANCH   8  14
HETATM   14  O3  UNL     1      30.683  -1.196  54.145  1.00  0.00    -0.363 OA
HETATM   15  H5  UNL     1      30.934  -1.275  55.142  1.00  0.00     0.217 HD
ENDBRANCH   8  14
ENDBRANCH   3   5
BRANCH   2  16
HETATM   16  C10 UNL     1      22.629   0.183  53.159  1.00  0.00    -0.047 A 
HETATM   17  C11 UNL     1      22.372  -0.497  54.327  1.00  0.00     0.011 A 
HETATM   18  C12 UNL     1      21.101  -0.968  54.565  1.00  0.00     0.037 A 
HETATM   19  C13 UNL     1      20.117  -0.753  53.634  1.00  0.00     0.065 A 
HETATM   20  C14 UNL     1      20.373  -0.067  52.454  1.00  0.00     0.037 A 
HETATM   21  C15 UNL     1      21.667   0.412  52.215  1.00  0.00     0.011 A 
BRANCH  19  22
HETATM   22  O5  UNL     1      18.841  -1.257  53.933  1.00  0.00    -0.361 OA
HETATM   23  H12 UNL     1      18.146  -1.245  53.216  1.00  0.00     0.217 HD
ENDBRANCH  19  22
ENDBRANCH   2  16
TORSDOF 5
ENDMDL
MODEL 2
REMARK VINA RESULT:      -7.5      2.493      6.905
REMARK  5 active torsions:
REMARK  status: ('A' for Active; 'I' for Inactive)
REMARK    1  A    between atoms: C2_2  and  C10_14 
REMARK    2  A    between atoms: C3_3  and  C4_5 
REMARK    3  A    between atoms: C5_6  and  O2_7 
REMARK    4  A    between atoms: C7_9  and  O3_10 
REMARK    5  A    between atoms: C13_17  and  O5_18 
ROOT
HETATM    1  C1  UNL     1      23.470  -0.816  53.904  1.00  0.00     0.018 A 
HETATM    2  C2  UNL     1      24.452  -0.038  53.500  1.00  0.00     0.014 A 
HETATM    3  C3  UNL     1      23.975   1.205  52.985  1.00  0.00     0.029 A 
HETATM    4  O1  UNL     1      23.189   0.314  53.436  1.00  0.00     0.000 OA
ENDROOT
BRANCH   3   5
HETATM    5  C4  UNL     1      23.214   2.340  52.539  1.00  0.00    -0.011 C 
HETATM    6  C5  UNL     1      23.660   3.584  52.785  1.00  0.00     0.073 C 
HETATM    7  C6  UNL     1      23.102   4.907  52.454  1.00  0.00     0.071 C 
HETATM    8  C7  UNL     1      22.031   4.992  51.706  1.00  0.00     0.069 C 
HETATM    9  C8  UNL     1      21.129   4.027  51.029  1.00  0.00     0.232 C 
HETATM   10  O4  UNL     1      21.836   2.867  50.709  1.00  0.00    -0.380 OA
HETATM   11  C9  UNL     1      21.954   2.027  51.815  1.00  0.00     0.206 C 
BRANCH   6  12
HETATM   12  O2  UNL     1      24.877   3.655  53.480  1.00  0.00    -0.360 OA
HETATM   13  H3  UNL     1      25.604   2.985  53.364  1.00  0.00     0.217 HD
ENDBRANCH   6  12
BRANCH   8  14
HETATM   14  O3  UNL     1      21.713   6.347  51.546  1.00  0.00    -0.363 OA
HETATM   15  H5  UNL     1      22.397   7.015  51.160  1.00  0.00     0.217 HD
ENDBRANCH   8  14
ENDBRANCH   3   5
BRANCH   2  16
HETATM   16  C10 UNL     1      25.881  -0.323  53.547  1.00  0.00    -0.047 A 
HETATM   17  C11 UNL     1      26.556  -1.148  52.676  1.00  0.00     0.011 A 
HETATM   18  C12 UNL     1      27.911  -1.329  52.834  1.00  0.00     0.037 A 
HETATM   19  C13 UNL     1      28.562  -0.687  53.856  1.00  0.00     0.065 A 
HETATM   20  C14 UNL     1      27.885   0.146  54.738  1.00  0.00     0.037 A 
HETATM   21  C15 UNL     1      26.506   0.329  54.574  1.00  0.00     0.011 A 
BRANCH  19  22
HETATM   22  O5  UNL     1      29.944  -0.911  53.966  1.00  0.00    -0.361 OA
HETATM   23  H12 UNL     1      30.562  -0.345  53.423  1.00  0.00     0.217 HD
ENDBRANCH  19  22
ENDBRANCH   2  16
TORSDOF 5
ENDMDL
MODEL 3
REMARK VINA RESULT:      -7.4      1.425      6.955
REMARK  5 active torsions:
REMARK  status: ('A' for Active; 'I' for Inactive)
REMARK    1  A    between atoms: C2_2  and  C10_14 
REMARK    2  A    between atoms: C3_3  and  C4_5 
REMARK    3  A    between atoms: C5_6  and  O2_7 
REMARK    4  A    between atoms: C7_9  and  O3_10 
REMARK    5  A    between atoms: C13_17  and  O5_18 
ROOT
HETATM    1  C1  UNL     1      24.830   2.468  53.121  1.00  0.00     0.018 A 
HETATM    2  C2  UNL     1      25.001   1.168  53.233  1.00  0.00     0.014 A 
HETATM    3  C3  UNL     1      23.760   0.461  53.232  1.00  0.00     0.029 A 
HETATM    4  O1  UNL     1      23.818   1.726  53.124  1.00  0.00     0.000 OA
ENDROOT
BRANCH   3   5
HETATM    5  C4  UNL     1      22.388   0.035  53.199  1.00  0.00    -0.011 C 
HETATM    6  C5  UNL     1      21.947  -0.872  54.089  1.00  0.00     0.073 C 
HETATM    7  C6  UNL     1      20.621  -1.483  54.287  1.00  0.00     0.071 C 
HETATM    8  C7  UNL     1      19.600  -1.063  53.584  1.00  0.00     0.069 C 
HETATM    9  C8  UNL     1      19.384  -0.038  52.532  1.00  0.00     0.232 C 
HETATM   10  O4  UNL     1      20.306   0.999  52.690  1.00  0.00    -0.380 OA
HETATM   11  C9  UNL     1      21.544   0.659  52.147  1.00  0.00     0.206 C 
BRANCH   6  12
HETATM   12  O2  UNL     1      22.910  -1.332  55.001  1.00  0.00    -0.360 OA
HETATM   13  H3  UNL     1      23.390  -2.197  54.888  1.00  0.00     0.217 HD
ENDBRANCH   6  12
BRANCH   8  14
HETATM   14  O3  UNL     1      18.471  -1.801  53.963  1.00  0.00    -0.363 OA
HETATM   15  H5  UNL     1      17.735  -1.387  54.555  1.00  0.00     0.217 HD
ENDBRANCH   8  14
ENDBRANCH   3   5
BRANCH   2  16
HETATM   16  C10 UNL     1      26.265   0.449  53.338  1.00  0.00    -0.047 A 
HETATM   17  C11 UNL     1      26.647  -0.606  52.541  1.00  0.00     0.011 A 
HETATM   18  C12 UNL     1      27.873  -1.196  52.749  1.00  0.00     0.037 A 
HETATM   19  C13 UNL     1      28.688  -0.724  53.744  1.00  0.00     0.065 A 
HETATM   20  C14 UNL     1      28.307   0.341  54.551  1.00  0.00     0.037 A 
HETATM   21  C15 UNL     1      27.059   0.940  54.338  1.00  0.00     0.011 A 
BRANCH  19  22
HETATM   22  O5  UNL     1      29.927  -1.366  53.908  1.00  0.00    -0.361 OA
HETATM   23  H12 UNL     1      30.196  -1.653  54.826  1.00  0.00     0.217 HD
ENDBRANCH  19  22
ENDBRANCH   2  16
TORSDOF 5
ENDMDL
MODEL 4
REMARK VINA RESULT:      -7.2      3.088      6.733
REMARK  5 active torsions:
REMARK  status: ('A' for Active; 'I' for Inactive)
REMARK    1  A    between atoms: C2_2  and  C10_14 
REMARK    2  A    between atoms: C3_3  and  C4_5 
REMARK    3  A    between atoms: C5_6  and  O2_7 
REMARK    4  A    between atoms: C7_9  and  O3_10 
REMARK    5  A    between atoms: C13_17  and  O5_18 
ROOT
HETATM    1  C1  UNL     1      26.290   2.340  54.043  1.00  0.00     0.018 A 
HETATM    2  C2  UNL     1      26.302   1.475  53.052  1.00  0.00     0.014 A 
HETATM    3  C3  UNL     1      25.550   1.934  51.928  1.00  0.00     0.029 A 
HETATM    4  O1  UNL     1      25.673   2.625  52.988  1.00  0.00     0.000 OA
ENDROOT
BRANCH   3   5
HETATM    5  C4  UNL     1      24.745   2.648  50.976  1.00  0.00    -0.011 C 
HETATM    6  C5  UNL     1      25.280   3.661  50.272  1.00  0.00     0.073 C 
HETATM    7  C6  UNL     1      24.706   4.553  49.250  1.00  0.00     0.071 C 
HETATM    8  C7  UNL     1      23.491   4.341  48.811  1.00  0.00     0.069 C 
HETATM    9  C8  UNL     1      22.420   3.351  49.086  1.00  0.00     0.232 C 
HETATM   10  O4  UNL     1      22.990   2.145  49.497  1.00  0.00    -0.380 OA
HETATM   11  C9  UNL     1      23.339   2.186  50.846  1.00  0.00     0.206 C 
BRANCH   6  12
HETATM   12  O2  UNL     1      26.630   3.931  50.547  1.00  0.00    -0.360 OA
HETATM   13  H3  UNL     1      26.919   4.595  51.230  1.00  0.00     0.217 HD
ENDBRANCH   6  12
BRANCH   8  14
HETATM   14  O3  UNL     1      23.192   5.321  47.856  1.00  0.00    -0.363 OA
HETATM   15  H5  UNL     1      22.219   5.515  47.574  1.00  0.00     0.217 HD
ENDBRANCH   8  14
ENDBRANCH   3   5
BRANCH   2  16
HETATM   16  C10 UNL     1      26.983   0.185  53.013  1.00  0.00    -0.047 A 
HETATM   17  C11 UNL     1      28.303  -0.025  53.339  1.00  0.00     0.011 A 
HETATM   18  C12 UNL     1      28.821  -1.298  53.259  1.00  0.00     0.037 A 
HETATM   19  C13 UNL     1      28.013  -2.330  52.855  1.00  0.00     0.065 A 
HETATM   20  C14 UNL     1      26.680  -2.121  52.525  1.00  0.00     0.037 A 
HETATM   21  C15 UNL     1      26.156  -0.826  52.609  1.00  0.00     0.011 A 
BRANCH  19  22
HETATM   22  O5  UNL     1      28.598  -3.606  52.792  1.00  0.00    -0.361 OA
HETATM   23  H12 UNL     1      28.197  -4.339  53.339  1.00  0.00     0.217 HD
ENDBRANCH  19  22
ENDBRANCH   2  16
TORSDOF 5
ENDMDL
MODEL 5
REMARK VINA RESULT:      -7.2      1.550      7.014
REMARK  5 active torsions:
REMARK  status: ('A' for Active; 'I' for Inactive)
REMARK    1  A    between atoms: C2_2  and  C10_14 
REMARK    2  A    between atoms: C3_3  and  C4_5 
REMARK    3  A    between atoms: C5_6  and  O2_7 
REMARK    4  A    between atoms: C7_9  and  O3_10 
REMARK    5  A    between atoms: C13_17  and  O5_18 
ROOT
HETATM    1  C1  UNL     1      24.304   2.902  52.870  1.00  0.00     0.018 A 
HETATM    2  C2  UNL     1      24.433   1.611  53.082  1.00  0.00     0.014 A 
HETATM    3  C3  UNL     1      23.182   0.925  52.999  1.00  0.00     0.029 A 
HETATM    4  O1  UNL     1      23.280   2.179  52.817  1.00  0.00     0.000 OA
ENDROOT
BRANCH   3   5
HETATM    5  C4  UNL     1      21.811   0.520  52.853  1.00  0.00    -0.011 C 
HETATM    6  C5  UNL     1      21.212   0.605  51.652  1.00  0.00     0.073 C 
HETATM    7  C6  UNL     1      19.846   0.269  51.214  1.00  0.00     0.071 C 
HETATM    8  C7  UNL     1      19.021  -0.311  52.048  1.00  0.00     0.069 C 
HETATM    9  C8  UNL     1      19.084  -0.771  53.458  1.00  0.00     0.232 C 
HETATM   10  O4  UNL     1      20.398  -1.111  53.783  1.00  0.00    -0.380 OA
HETATM   11  C9  UNL     1      21.151   0.022  54.087  1.00  0.00     0.206 C 
BRANCH   6  12
HETATM   12  O2  UNL     1      22.020   1.100  50.616  1.00  0.00    -0.360 OA
HETATM   13  H3  UNL     1      21.662   1.660  49.875  1.00  0.00     0.217 HD
ENDBRANCH   6  12
BRANCH   8  14
HETATM   14  O3  UNL     1      17.803  -0.517  51.388  1.00  0.00    -0.363 OA
HETATM   15  H5  UNL     1      16.997  -0.944  51.871  1.00  0.00     0.217 HD
ENDBRANCH   8  14
ENDBRANCH   3   5
BRANCH   2  16
HETATM   16  C10 UNL     1      25.663   0.879  53.363  1.00  0.00    -0.047 A 
HETATM   17  C11 UNL     1      26.402   0.983  54.519  1.00  0.00     0.011 A 
HETATM   18  C12 UNL     1      27.548   0.232  54.654  1.00  0.00     0.037 A 
HETATM   19  C13 UNL     1      27.931  -0.601  53.636  1.00  0.00     0.065 A 
HETATM   20  C14 UNL     1      27.188  -0.709  52.467  1.00  0.00     0.037 A 
HETATM   21  C15 UNL     1      26.023   0.055  52.333  1.00  0.00     0.011 A 
BRANCH  19  22
HETATM   22  O5  UNL     1      29.109  -1.342  53.832  1.00  0.00    -0.361 OA
HETATM   23  H12 UNL     1      29.632  -1.624  53.030  1.00  0.00     0.217 HD
ENDBRANCH  19  22
ENDBRANCH   2  16
TORSDOF 5
ENDMDL
MODEL 6
REMARK VINA RESULT:      -7.2      0.951      2.155
REMARK  5 active torsions:
REMARK  status: ('A' for Active; 'I' for Inactive)
REMARK    1  A    between atoms: C2_2  and  C10_14 
REMARK    2  A    between atoms: C3_3  and  C4_5 
REMARK    3  A    between atoms: C5_6  and  O2_7 
REMARK    4  A    between atoms: C7_9  and  O3_10 
REMARK    5  A    between atoms: C13_17  and  O5_18 
ROOT
HETATM    1  C1  UNL     1      23.910   1.945  51.322  1.00  0.00     0.018 A 
HETATM    2  C2  UNL     1      23.775   1.003  52.231  1.00  0.00     0.014 A 
HETATM    3  C3  UNL     1      25.027   0.627  52.806  1.00  0.00     0.029 A 
HETATM    4  O1  UNL     1      24.936   1.528  51.914  1.00  0.00     0.000 OA
ENDROOT
BRANCH   3   5
HETATM    5  C4  UNL     1      26.402   0.467  53.193  1.00  0.00    -0.011 C 
HETATM    6  C5  UNL     1      27.028  -0.702  52.972  1.00  0.00     0.073 C 
HETATM    7  C6  UNL     1      28.405  -1.144  53.258  1.00  0.00     0.071 C 
HETATM    8  C7  UNL     1      29.279  -0.288  53.723  1.00  0.00     0.069 C 
HETATM    9  C8  UNL     1      29.269   1.153  54.080  1.00  0.00     0.232 C 
HETATM   10  O4  UNL     1      28.319   1.822  53.306  1.00  0.00    -0.380 OA
HETATM   11  C9  UNL     1      27.036   1.653  53.824  1.00  0.00     0.206 C 
BRANCH   6  12
HETATM   12  O2  UNL     1      26.245  -1.692  52.358  1.00  0.00    -0.360 OA
HETATM   13  H3  UNL     1      26.318  -1.914  51.390  1.00  0.00     0.217 HD
ENDBRANCH   6  12
BRANCH   8  14
HETATM   14  O3  UNL     1      30.495  -0.958  53.906  1.00  0.00    -0.363 OA
HETATM   15  H5  UNL     1      31.386  -0.546  53.590  1.00  0.00     0.217 HD
ENDBRANCH   8  14
ENDBRANCH   3   5
BRANCH   2  16
HETATM   16  C10 UNL     1      22.536   0.370  52.670  1.00  0.00    -0.047 A 
HETATM   17  C11 UNL     1      21.300   0.564  52.098  1.00  0.00     0.011 A 
HETATM   18  C12 UNL     1      20.209  -0.100  52.613  1.00  0.00     0.037 A 
HETATM   19  C13 UNL     1      20.375  -0.937  53.685  1.00  0.00     0.065 A 
HETATM   20  C14 UNL     1      21.622  -1.136  54.266  1.00  0.00     0.037 A 
HETATM   21  C15 UNL     1      22.730  -0.460  53.739  1.00  0.00     0.011 A 
BRANCH  19  22
HETATM   22  O5  UNL     1      19.226  -1.586  54.167  1.00  0.00    -0.361 OA
HETATM   23  H12 UNL     1      19.160  -2.577  54.061  1.00  0.00     0.217 HD
ENDBRANCH  19  22
ENDBRANCH   2  16
TORSDOF 5
ENDMDL
MODEL 7
REMARK VINA RESULT:      -7.0      3.868      5.905
REMARK  5 active torsions:
REMARK  status: ('A' for Active; 'I' for Inactive)
REMARK    1  A    between atoms: C2_2  and  C10_14 
REMARK    2  A    between atoms: C3_3  and  C4_5 
REMARK    3  A    between atoms: C5_6  and  O2_7 
REMARK    4  A    between atoms: C7_9  and  O3_10 
REMARK    5  A    between atoms: C13_17  and  O5_18 
ROOT
HETATM    1  C1  UNL     1      20.984   1.993  51.090  1.00  0.00     0.018 A 
HETATM    2  C2  UNL     1      22.061   1.900  51.840  1.00  0.00     0.014 A 
HETATM    3  C3  UNL     1      22.989   2.955  51.582  1.00  0.00     0.029 A 
HETATM    4  O1  UNL     1      21.878   2.866  50.970  1.00  0.00     0.000 OA
ENDROOT
BRANCH   3   5
HETATM    5  C4  UNL     1      23.706   4.110  51.117  1.00  0.00    -0.011 C 
HETATM    6  C5  UNL     1      23.508   5.303  51.705  1.00  0.00     0.073 C 
HETATM    7  C6  UNL     1      24.090   6.631  51.445  1.00  0.00     0.071 C 
HETATM    8  C7  UNL     1      25.052   6.758  50.566  1.00  0.00     0.069 C 
HETATM    9  C8  UNL     1      25.795   5.842  49.665  1.00  0.00     0.232 C 
HETATM   10  O4  UNL     1      25.831   4.562  50.222  1.00  0.00    -0.380 OA
HETATM   11  C9  UNL     1      24.641   3.877  49.986  1.00  0.00     0.206 C 
BRANCH   6  12
HETATM   12  O2  UNL     1      22.582   5.302  52.761  1.00  0.00    -0.360 OA
HETATM   13  H3  UNL     1      22.773   5.718  53.645  1.00  0.00     0.217 HD
ENDBRANCH   6  12
BRANCH   8  14
HETATM   14  O3  UNL     1      25.421   8.108  50.511  1.00  0.00    -0.363 OA
HETATM   15  H5  UNL     1      25.741   8.610  51.353  1.00  0.00     0.217 HD
ENDBRANCH   8  14
ENDBRANCH   3   5
BRANCH   2  16
HETATM   16  C10 UNL     1      22.352   0.884  52.846  1.00  0.00    -0.047 A 
HETATM   17  C11 UNL     1      23.544   0.207  52.968  1.00  0.00     0.011 A 
HETATM   18  C12 UNL     1      23.685  -0.730  53.967  1.00  0.00     0.037 A 
HETATM   19  C13 UNL     1      22.639  -0.970  54.819  1.00  0.00     0.065 A 
HETATM   20  C14 UNL     1      21.434  -0.288  54.699  1.00  0.00     0.037 A 
HETATM   21  C15 UNL     1      21.293   0.665  53.682  1.00  0.00     0.011 A 
BRANCH  19  22
HETATM   22  O5  UNL     1      22.843  -1.936  55.818  1.00  0.00    -0.361 OA
HETATM   23  H12 UNL     1      23.624  -1.828  56.431  1.00  0.00     0.217 HD
ENDBRANCH  19  22
ENDBRANCH   2  16
TORSDOF 5
ENDMDL
MODEL 8
REMARK VINA RESULT:      -7.0      3.693      6.534
REMARK  5 active torsions:
REMARK  status: ('A' for Active; 'I' for Inactive)
REMARK    1  A    between atoms: C2_2  and  C10_14 
REMARK    2  A    between atoms: C3_3  and  C4_5 
REMARK    3  A    between atoms: C5_6  and  O2_7 
REMARK    4  A    between atoms: C7_9  and  O3_10 
REMARK    5  A    between atoms: C13_17  and  O5_18 
ROOT
HETATM    1  C1  UNL     1      21.887   1.065  50.404  1.00  0.00     0.018 A 
HETATM    2  C2  UNL     1      22.227   1.420  51.624  1.00  0.00     0.014 A 
HETATM    3  C3  UNL     1      22.465   2.824  51.729  1.00  0.00     0.029 A 
HETATM    4  O1  UNL     1      22.116   2.277  50.636  1.00  0.00     0.000 OA
ENDROOT
BRANCH   3   5
HETATM    5  C4  UNL     1      22.631   4.238  51.530  1.00  0.00    -0.011 C 
HETATM    6  C5  UNL     1      23.867   4.762  51.447  1.00  0.00     0.073 C 
HETATM    7  C6  UNL     1      24.331   6.147  51.251  1.00  0.00     0.071 C 
HETATM    8  C7  UNL     1      23.462   7.096  51.010  1.00  0.00     0.069 C 
HETATM    9  C8  UNL     1      21.987   7.173  50.865  1.00  0.00     0.232 C 
HETATM   10  O4  UNL     1      21.497   5.954  50.394  1.00  0.00    -0.380 OA
HETATM   11  C9  UNL     1      21.376   5.027  51.428  1.00  0.00     0.206 C 
BRANCH   6  12
HETATM   12  O2  UNL     1      24.917   3.838  51.566  1.00  0.00    -0.360 OA
HETATM   13  H3  UNL     1      25.375   3.439  50.778  1.00  0.00     0.217 HD
ENDBRANCH   6  12
BRANCH   8  14
HETATM   14  O3  UNL     1      24.158   8.303  50.866  1.00  0.00    -0.363 OA
HETATM   15  H5  UNL     1      24.101   9.043  51.582  1.00  0.00     0.217 HD
ENDBRANCH   8  14
ENDBRANCH   3   5
BRANCH   2  16
HETATM   16  C10 UNL     1      22.356   0.556  52.792  1.00  0.00    -0.047 A 
HETATM   17  C11 UNL     1      21.322   0.175  53.616  1.00  0.00     0.011 A 
HETATM   18  C12 UNL     1      21.585  -0.648  54.688  1.00  0.00     0.037 A 
HETATM   19  C13 UNL     1      22.869  -1.070  54.914  1.00  0.00     0.065 A 
HETATM   20  C14 UNL     1      23.916  -0.688  54.085  1.00  0.00     0.037 A 
HETATM   21  C15 UNL     1      23.646   0.149  52.995  1.00  0.00     0.011 A 
BRANCH  19  22
HETATM   22  O5  UNL     1      23.074  -1.908  56.023  1.00  0.00    -0.361 OA
HETATM   23  H12 UNL     1      22.541  -1.740  56.851  1.00  0.00     0.217 HD
ENDBRANCH  19  22
ENDBRANCH   2  16
TORSDOF 5
ENDMDL
MODEL 9
REMARK VINA RESULT:      -7.0      3.243      7.034
REMARK  5 active torsions:
REMARK  status: ('A' for Active; 'I' for Inactive)
REMARK    1  A    between atoms: C2_2  and  C10_14 
REMARK    2  A    between atoms: C3_3  and  C4_5 
REMARK    3  A    between atoms: C5_6  and  O2_7 
REMARK    4  A    between atoms: C7_9  and  O3_10 
REMARK    5  A    between atoms: C13_17  and  O5_18 
ROOT
HETATM    1  C1  UNL     1      23.925   0.888  52.628  1.00  0.00     0.018 A 
HETATM    2  C2  UNL     1      25.154   1.128  52.226  1.00  0.00     0.014 A 
HETATM    3  C3  UNL     1      25.222   2.247  51.340  1.00  0.00     0.029 A 
HETATM    4  O1  UNL     1      24.126   1.853  51.851  1.00  0.00     0.000 OA
ENDROOT
BRANCH   3   5
HETATM    5  C4  UNL     1      24.981   3.385  50.497  1.00  0.00    -0.011 C 
HETATM    6  C5  UNL     1      26.011   4.155  50.102  1.00  0.00     0.073 C 
HETATM    7  C6  UNL     1      26.062   5.360  49.255  1.00  0.00     0.071 C 
HETATM    8  C7  UNL     1      24.977   5.780  48.656  1.00  0.00     0.069 C 
HETATM    9  C8  UNL     1      23.562   5.336  48.585  1.00  0.00     0.232 C 
HETATM   10  O4  UNL     1      23.495   3.953  48.768  1.00  0.00    -0.380 OA
HETATM   11  C9  UNL     1      23.564   3.620  50.120  1.00  0.00     0.206 C 
BRANCH   6  12
HETATM   12  O2  UNL     1      27.272   3.753  50.569  1.00  0.00    -0.360 OA
HETATM   13  H3  UNL     1      28.087   4.316  50.474  1.00  0.00     0.217 HD
ENDBRANCH   6  12
BRANCH   8  14
HETATM   14  O3  UNL     1      25.297   6.930  47.923  1.00  0.00    -0.363 OA
HETATM   15  H5  UNL     1      25.614   6.869  46.943  1.00  0.00     0.217 HD
ENDBRANCH   8  14
ENDBRANCH   3   5
BRANCH   2  16
HETATM   16  C10 UNL     1      26.363   0.401  52.597  1.00  0.00    -0.047 A 
HETATM   17  C11 UNL     1      26.579  -0.941  52.385  1.00  0.00     0.011 A 
HETATM   18  C12 UNL     1      27.770  -1.503  52.786  1.00  0.00     0.037 A 
HETATM   19  C13 UNL     1      28.716  -0.716  53.389  1.00  0.00     0.065 A 
HETATM   20  C14 UNL     1      28.503   0.639  53.606  1.00  0.00     0.037 A 
HETATM   21  C15 UNL     1      27.290   1.208  53.196  1.00  0.00     0.011 A 
BRANCH  19  22
HETATM   22  O5  UNL     1      29.911  -1.345  53.776  1.00  0.00    -0.361 OA
HETATM   23  H12 UNL     1      30.768  -0.843  53.671  1.00  0.00     0.217 HD
ENDBRANCH  19  22
ENDBRANCH   2  16
TORSDOF 5
ENDMDL
