MODEL 1
REMARK VINA RESULT:      -8.9      0.000      0.000
REMARK  0 active torsions:
REMARK  status: ('A' for Active; 'I' for Inactive)
ROOT
HETATM    1  F1  UNL     1      19.191   1.546  49.321  1.00  0.00    -0.242 F 
HETATM    2  C1  UNL     1      19.995   2.665  49.139  1.00  0.00     0.227 C 
HETATM    3  C2  UNL     1      21.305   2.190  48.663  1.00  0.00     0.046 C 
HETATM    4 CL1  UNL     1      21.479   0.423  48.680  1.00  0.00    -0.086 Cl
HETATM    5  C3  UNL     1      22.469   2.683  48.190  1.00  0.00     0.024 C 
HETATM    6  C4  UNL     1      23.091   4.014  48.418  1.00  0.00     0.026 C 
HETATM    7  C5  UNL     1      22.653   5.132  49.030  1.00  0.00     0.012 C 
HETATM    8  C6  UNL     1      21.207   5.552  49.219  1.00  0.00     0.112 C 
HETATM    9  C7  UNL     1      20.819   4.671  50.403  1.00  0.00     0.030 C 
HETATM   10  N1  UNL     1      21.268   4.996  51.609  1.00  0.00    -0.250 NA
HETATM   11  C8  UNL     1      22.554   5.123  52.209  1.00  0.00     0.229 C 
HETATM   12  N2  UNL     1      23.626   5.655  51.735  1.00  0.00    -0.256 NA
HETATM   13  C9  UNL     1      24.530   5.284  50.678  1.00  0.00     0.224 C 
HETATM   14  C10 UNL     1      24.943   3.868  50.847  1.00  0.00     0.168 C 
HETATM   15  N3  UNL     1      24.874   3.435  52.251  1.00  0.00    -0.386 N 
HETATM   16  C11 UNL     1      25.271   2.064  52.394  1.00  0.00     0.038 A 
HETATM   17  C12 UNL     1      26.577   1.887  52.005  1.00  0.00     0.030 A 
HETATM   18  C13 UNL     1      27.215   0.664  52.025  1.00  0.00     0.002 A 
HETATM   19  C14 UNL     1      26.564  -0.466  52.443  1.00  0.00     0.001 A 
HETATM   20  C15 UNL     1      25.260  -0.255  52.824  1.00  0.00     0.013 A 
HETATM   21  C16 UNL     1      24.567   0.962  52.824  1.00  0.00    -0.010 A 
HETATM   22  C17 UNL     1      23.191   0.929  53.284  1.00  0.00     0.013 C 
HETATM   23  C18 UNL     1      22.039   1.395  52.907  1.00  0.00     0.001 C 
HETATM   24  C19 UNL     1      21.446   2.195  51.852  1.00  0.00    -0.003 C 
HETATM   25  C20 UNL     1      20.236   2.595  51.593  1.00  0.00    -0.013 C 
HETATM   26  C21 UNL     1      19.980   3.412  50.420  1.00  0.00     0.096 C 
HETATM   27  N4  UNL     1      23.981   5.542  49.335  1.00  0.00    -0.369 N 
HETATM   28  H10 UNL     1      24.632   3.788  53.197  1.00  0.00     0.159 HD
HETATM   29  H20 UNL     1      24.617   6.022  48.677  1.00  0.00     0.161 HD
ENDROOT
TORSDOF 0
ENDMDL
MODEL 2
REMARK VINA RESULT:      -8.7      1.940      3.617
REMARK  0 active torsions:
REMARK  status: ('A' for Active; 'I' for Inactive)
ROOT
HETATM    1  F1  UNL     1      21.444   0.318  48.846  1.00  0.00    -0.242 F 
HETATM    2  C1  UNL     1      20.939   1.565  49.200  1.00  0.00     0.227 C 
HETATM    3  C2  UNL     1      21.478   2.543  48.242  1.00  0.00     0.046 C 
HETATM    4 CL1  UNL     1      22.696   1.873  47.138  1.00  0.00    -0.086 Cl
HETATM    5  C3  UNL     1      21.337   3.844  47.910  1.00  0.00     0.024 C 
HETATM    6  C4  UNL     1      20.886   4.987  48.746  1.00  0.00     0.026 C 
HETATM    7  C5  UNL     1      20.382   5.061  49.994  1.00  0.00     0.012 C 
HETATM    8  C6  UNL     1      19.637   3.964  50.734  1.00  0.00     0.112 C 
HETATM    9  C7  UNL     1      20.807   3.096  51.185  1.00  0.00     0.030 C 
HETATM   10  N1  UNL     1      21.562   3.521  52.191  1.00  0.00    -0.250 NA
HETATM   11  C8  UNL     1      22.399   4.651  52.419  1.00  0.00     0.229 C 
HETATM   12  N2  UNL     1      22.194   5.889  52.132  1.00  0.00    -0.256 NA
HETATM   13  C9  UNL     1      22.124   6.617  50.892  1.00  0.00     0.224 C 
HETATM   14  C10 UNL     1      23.313   6.305  50.060  1.00  0.00     0.168 C 
HETATM   15  N3  UNL     1      24.468   5.903  50.876  1.00  0.00    -0.386 N 
HETATM   16  C11 UNL     1      25.606   5.600  50.055  1.00  0.00     0.038 A 
HETATM   17  C12 UNL     1      26.009   6.705  49.345  1.00  0.00     0.030 A 
HETATM   18  C13 UNL     1      27.070   6.695  48.464  1.00  0.00     0.002 A 
HETATM   19  C14 UNL     1      27.797   5.555  48.247  1.00  0.00     0.001 A 
HETATM   20  C15 UNL     1      27.368   4.468  48.971  1.00  0.00     0.013 A 
HETATM   21  C16 UNL     1      26.300   4.425  49.876  1.00  0.00    -0.010 A 
HETATM   22  C17 UNL     1      26.050   3.153  50.528  1.00  0.00     0.013 C 
HETATM   23  C18 UNL     1      25.031   2.395  50.798  1.00  0.00     0.001 C 
HETATM   24  C19 UNL     1      23.592   2.350  50.627  1.00  0.00    -0.003 C 
HETATM   25  C20 UNL     1      22.667   1.498  50.959  1.00  0.00    -0.013 C 
HETATM   26  C21 UNL     1      21.280   1.770  50.629  1.00  0.00     0.096 C 
HETATM   27  N4  UNL     1      20.864   6.389  50.162  1.00  0.00    -0.369 N 
HETATM   28  H10 UNL     1      24.753   5.759  51.864  1.00  0.00     0.159 HD
HETATM   29  H20 UNL     1      20.394   7.237  49.805  1.00  0.00     0.161 HD
ENDROOT
TORSDOF 0
ENDMDL
MODEL 3
REMARK VINA RESULT:      -8.6      2.804      4.632
REMARK  0 active torsions:
REMARK  status: ('A' for Active; 'I' for Inactive)
ROOT
HETATM    1  F1  UNL     1      24.922   5.937  51.279  1.00  0.00    -0.242 F 
HETATM    2  C1  UNL     1      23.706   5.597  50.696  1.00  0.00     0.227 C 
HETATM    3  C2  UNL     1      22.789   5.219  51.782  1.00  0.00     0.046 C 
HETATM    4 CL1  UNL     1      23.563   5.127  53.378  1.00  0.00    -0.086 Cl
HETATM    5  C3  UNL     1      21.488   4.911  51.972  1.00  0.00     0.024 C 
HETATM    6  C4  UNL     1      20.504   4.344  51.012  1.00  0.00     0.026 C 
HETATM    7  C5  UNL     1      20.562   4.092  49.690  1.00  0.00     0.012 C 
HETATM    8  C6  UNL     1      21.456   4.783  48.676  1.00  0.00     0.112 C 
HETATM    9  C7  UNL     1      22.775   4.064  48.940  1.00  0.00     0.030 C 
HETATM   10  N1  UNL     1      22.919   2.820  48.499  1.00  0.00    -0.250 NA
HETATM   11  C8  UNL     1      22.268   1.577  48.749  1.00  0.00     0.229 C 
HETATM   12  N2  UNL     1      21.012   1.324  48.866  1.00  0.00    -0.256 NA
HETATM   13  C9  UNL     1      20.026   1.653  49.863  1.00  0.00     0.224 C 
HETATM   14  C10 UNL     1      20.535   1.293  51.209  1.00  0.00     0.168 C 
HETATM   15  N3  UNL     1      21.521   0.203  51.154  1.00  0.00    -0.386 N 
HETATM   16  C11 UNL     1      22.006  -0.128  52.463  1.00  0.00     0.038 A 
HETATM   17  C12 UNL     1      20.987  -0.578  53.267  1.00  0.00     0.030 A 
HETATM   18  C13 UNL     1      21.167  -0.953  54.582  1.00  0.00     0.002 A 
HETATM   19  C14 UNL     1      22.402  -0.894  55.171  1.00  0.00     0.001 A 
HETATM   20  C15 UNL     1      23.399  -0.439  54.341  1.00  0.00     0.013 A 
HETATM   21  C16 UNL     1      23.271  -0.048  53.003  1.00  0.00    -0.010 A 
HETATM   22  C17 UNL     1      24.481   0.388  52.332  1.00  0.00     0.013 C 
HETATM   23  C18 UNL     1      24.855   1.364  51.561  1.00  0.00     0.001 C 
HETATM   24  C19 UNL     1      24.325   2.555  50.926  1.00  0.00    -0.003 C 
HETATM   25  C20 UNL     1      24.833   3.471  50.154  1.00  0.00    -0.013 C 
HETATM   26  C21 UNL     1      24.000   4.560  49.678  1.00  0.00     0.096 C 
HETATM   27  N4  UNL     1      19.589   3.060  49.796  1.00  0.00    -0.369 N 
HETATM   28  H10 UNL     1      21.998  -0.425  50.479  1.00  0.00     0.159 HD
HETATM   29  H20 UNL     1      18.568   3.212  49.832  1.00  0.00     0.161 HD
ENDROOT
TORSDOF 0
ENDMDL
MODEL 4
REMARK VINA RESULT:      -8.4      2.619      4.212
REMARK  0 active torsions:
REMARK  status: ('A' for Active; 'I' for Inactive)
ROOT
HETATM    1  F1  UNL     1      23.204   7.110  49.175  1.00  0.00    -0.242 F 
HETATM    2  C1  UNL     1      22.292   6.199  49.698  1.00  0.00     0.227 C 
HETATM    3  C2  UNL     1      22.646   5.987  51.110  1.00  0.00     0.046 C 
HETATM    4 CL1  UNL     1      24.167   6.764  51.596  1.00  0.00    -0.086 Cl
HETATM    5  C3  UNL     1      22.165   5.370  52.210  1.00  0.00     0.024 C 
HETATM    6  C4  UNL     1      21.261   4.195  52.313  1.00  0.00     0.026 C 
HETATM    7  C5  UNL     1      20.571   3.492  51.393  1.00  0.00     0.012 C 
HETATM    8  C6  UNL     1      20.094   3.996  50.042  1.00  0.00     0.112 C 
HETATM    9  C7  UNL     1      21.389   3.902  49.243  1.00  0.00     0.030 C 
HETATM   10  N1  UNL     1      21.812   2.703  48.857  1.00  0.00    -0.250 NA
HETATM   11  C8  UNL     1      22.215   1.511  49.525  1.00  0.00     0.229 C 
HETATM   12  N2  UNL     1      21.686   0.928  50.543  1.00  0.00    -0.256 NA
HETATM   13  C9  UNL     1      21.589   1.272  51.938  1.00  0.00     0.224 C 
HETATM   14  C10 UNL     1      22.930   1.637  52.459  1.00  0.00     0.168 C 
HETATM   15  N3  UNL     1      24.012   0.992  51.700  1.00  0.00    -0.386 N 
HETATM   16  C11 UNL     1      25.300   1.360  52.213  1.00  0.00     0.038 A 
HETATM   17  C12 UNL     1      25.449   0.945  53.515  1.00  0.00     0.030 A 
HETATM   18  C13 UNL     1      26.586   1.179  54.260  1.00  0.00     0.002 A 
HETATM   19  C14 UNL     1      27.652   1.855  53.730  1.00  0.00     0.001 A 
HETATM   20  C15 UNL     1      27.471   2.257  52.428  1.00  0.00     0.013 A 
HETATM   21  C16 UNL     1      26.342   2.045  51.628  1.00  0.00    -0.010 A 
HETATM   22  C17 UNL     1      26.397   2.561  50.273  1.00  0.00     0.013 C 
HETATM   23  C18 UNL     1      25.631   3.235  49.468  1.00  0.00     0.001 C 
HETATM   24  C19 UNL     1      24.320   3.853  49.426  1.00  0.00    -0.003 C 
HETATM   25  C20 UNL     1      23.662   4.518  48.522  1.00  0.00    -0.013 C 
HETATM   26  C21 UNL     1      22.327   5.009  48.813  1.00  0.00     0.096 C 
HETATM   27  N4  UNL     1      20.589   2.323  52.203  1.00  0.00    -0.369 N 
HETATM   28  H10 UNL     1      24.170   0.346  50.902  1.00  0.00     0.159 HD
HETATM   29  H20 UNL     1      19.942   2.137  52.986  1.00  0.00     0.161 HD
ENDROOT
TORSDOF 0
ENDMDL
MODEL 5
REMARK VINA RESULT:      -7.9      2.173      5.487
REMARK  0 active torsions:
REMARK  status: ('A' for Active; 'I' for Inactive)
ROOT
HETATM    1  F1  UNL     1      20.277   0.861  51.830  1.00  0.00    -0.242 F 
HETATM    2  C1  UNL     1      21.218   1.807  52.221  1.00  0.00     0.227 C 
HETATM    3  C2  UNL     1      20.669   3.132  51.895  1.00  0.00     0.046 C 
HETATM    4 CL1  UNL     1      19.156   3.075  50.967  1.00  0.00    -0.086 Cl
HETATM    5  C3  UNL     1      20.950   4.438  52.085  1.00  0.00     0.024 C 
HETATM    6  C4  UNL     1      22.263   5.096  52.318  1.00  0.00     0.026 C 
HETATM    7  C5  UNL     1      23.502   4.609  52.528  1.00  0.00     0.012 C 
HETATM    8  C6  UNL     1      23.853   3.250  53.106  1.00  0.00     0.112 C 
HETATM    9  C7  UNL     1      23.641   2.369  51.880  1.00  0.00     0.030 C 
HETATM   10  N1  UNL     1      24.549   2.400  50.911  1.00  0.00    -0.250 NA
HETATM   11  C8  UNL     1      25.047   3.398  50.025  1.00  0.00     0.229 C 
HETATM   12  N2  UNL     1      25.356   4.624  50.269  1.00  0.00    -0.256 NA
HETATM   13  C9  UNL     1      24.581   5.790  50.604  1.00  0.00     0.224 C 
HETATM   14  C10 UNL     1      23.465   5.944  49.637  1.00  0.00     0.168 C 
HETATM   15  N3  UNL     1      23.774   5.334  48.334  1.00  0.00    -0.386 N 
HETATM   16  C11 UNL     1      22.683   5.488  47.415  1.00  0.00     0.038 A 
HETATM   17  C12 UNL     1      22.433   6.816  47.164  1.00  0.00     0.030 A 
HETATM   18  C13 UNL     1      21.428   7.253  46.327  1.00  0.00     0.002 A 
HETATM   19  C14 UNL     1      20.605   6.366  45.687  1.00  0.00     0.001 A 
HETATM   20  C15 UNL     1      20.880   5.047  45.960  1.00  0.00     0.013 A 
HETATM   21  C16 UNL     1      21.885   4.550  46.798  1.00  0.00    -0.010 A 
HETATM   22  C17 UNL     1      21.982   3.107  46.917  1.00  0.00     0.013 C 
HETATM   23  C18 UNL     1      22.117   2.226  47.862  1.00  0.00     0.001 C 
HETATM   24  C19 UNL     1      22.250   2.143  49.303  1.00  0.00    -0.003 C 
HETATM   25  C20 UNL     1      22.381   1.159  50.144  1.00  0.00    -0.013 C 
HETATM   26  C21 UNL     1      22.495   1.432  51.565  1.00  0.00     0.096 C 
HETATM   27  N4  UNL     1      24.105   5.784  51.999  1.00  0.00    -0.369 N 
HETATM   28  H10 UNL     1      24.527   4.820  47.838  1.00  0.00     0.159 HD
HETATM   29  H20 UNL     1      24.245   6.663  52.523  1.00  0.00     0.161 HD
ENDROOT
TORSDOF 0
ENDMDL
MODEL 6
REMARK VINA RESULT:      -7.8      6.666      8.300
REMARK  0 active torsions:
REMARK  status: ('A' for Active; 'I' for Inactive)
ROOT
HETATM    1  F1  UNL     1      24.502   7.896  45.329  1.00  0.00    -0.242 F 
HETATM    2  C1  UNL     1      25.033   8.978  46.023  1.00  0.00     0.227 C 
HETATM    3  C2  UNL     1      26.394   9.201  45.511  1.00  0.00     0.046 C 
HETATM    4 CL1  UNL     1      26.953   7.948  44.384  1.00  0.00    -0.086 Cl
HETATM    5  C3  UNL     1      27.402  10.092  45.620  1.00  0.00     0.024 C 
HETATM    6  C4  UNL     1      27.725  11.019  46.738  1.00  0.00     0.026 C 
HETATM    7  C5  UNL     1      27.077  11.334  47.876  1.00  0.00     0.012 C 
HETATM    8  C6  UNL     1      25.582  11.236  48.122  1.00  0.00     0.112 C 
HETATM    9  C7  UNL     1      25.445   9.739  48.379  1.00  0.00     0.030 C 
HETATM   10  N1  UNL     1      25.858   9.255  49.544  1.00  0.00    -0.250 NA
HETATM   11  C8  UNL     1      27.108   9.191  50.226  1.00  0.00     0.229 C 
HETATM   12  N2  UNL     1      28.016  10.094  50.349  1.00  0.00    -0.256 NA
HETATM   13  C9  UNL     1      28.937  10.702  49.425  1.00  0.00     0.224 C 
HETATM   14  C10 UNL     1      29.658   9.646  48.669  1.00  0.00     0.168 C 
HETATM   15  N3  UNL     1      29.742   8.386  49.422  1.00  0.00    -0.386 N 
HETATM   16  C11 UNL     1      30.436   7.377  48.675  1.00  0.00     0.038 A 
HETATM   17  C12 UNL     1      31.733   7.756  48.423  1.00  0.00     0.030 A 
HETATM   18  C13 UNL     1      32.623   6.981  47.710  1.00  0.00     0.002 A 
HETATM   19  C14 UNL     1      32.254   5.764  47.202  1.00  0.00     0.001 A 
HETATM   20  C15 UNL     1      30.951   5.416  47.471  1.00  0.00     0.013 A 
HETATM   21  C16 UNL     1      30.008   6.162  48.188  1.00  0.00    -0.010 A 
HETATM   22  C17 UNL     1      28.693   5.570  48.347  1.00  0.00     0.013 C 
HETATM   23  C18 UNL     1      27.453   5.940  48.237  1.00  0.00     0.001 C 
HETATM   24  C19 UNL     1      26.657   7.106  47.907  1.00  0.00    -0.003 C 
HETATM   25  C20 UNL     1      25.380   7.339  47.833  1.00  0.00    -0.013 C 
HETATM   26  C21 UNL     1      24.904   8.660  47.466  1.00  0.00     0.096 C 
HETATM   27  N4  UNL     1      28.292  11.679  48.529  1.00  0.00    -0.369 N 
HETATM   28  H10 UNL     1      29.466   7.964  50.330  1.00  0.00     0.159 HD
HETATM   29  H20 UNL     1      28.781  12.584  48.429  1.00  0.00     0.161 HD
ENDROOT
TORSDOF 0
ENDMDL
MODEL 7
REMARK VINA RESULT:      -7.7      9.110     10.508
REMARK  0 active torsions:
REMARK  status: ('A' for Active; 'I' for Inactive)
ROOT
HETATM    1  F1  UNL     1      27.839   9.062  49.968  1.00  0.00    -0.242 F 
HETATM    2  C1  UNL     1      28.209   9.492  48.699  1.00  0.00     0.227 C 
HETATM    3  C2  UNL     1      28.106   8.335  47.796  1.00  0.00     0.046 C 
HETATM    4 CL1  UNL     1      27.764   6.803  48.627  1.00  0.00    -0.086 Cl
HETATM    5  C3  UNL     1      28.186   8.045  46.480  1.00  0.00     0.024 C 
HETATM    6  C4  UNL     1      28.918   8.758  45.400  1.00  0.00     0.026 C 
HETATM    7  C5  UNL     1      29.591   9.925  45.372  1.00  0.00     0.012 C 
HETATM    8  C6  UNL     1      29.373  11.117  46.288  1.00  0.00     0.112 C 
HETATM    9  C7  UNL     1      30.112  10.642  47.534  1.00  0.00     0.030 C 
HETATM   10  N1  UNL     1      31.440  10.652  47.527  1.00  0.00    -0.250 NA
HETATM   11  C8  UNL     1      32.451  10.004  46.761  1.00  0.00     0.229 C 
HETATM   12  N2  UNL     1      32.508   9.801  45.491  1.00  0.00    -0.256 NA
HETATM   13  C9  UNL     1      31.763   8.960  44.591  1.00  0.00     0.224 C 
HETATM   14  C10 UNL     1      31.722   7.573  45.119  1.00  0.00     0.168 C 
HETATM   15  N3  UNL     1      32.876   7.276  45.981  1.00  0.00    -0.386 N 
HETATM   16  C11 UNL     1      32.817   5.934  46.487  1.00  0.00     0.038 A 
HETATM   17  C12 UNL     1      32.863   5.019  45.463  1.00  0.00     0.030 A 
HETATM   18  C13 UNL     1      32.809   3.656  45.661  1.00  0.00     0.002 A 
HETATM   19  C14 UNL     1      32.703   3.128  46.920  1.00  0.00     0.001 A 
HETATM   20  C15 UNL     1      32.659   4.069  47.921  1.00  0.00     0.013 A 
HETATM   21  C16 UNL     1      32.711   5.461  47.775  1.00  0.00    -0.010 A 
HETATM   22  C17 UNL     1      32.657   6.247  48.994  1.00  0.00     0.013 C 
HETATM   23  C18 UNL     1      32.034   7.298  49.434  1.00  0.00     0.001 C 
HETATM   24  C19 UNL     1      31.061   8.284  49.004  1.00  0.00    -0.003 C 
HETATM   25  C20 UNL     1      30.510   9.316  49.571  1.00  0.00    -0.013 C 
HETATM   26  C21 UNL     1      29.547  10.117  48.836  1.00  0.00     0.096 C 
HETATM   27  N4  UNL     1      30.414   9.480  44.301  1.00  0.00    -0.369 N 
HETATM   28  H10 UNL     1      33.740   7.712  46.359  1.00  0.00     0.159 HD
HETATM   29  H20 UNL     1      30.143   9.488  43.305  1.00  0.00     0.161 HD
ENDROOT
TORSDOF 0
ENDMDL
MODEL 8
REMARK VINA RESULT:      -7.7     10.125     12.361
REMARK  0 active torsions:
REMARK  status: ('A' for Active; 'I' for Inactive)
ROOT
HETATM    1  F1  UNL     1      31.986  12.357  44.658  1.00  0.00    -0.242 F 
HETATM    2  C1  UNL     1      32.766  11.207  44.604  1.00  0.00     0.227 C 
HETATM    3  C2  UNL     1      31.875  10.088  44.259  1.00  0.00     0.046 C 
HETATM    4 CL1  UNL     1      30.153  10.521  44.234  1.00  0.00    -0.086 Cl
HETATM    5  C3  UNL     1      31.944   8.780  43.936  1.00  0.00     0.024 C 
HETATM    6  C4  UNL     1      32.987   7.777  44.277  1.00  0.00     0.026 C 
HETATM    7  C5  UNL     1      34.190   7.881  44.875  1.00  0.00     0.012 C 
HETATM    8  C6  UNL     1      35.075   9.114  44.918  1.00  0.00     0.112 C 
HETATM    9  C7  UNL     1      34.382   9.909  46.020  1.00  0.00     0.030 C 
HETATM   10  N1  UNL     1      34.542   9.519  47.280  1.00  0.00    -0.250 NA
HETATM   11  C8  UNL     1      34.229   8.344  48.022  1.00  0.00     0.229 C 
HETATM   12  N2  UNL     1      34.366   7.109  47.688  1.00  0.00    -0.256 NA
HETATM   13  C9  UNL     1      33.707   6.266  46.725  1.00  0.00     0.224 C 
HETATM   14  C10 UNL     1      32.235   6.376  46.888  1.00  0.00     0.168 C 
HETATM   15  N3  UNL     1      31.858   6.747  48.260  1.00  0.00    -0.386 N 
HETATM   16  C11 UNL     1      30.434   6.854  48.398  1.00  0.00     0.038 A 
HETATM   17  C12 UNL     1      29.823   5.648  48.150  1.00  0.00     0.030 A 
HETATM   18  C13 UNL     1      28.457   5.465  48.198  1.00  0.00     0.002 A 
HETATM   19  C14 UNL     1      27.616   6.502  48.502  1.00  0.00     0.001 A 
HETATM   20  C15 UNL     1      28.257   7.693  48.744  1.00  0.00     0.013 A 
HETATM   21  C16 UNL     1      29.636   7.932  48.710  1.00  0.00    -0.010 A 
HETATM   22  C17 UNL     1      30.072   9.282  49.014  1.00  0.00     0.013 C 
HETATM   23  C18 UNL     1      30.898  10.159  48.529  1.00  0.00     0.001 C 
HETATM   24  C19 UNL     1      31.847  10.323  47.444  1.00  0.00    -0.003 C 
HETATM   25  C20 UNL     1      32.631  11.289  47.066  1.00  0.00    -0.013 C 
HETATM   26  C21 UNL     1      33.480  11.119  45.901  1.00  0.00     0.096 C 
HETATM   27  N4  UNL     1      34.129   6.538  45.338  1.00  0.00    -0.369 N 
HETATM   28  H10 UNL     1      32.276   6.964  49.186  1.00  0.00     0.159 HD
HETATM   29  H20 UNL     1      34.363   5.706  44.772  1.00  0.00     0.161 HD
ENDROOT
TORSDOF 0
ENDMDL
MODEL 9
REMARK VINA RESULT:      -7.6     10.660     11.911
REMARK  0 active torsions:
REMARK  status: ('A' for Active; 'I' for Inactive)
ROOT
HETATM    1  F1  UNL     1      28.731  10.139  47.646  1.00  0.00    -0.242 F 
HETATM    2  C1  UNL     1      29.744  10.372  46.723  1.00  0.00     0.227 C 
HETATM    3  C2  UNL     1      29.812   9.196  45.841  1.00  0.00     0.046 C 
HETATM    4 CL1  UNL     1      28.772   7.851  46.354  1.00  0.00    -0.086 Cl
HETATM    5  C3  UNL     1      30.433   8.789  44.714  1.00  0.00     0.024 C 
HETATM    6  C4  UNL     1      31.731   9.232  44.139  1.00  0.00     0.026 C 
HETATM    7  C5  UNL     1      32.588  10.215  44.476  1.00  0.00     0.012 C 
HETATM    8  C6  UNL     1      32.249  11.496  45.217  1.00  0.00     0.112 C 
HETATM    9  C7  UNL     1      32.180  10.973  46.648  1.00  0.00     0.030 C 
HETATM   10  N1  UNL     1      33.315  10.688  47.275  1.00  0.00    -0.250 NA
HETATM   11  C8  UNL     1      34.385   9.772  47.063  1.00  0.00     0.229 C 
HETATM   12  N2  UNL     1      34.984   9.458  45.968  1.00  0.00    -0.256 NA
HETATM   13  C9  UNL     1      34.579   8.732  44.793  1.00  0.00     0.224 C 
HETATM   14  C10 UNL     1      33.972   7.437  45.189  1.00  0.00     0.168 C 
HETATM   15  N3  UNL     1      34.477   6.963  46.487  1.00  0.00    -0.386 N 
HETATM   16  C11 UNL     1      33.876   5.714  46.856  1.00  0.00     0.038 A 
HETATM   17  C12 UNL     1      34.184   4.731  45.946  1.00  0.00     0.030 A 
HETATM   18  C13 UNL     1      33.726   3.434  46.047  1.00  0.00     0.002 A 
HETATM   19  C14 UNL     1      32.920   3.048  47.084  1.00  0.00     0.001 A 
HETATM   20  C15 UNL     1      32.630   4.054  47.975  1.00  0.00     0.013 A 
HETATM   21  C16 UNL     1      33.068   5.382  47.920  1.00  0.00    -0.010 A 
HETATM   22  C17 UNL     1      32.631   6.258  48.992  1.00  0.00     0.013 C 
HETATM   23  C18 UNL     1      32.139   7.453  49.117  1.00  0.00     0.001 C 
HETATM   24  C19 UNL     1      31.744   8.591  48.310  1.00  0.00    -0.003 C 
HETATM   25  C20 UNL     1      31.249   9.763  48.580  1.00  0.00    -0.013 C 
HETATM   26  C21 UNL     1      30.963  10.694  47.504  1.00  0.00     0.096 C 
HETATM   27  N4  UNL     1      33.689   9.512  43.913  1.00  0.00    -0.369 N 
HETATM   28  H10 UNL     1      35.135   7.227  47.246  1.00  0.00     0.159 HD
HETATM   29  H20 UNL     1      33.930   9.498  42.909  1.00  0.00     0.161 HD
ENDROOT
TORSDOF 0
ENDMDL
