MODEL 1
REMARK VINA RESULT:      -8.5      0.000      0.000
REMARK  6 active torsions:
REMARK  status: ('A' for Active; 'I' for Inactive)
REMARK    1  A    between atoms: C3_3  and  N4_22 
REMARK    2  A    between atoms: C4_4  and  C5_5 
REMARK    3  A    between atoms: C8_9  and  C9_10 
REMARK    4  A    between atoms: C11_13  and  N3_14 
REMARK    5  A    between atoms: N3_14  and  C12_15 
REMARK       I    between atoms: N4_22  and  C18_23 
REMARK    6  A    between atoms: C18_23  and  C19_25 
ROOT
HETATM    1  C1  UNL     1      26.631   3.153  50.006  1.00  0.00     0.099 C 
HETATM    2  C2  UNL     1      26.337   2.515  51.111  1.00  0.00    -0.126 C 
HETATM    3  C3  UNL     1      26.062   1.981  52.291  1.00  0.00     0.077 C 
HETATM    4  C4  UNL     1      24.833   2.343  52.908  1.00  0.00     0.049 C 
ENDROOT
BRANCH   3   5
HETATM    5  N4  UNL     1      27.068   1.107  52.765  1.00  0.00    -0.317 N 
HETATM    6  C18 UNL     1      28.073   1.516  53.660  1.00  0.00     0.245 C 
HETATM    7  O1  UNL     1      28.153   2.686  54.107  1.00  0.00    -0.268 OA
HETATM    8  H14 UNL     1      27.037   0.113  52.412  1.00  0.00     0.170 HD
BRANCH   6   9
HETATM    9  C19 UNL     1      29.051   0.518  54.071  1.00  0.00     0.064 C 
HETATM   10  C20 UNL     1      29.058  -0.682  53.514  1.00  0.00     0.017 C 
ENDBRANCH   6   9
ENDBRANCH   3   5
BRANCH   4  11
HETATM   11  C5  UNL     1      23.837   3.118  52.594  1.00  0.00    -0.008 A 
HETATM   12  C6  UNL     1      23.796   4.567  52.843  1.00  0.00     0.189 A 
HETATM   13  N1  UNL     1      22.594   5.210  52.405  1.00  0.00    -0.296 NA
HETATM   14  C7  UNL     1      21.599   4.640  51.840  1.00  0.00     0.121 A 
HETATM   15  C8  UNL     1      21.609   3.208  51.582  1.00  0.00    -0.001 A 
HETATM   16  C11 UNL     1      22.672   2.548  51.951  1.00  0.00     0.049 A 
BRANCH  15  17
HETATM   17  C9  UNL     1      20.436   2.600  50.929  1.00  0.00     0.166 C 
HETATM   18  C10 UNL     1      19.213   3.145  51.492  1.00  0.00     0.063 C 
HETATM   19  N2  UNL     1      18.243   3.597  51.944  1.00  0.00    -0.197 NA
ENDBRANCH  15  17
BRANCH  16  20
HETATM   20  N3  UNL     1      22.611   1.144  51.665  1.00  0.00    -0.355 N 
HETATM   21  H9  UNL     1      22.921   0.725  50.752  1.00  0.00     0.166 HD
BRANCH  20  22
HETATM   22  C12 UNL     1      22.109   0.233  52.637  1.00  0.00     0.033 A 
HETATM   23  C13 UNL     1      22.884  -0.355  53.618  1.00  0.00     0.029 A 
HETATM   24  C14 UNL     1      22.328  -1.229  54.528  1.00  0.00     0.004 A 
HETATM   25  C15 UNL     1      20.990  -1.558  54.510  1.00  0.00     0.019 A 
HETATM   26  C16 UNL     1      20.187  -0.984  53.537  1.00  0.00     0.013 A 
HETATM   27 BR1  UNL     1      18.326  -1.349  53.395  1.00  0.00    -0.051 Br
HETATM   28  C17 UNL     1      20.766  -0.123  52.651  1.00  0.00     0.048 A 
ENDBRANCH  20  22
ENDBRANCH  16  20
ENDBRANCH   4  11
TORSDOF 6
ENDMDL
MODEL 2
REMARK VINA RESULT:      -8.3      3.002      5.136
REMARK  6 active torsions:
REMARK  status: ('A' for Active; 'I' for Inactive)
REMARK    1  A    between atoms: C3_3  and  N4_22 
REMARK    2  A    between atoms: C4_4  and  C5_5 
REMARK    3  A    between atoms: C8_9  and  C9_10 
REMARK    4  A    between atoms: C11_13  and  N3_14 
REMARK    5  A    between atoms: N3_14  and  C12_15 
REMARK       I    between atoms: N4_22  and  C18_23 
REMARK    6  A    between atoms: C18_23  and  C19_25 
ROOT
HETATM    1  C1  UNL     1      22.541   2.436  47.976  1.00  0.00     0.099 C 
HETATM    2  C2  UNL     1      23.178   3.159  48.863  1.00  0.00    -0.126 C 
HETATM    3  C3  UNL     1      23.714   3.962  49.770  1.00  0.00     0.077 C 
HETATM    4  C4  UNL     1      23.262   3.834  51.113  1.00  0.00     0.049 C 
ENDROOT
BRANCH   3   5
HETATM    5  N4  UNL     1      24.682   4.846  49.240  1.00  0.00    -0.317 N 
HETATM    6  C18 UNL     1      26.064   4.596  49.315  1.00  0.00     0.245 C 
HETATM    7  O1  UNL     1      26.544   3.570  49.856  1.00  0.00    -0.268 OA
HETATM    8  H14 UNL     1      24.321   5.723  48.777  1.00  0.00     0.170 HD
BRANCH   6   9
HETATM    9  C19 UNL     1      26.958   5.587  48.732  1.00  0.00     0.064 C 
HETATM   10  C20 UNL     1      28.210   5.272  48.443  1.00  0.00     0.017 C 
ENDBRANCH   6   9
ENDBRANCH   3   5
BRANCH   4  11
HETATM   11  C5  UNL     1      22.398   3.082  51.726  1.00  0.00    -0.008 A 
HETATM   12  C6  UNL     1      21.085   3.540  52.207  1.00  0.00     0.189 A 
HETATM   13  N1  UNL     1      20.304   2.529  52.852  1.00  0.00    -0.296 NA
HETATM   14  C7  UNL     1      20.650   1.311  53.032  1.00  0.00     0.121 A 
HETATM   15  C8  UNL     1      21.942   0.828  52.569  1.00  0.00    -0.001 A 
HETATM   16  C11 UNL     1      22.716   1.691  51.969  1.00  0.00     0.049 A 
BRANCH  15  17
HETATM   17  C9  UNL     1      22.294  -0.584  52.802  1.00  0.00     0.166 C 
HETATM   18  C10 UNL     1      22.108  -0.920  54.204  1.00  0.00     0.063 C 
HETATM   19  N2  UNL     1      21.945  -1.176  55.324  1.00  0.00    -0.197 NA
ENDBRANCH  15  17
BRANCH  16  20
HETATM   20  N3  UNL     1      23.971   1.145  51.542  1.00  0.00    -0.355 N 
HETATM   21  H9  UNL     1      24.124   0.719  50.592  1.00  0.00     0.166 HD
BRANCH  20  22
HETATM   22  C12 UNL     1      25.095   1.156  52.415  1.00  0.00     0.033 A 
HETATM   23  C13 UNL     1      25.358   2.164  53.323  1.00  0.00     0.029 A 
HETATM   24  C14 UNL     1      26.468   2.107  54.139  1.00  0.00     0.004 A 
HETATM   25  C15 UNL     1      27.362   1.059  54.095  1.00  0.00     0.019 A 
HETATM   26  C16 UNL     1      27.124   0.033  53.194  1.00  0.00     0.013 A 
HETATM   27 BR1  UNL     1      28.274  -1.473  53.025  1.00  0.00    -0.051 Br
HETATM   28  C17 UNL     1      26.018   0.117  52.400  1.00  0.00     0.048 A 
ENDBRANCH  20  22
ENDBRANCH  16  20
ENDBRANCH   4  11
TORSDOF 6
ENDMDL
MODEL 3
REMARK VINA RESULT:      -8.2      1.295      1.588
REMARK  6 active torsions:
REMARK  status: ('A' for Active; 'I' for Inactive)
REMARK    1  A    between atoms: C3_3  and  N4_22 
REMARK    2  A    between atoms: C4_4  and  C5_5 
REMARK    3  A    between atoms: C8_9  and  C9_10 
REMARK    4  A    between atoms: C11_13  and  N3_14 
REMARK    5  A    between atoms: N3_14  and  C12_15 
REMARK       I    between atoms: N4_22  and  C18_23 
REMARK    6  A    between atoms: C18_23  and  C19_25 
ROOT
HETATM    1  C1  UNL     1      26.598   3.396  49.591  1.00  0.00     0.099 C 
HETATM    2  C2  UNL     1      26.343   2.748  50.700  1.00  0.00    -0.126 C 
HETATM    3  C3  UNL     1      26.106   2.204  51.884  1.00  0.00     0.077 C 
HETATM    4  C4  UNL     1      24.881   2.534  52.527  1.00  0.00     0.049 C 
ENDROOT
BRANCH   3   5
HETATM    5  N4  UNL     1      27.143   1.355  52.334  1.00  0.00    -0.317 N 
HETATM    6  C18 UNL     1      27.995   1.692  53.401  1.00  0.00     0.245 C 
HETATM    7  O1  UNL     1      27.899   2.771  54.037  1.00  0.00    -0.268 OA
HETATM    8  H14 UNL     1      27.258   0.437  51.827  1.00  0.00     0.170 HD
BRANCH   6   9
HETATM    9  C19 UNL     1      29.025   0.730  53.767  1.00  0.00     0.064 C 
HETATM   10  C20 UNL     1      28.811  -0.568  53.620  1.00  0.00     0.017 C 
ENDBRANCH   6   9
ENDBRANCH   3   5
BRANCH   4  11
HETATM   11  C5  UNL     1      23.860   3.284  52.236  1.00  0.00    -0.008 A 
HETATM   12  C6  UNL     1      23.816   4.743  52.421  1.00  0.00     0.189 A 
HETATM   13  N1  UNL     1      22.584   5.354  52.024  1.00  0.00    -0.296 NA
HETATM   14  C7  UNL     1      21.564   4.749  51.544  1.00  0.00     0.121 A 
HETATM   15  C8  UNL     1      21.576   3.307  51.351  1.00  0.00    -0.001 A 
HETATM   16  C11 UNL     1      22.667   2.674  51.689  1.00  0.00     0.049 A 
BRANCH  15  17
HETATM   17  C9  UNL     1      20.376   2.658  50.796  1.00  0.00     0.166 C 
HETATM   18  C10 UNL     1      19.183   3.174  51.447  1.00  0.00     0.063 C 
HETATM   19  N2  UNL     1      18.239   3.602  51.969  1.00  0.00    -0.197 NA
ENDBRANCH  15  17
BRANCH  16  20
HETATM   20  N3  UNL     1      22.606   1.258  51.471  1.00  0.00    -0.355 N 
HETATM   21  H9  UNL     1      22.847   0.802  50.555  1.00  0.00     0.166 HD
BRANCH  20  22
HETATM   22  C12 UNL     1      22.200   0.386  52.521  1.00  0.00     0.033 A 
HETATM   23  C13 UNL     1      20.911  -0.084  52.681  1.00  0.00     0.029 A 
HETATM   24  C14 UNL     1      20.591  -0.928  53.723  1.00  0.00     0.004 A 
HETATM   25  C15 UNL     1      21.525  -1.342  54.648  1.00  0.00     0.019 A 
HETATM   26  C16 UNL     1      22.827  -0.887  54.514  1.00  0.00     0.013 A 
HETATM   27 BR1  UNL     1      24.216  -1.377  55.717  1.00  0.00    -0.051 Br
HETATM   28  C17 UNL     1      23.113  -0.053  53.473  1.00  0.00     0.048 A 
ENDBRANCH  20  22
ENDBRANCH  16  20
ENDBRANCH   4  11
TORSDOF 6
ENDMDL
MODEL 4
REMARK VINA RESULT:      -8.2      2.867      5.881
REMARK  6 active torsions:
REMARK  status: ('A' for Active; 'I' for Inactive)
REMARK    1  A    between atoms: C3_3  and  N4_22 
REMARK    2  A    between atoms: C4_4  and  C5_5 
REMARK    3  A    between atoms: C8_9  and  C9_10 
REMARK    4  A    between atoms: C11_13  and  N3_14 
REMARK    5  A    between atoms: N3_14  and  C12_15 
REMARK       I    between atoms: N4_22  and  C18_23 
REMARK    6  A    between atoms: C18_23  and  C19_25 
ROOT
HETATM    1  C1  UNL     1      21.790   1.398  49.785  1.00  0.00     0.099 C 
HETATM    2  C2  UNL     1      22.082   1.632  51.040  1.00  0.00    -0.126 C 
HETATM    3  C3  UNL     1      22.495   1.822  52.284  1.00  0.00     0.077 C 
HETATM    4  C4  UNL     1      23.416   2.880  52.519  1.00  0.00     0.049 C 
ENDROOT
BRANCH   3   5
HETATM    5  N4  UNL     1      21.935   0.911  53.210  1.00  0.00    -0.317 N 
HETATM    6  C18 UNL     1      22.703  -0.047  53.895  1.00  0.00     0.245 C 
HETATM    7  O1  UNL     1      23.943  -0.167  53.738  1.00  0.00    -0.268 OA
HETATM    8  H14 UNL     1      20.894   0.978  53.371  1.00  0.00     0.170 HD
BRANCH   6   9
HETATM    9  C19 UNL     1      22.006  -0.928  54.822  1.00  0.00     0.064 C 
HETATM   10  C20 UNL     1      21.110  -1.793  54.377  1.00  0.00     0.017 C 
ENDBRANCH   6   9
ENDBRANCH   3   5
BRANCH   4  11
HETATM   11  C5  UNL     1      24.000   3.774  51.779  1.00  0.00    -0.008 A 
HETATM   12  C6  UNL     1      23.642   5.200  51.752  1.00  0.00     0.189 A 
HETATM   13  N1  UNL     1      24.430   5.994  50.859  1.00  0.00    -0.296 NA
HETATM   14  C7  UNL     1      25.380   5.570  50.115  1.00  0.00     0.121 A 
HETATM   15  C8  UNL     1      25.757   4.165  50.117  1.00  0.00    -0.001 A 
HETATM   16  C11 UNL     1      25.085   3.373  50.907  1.00  0.00     0.049 A 
BRANCH  15  17
HETATM   17  C9  UNL     1      26.858   3.727  49.241  1.00  0.00     0.166 C 
HETATM   18  C10 UNL     1      27.551   4.882  48.695  1.00  0.00     0.063 C 
HETATM   19  N2  UNL     1      28.101   5.814  48.274  1.00  0.00    -0.197 NA
ENDBRANCH  15  17
BRANCH  16  20
HETATM   20  N3  UNL     1      25.512   2.005  50.857  1.00  0.00    -0.355 N 
HETATM   21  H9  UNL     1      25.155   1.313  50.150  1.00  0.00     0.166 HD
BRANCH  20  22
HETATM   22  C12 UNL     1      26.464   1.513  51.793  1.00  0.00     0.033 A 
HETATM   23  C13 UNL     1      27.228   2.320  52.614  1.00  0.00     0.029 A 
HETATM   24  C14 UNL     1      28.133   1.773  53.499  1.00  0.00     0.004 A 
HETATM   25  C15 UNL     1      28.321   0.412  53.612  1.00  0.00     0.019 A 
HETATM   26  C16 UNL     1      27.570  -0.423  52.801  1.00  0.00     0.013 A 
HETATM   27 BR1  UNL     1      27.727  -2.318  52.851  1.00  0.00    -0.051 Br
HETATM   28  C17 UNL     1      26.683   0.148  51.936  1.00  0.00     0.048 A 
ENDBRANCH  20  22
ENDBRANCH  16  20
ENDBRANCH   4  11
TORSDOF 6
ENDMDL
MODEL 5
REMARK VINA RESULT:      -8.1      3.070      5.362
REMARK  6 active torsions:
REMARK  status: ('A' for Active; 'I' for Inactive)
REMARK    1  A    between atoms: C3_3  and  N4_22 
REMARK    2  A    between atoms: C4_4  and  C5_5 
REMARK    3  A    between atoms: C8_9  and  C9_10 
REMARK    4  A    between atoms: C11_13  and  N3_14 
REMARK    5  A    between atoms: N3_14  and  C12_15 
REMARK       I    between atoms: N4_22  and  C18_23 
REMARK    6  A    between atoms: C18_23  and  C19_25 
ROOT
HETATM    1  C1  UNL     1      22.431   5.232  51.605  1.00  0.00     0.099 C 
HETATM    2  C2  UNL     1      23.110   4.409  50.844  1.00  0.00    -0.126 C 
HETATM    3  C3  UNL     1      23.852   3.534  50.183  1.00  0.00     0.077 C 
HETATM    4  C4  UNL     1      23.501   2.160  50.288  1.00  0.00     0.049 C 
ENDROOT
BRANCH   3   5
HETATM    5  N4  UNL     1      24.911   4.126  49.456  1.00  0.00    -0.317 N 
HETATM    6  C18 UNL     1      26.265   3.876  49.743  1.00  0.00     0.245 C 
HETATM    7  O1  UNL     1      26.638   3.110  50.664  1.00  0.00    -0.268 OA
HETATM    8  H14 UNL     1      24.641   4.778  48.671  1.00  0.00     0.170 HD
BRANCH   6   9
HETATM    9  C19 UNL     1      27.260   4.549  48.919  1.00  0.00     0.064 C 
HETATM   10  C20 UNL     1      27.091   5.812  48.563  1.00  0.00     0.017 C 
ENDBRANCH   6   9
ENDBRANCH   3   5
BRANCH   4  11
HETATM   11  C5  UNL     1      22.575   1.490  50.908  1.00  0.00    -0.008 A 
HETATM   12  C6  UNL     1      21.357   0.965  50.271  1.00  0.00     0.189 A 
HETATM   13  N1  UNL     1      20.483   0.256  51.156  1.00  0.00    -0.296 NA
HETATM   14  C7  UNL     1      20.677   0.057  52.405  1.00  0.00     0.121 A 
HETATM   15  C8  UNL     1      21.871   0.565  53.064  1.00  0.00    -0.001 A 
HETATM   16  C11 UNL     1      22.720   1.224  52.323  1.00  0.00     0.049 A 
BRANCH  15  17
HETATM   17  C9  UNL     1      22.046   0.309  54.504  1.00  0.00     0.166 C 
HETATM   18  C10 UNL     1      21.943  -1.115  54.774  1.00  0.00     0.063 C 
HETATM   19  N2  UNL     1      21.869  -2.256  54.974  1.00  0.00    -0.197 NA
ENDBRANCH  15  17
BRANCH  16  20
HETATM   20  N3  UNL     1      23.870   1.694  53.039  1.00  0.00    -0.355 N 
HETATM   21  H9  UNL     1      23.890   2.600  53.572  1.00  0.00     0.166 HD
BRANCH  20  22
HETATM   22  C12 UNL     1      25.070   0.928  53.054  1.00  0.00     0.033 A 
HETATM   23  C13 UNL     1      25.148  -0.394  52.662  1.00  0.00     0.029 A 
HETATM   24  C14 UNL     1      26.347  -1.074  52.704  1.00  0.00     0.004 A 
HETATM   25  C15 UNL     1      27.515  -0.480  53.131  1.00  0.00     0.019 A 
HETATM   26  C16 UNL     1      27.468   0.846  53.531  1.00  0.00     0.013 A 
HETATM   27 BR1  UNL     1      29.002   1.789  54.143  1.00  0.00    -0.051 Br
HETATM   28  C17 UNL     1      26.267   1.492  53.479  1.00  0.00     0.048 A 
ENDBRANCH  20  22
ENDBRANCH  16  20
ENDBRANCH   4  11
TORSDOF 6
ENDMDL
MODEL 6
REMARK VINA RESULT:      -7.6      2.946      4.820
REMARK  6 active torsions:
REMARK  status: ('A' for Active; 'I' for Inactive)
REMARK    1  A    between atoms: C3_3  and  N4_22 
REMARK    2  A    between atoms: C4_4  and  C5_5 
REMARK    3  A    between atoms: C8_9  and  C9_10 
REMARK    4  A    between atoms: C11_13  and  N3_14 
REMARK    5  A    between atoms: N3_14  and  C12_15 
REMARK       I    between atoms: N4_22  and  C18_23 
REMARK    6  A    between atoms: C18_23  and  C19_25 
ROOT
HETATM    1  C1  UNL     1      23.645   4.548  53.461  1.00  0.00     0.099 C 
HETATM    2  C2  UNL     1      24.262   3.491  52.995  1.00  0.00    -0.126 C 
HETATM    3  C3  UNL     1      24.854   2.363  52.633  1.00  0.00     0.077 C 
HETATM    4  C4  UNL     1      24.020   1.270  52.264  1.00  0.00     0.049 C 
ENDROOT
BRANCH   3   5
HETATM    5  N4  UNL     1      26.266   2.426  52.674  1.00  0.00    -0.317 N 
HETATM    6  C18 UNL     1      27.017   1.983  53.778  1.00  0.00     0.245 C 
HETATM    7  O1  UNL     1      26.492   1.498  54.810  1.00  0.00    -0.268 OA
HETATM    8  H14 UNL     1      26.747   2.829  51.826  1.00  0.00     0.170 HD
BRANCH   6   9
HETATM    9  C19 UNL     1      28.466   2.105  53.696  1.00  0.00     0.064 C 
HETATM   10  C20 UNL     1      29.219   1.028  53.536  1.00  0.00     0.017 C 
ENDBRANCH   6   9
ENDBRANCH   3   5
BRANCH   4  11
HETATM   11  C5  UNL     1      22.738   1.076  52.183  1.00  0.00    -0.008 A 
HETATM   12  C6  UNL     1      21.890   0.627  53.298  1.00  0.00     0.189 A 
HETATM   13  N1  UNL     1      20.503   0.488  52.969  1.00  0.00    -0.296 NA
HETATM   14  C7  UNL     1      19.974   0.714  51.827  1.00  0.00     0.121 A 
HETATM   15  C8  UNL     1      20.787   1.158  50.705  1.00  0.00    -0.001 A 
HETATM   16  C11 UNL     1      22.064   1.311  50.923  1.00  0.00     0.049 A 
BRANCH  15  17
HETATM   17  C9  UNL     1      20.129   1.404  49.409  1.00  0.00     0.166 C 
HETATM   18  C10 UNL     1      18.884   2.126  49.611  1.00  0.00     0.063 C 
HETATM   19  N2  UNL     1      17.897   2.711  49.786  1.00  0.00    -0.197 NA
ENDBRANCH  15  17
BRANCH  16  20
HETATM   20  N3  UNL     1      22.801   1.749  49.773  1.00  0.00    -0.355 N 
HETATM   21  H9  UNL     1      23.084   1.108  48.989  1.00  0.00     0.166 HD
BRANCH  20  22
HETATM   22  C12 UNL     1      23.192   3.111  49.646  1.00  0.00     0.033 A 
HETATM   23  C13 UNL     1      22.324   4.179  49.771  1.00  0.00     0.029 A 
HETATM   24  C14 UNL     1      22.775   5.475  49.636  1.00  0.00     0.004 A 
HETATM   25  C15 UNL     1      24.095   5.771  49.373  1.00  0.00     0.019 A 
HETATM   26  C16 UNL     1      24.989   4.721  49.242  1.00  0.00     0.013 A 
HETATM   27 BR1  UNL     1      26.838   4.984  48.879  1.00  0.00    -0.051 Br
HETATM   28  C17 UNL     1      24.513   3.450  49.382  1.00  0.00     0.048 A 
ENDBRANCH  20  22
ENDBRANCH  16  20
ENDBRANCH   4  11
TORSDOF 6
ENDMDL
MODEL 7
REMARK VINA RESULT:      -7.5      2.813      3.618
REMARK  6 active torsions:
REMARK  status: ('A' for Active; 'I' for Inactive)
REMARK    1  A    between atoms: C3_3  and  N4_22 
REMARK    2  A    between atoms: C4_4  and  C5_5 
REMARK    3  A    between atoms: C8_9  and  C9_10 
REMARK    4  A    between atoms: C11_13  and  N3_14 
REMARK    5  A    between atoms: N3_14  and  C12_15 
REMARK       I    between atoms: N4_22  and  C18_23 
REMARK    6  A    between atoms: C18_23  and  C19_25 
ROOT
HETATM    1  C1  UNL     1      23.810   4.153  53.368  1.00  0.00     0.099 C 
HETATM    2  C2  UNL     1      24.596   3.397  52.643  1.00  0.00    -0.126 C 
HETATM    3  C3  UNL     1      25.283   2.580  51.859  1.00  0.00     0.077 C 
HETATM    4  C4  UNL     1      25.309   2.868  50.467  1.00  0.00     0.049 C 
ENDROOT
BRANCH   3   5
HETATM    5  N4  UNL     1      25.901   1.515  52.556  1.00  0.00    -0.317 N 
HETATM    6  C18 UNL     1      27.282   1.477  52.819  1.00  0.00     0.245 C 
HETATM    7  O1  UNL     1      28.071   2.385  52.458  1.00  0.00    -0.268 OA
HETATM    8  H14 UNL     1      25.273   0.731  52.877  1.00  0.00     0.170 HD
BRANCH   6   9
HETATM    9  C19 UNL     1      27.795   0.324  53.545  1.00  0.00     0.064 C 
HETATM   10  C20 UNL     1      28.485   0.489  54.662  1.00  0.00     0.017 C 
ENDBRANCH   6   9
ENDBRANCH   3   5
BRANCH   4  11
HETATM   11  C5  UNL     1      24.797   3.791  49.708  1.00  0.00    -0.008 A 
HETATM   12  C6  UNL     1      25.432   5.089  49.429  1.00  0.00     0.189 A 
HETATM   13  N1  UNL     1      24.679   5.943  48.560  1.00  0.00    -0.296 NA
HETATM   14  C7  UNL     1      23.546   5.669  48.033  1.00  0.00     0.121 A 
HETATM   15  C8  UNL     1      22.893   4.395  48.291  1.00  0.00    -0.001 A 
HETATM   16  C11 UNL     1      23.516   3.559  49.075  1.00  0.00     0.049 A 
BRANCH  15  17
HETATM   17  C9  UNL     1      21.588   4.130  47.661  1.00  0.00     0.166 C 
HETATM   18  C10 UNL     1      21.758   3.908  46.235  1.00  0.00     0.063 C 
HETATM   19  N2  UNL     1      21.909   3.723  45.099  1.00  0.00    -0.197 NA
ENDBRANCH  15  17
BRANCH  16  20
HETATM   20  N3  UNL     1      22.813   2.326  49.283  1.00  0.00    -0.355 N 
HETATM   21  H9  UNL     1      22.803   1.541  48.584  1.00  0.00     0.166 HD
BRANCH  20  22
HETATM   22  C12 UNL     1      22.078   2.112  50.482  1.00  0.00     0.033 A 
HETATM   23  C13 UNL     1      21.138   2.993  50.981  1.00  0.00     0.029 A 
HETATM   24  C14 UNL     1      20.462   2.719  52.151  1.00  0.00     0.004 A 
HETATM   25  C15 UNL     1      20.682   1.567  52.875  1.00  0.00     0.019 A 
HETATM   26  C16 UNL     1      21.620   0.664  52.401  1.00  0.00     0.013 A 
HETATM   27 BR1  UNL     1      22.025  -0.963  53.298  1.00  0.00    -0.051 Br
HETATM   28  C17 UNL     1      22.272   0.963  51.240  1.00  0.00     0.048 A 
ENDBRANCH  20  22
ENDBRANCH  16  20
ENDBRANCH   4  11
TORSDOF 6
ENDMDL
MODEL 8
REMARK VINA RESULT:      -7.5      3.663      6.708
REMARK  6 active torsions:
REMARK  status: ('A' for Active; 'I' for Inactive)
REMARK    1  A    between atoms: C3_3  and  N4_22 
REMARK    2  A    between atoms: C4_4  and  C5_5 
REMARK    3  A    between atoms: C8_9  and  C9_10 
REMARK    4  A    between atoms: C11_13  and  N3_14 
REMARK    5  A    between atoms: N3_14  and  C12_15 
REMARK       I    between atoms: N4_22  and  C18_23 
REMARK    6  A    between atoms: C18_23  and  C19_25 
ROOT
HETATM    1  C1  UNL     1      18.591   3.247  51.441  1.00  0.00     0.099 C 
HETATM    2  C2  UNL     1      19.193   2.107  51.673  1.00  0.00    -0.126 C 
HETATM    3  C3  UNL     1      19.759   0.916  51.791  1.00  0.00     0.077 C 
HETATM    4  C4  UNL     1      20.909   0.650  50.998  1.00  0.00     0.049 C 
ENDROOT
BRANCH   3   5
HETATM    5  N4  UNL     1      19.106   0.070  52.718  1.00  0.00    -0.317 N 
HETATM    6  C18 UNL     1      18.001  -0.728  52.374  1.00  0.00     0.245 C 
HETATM    7  O1  UNL     1      17.509  -0.752  51.219  1.00  0.00    -0.268 OA
HETATM    8  H14 UNL     1      19.488   0.060  53.702  1.00  0.00     0.170 HD
BRANCH   6   9
HETATM    9  C19 UNL     1      17.418  -1.555  53.421  1.00  0.00     0.064 C 
HETATM   10  C20 UNL     1      17.653  -2.857  53.455  1.00  0.00     0.017 C 
ENDBRANCH   6   9
ENDBRANCH   3   5
BRANCH   4  11
HETATM   11  C5  UNL     1      21.600   1.320  50.124  1.00  0.00    -0.008 A 
HETATM   12  C6  UNL     1      21.393   1.255  48.669  1.00  0.00     0.189 A 
HETATM   13  N1  UNL     1      22.275   2.086  47.907  1.00  0.00    -0.296 NA
HETATM   14  C7  UNL     1      23.189   2.845  48.380  1.00  0.00     0.121 A 
HETATM   15  C8  UNL     1      23.420   2.930  49.814  1.00  0.00    -0.001 A 
HETATM   16  C11 UNL     1      22.655   2.201  50.580  1.00  0.00     0.049 A 
BRANCH  15  17
HETATM   17  C9  UNL     1      24.487   3.818  50.307  1.00  0.00     0.166 C 
HETATM   18  C10 UNL     1      25.783   3.339  49.858  1.00  0.00     0.063 C 
HETATM   19  N2  UNL     1      26.811   2.950  49.484  1.00  0.00    -0.197 NA
ENDBRANCH  15  17
BRANCH  16  20
HETATM   20  N3  UNL     1      22.940   2.335  51.979  1.00  0.00    -0.355 N 
HETATM   21  H9  UNL     1      22.713   3.197  52.536  1.00  0.00     0.166 HD
BRANCH  20  22
HETATM   22  C12 UNL     1      23.562   1.271  52.691  1.00  0.00     0.033 A 
HETATM   23  C13 UNL     1      22.886   0.395  53.518  1.00  0.00     0.029 A 
HETATM   24  C14 UNL     1      23.556  -0.614  54.177  1.00  0.00     0.004 A 
HETATM   25  C15 UNL     1      24.915  -0.802  54.048  1.00  0.00     0.019 A 
HETATM   26  C16 UNL     1      25.621   0.062  53.225  1.00  0.00     0.013 A 
HETATM   27 BR1  UNL     1      27.498  -0.080  52.956  1.00  0.00    -0.051 Br
HETATM   28  C17 UNL     1      24.930   1.050  52.587  1.00  0.00     0.048 A 
ENDBRANCH  20  22
ENDBRANCH  16  20
ENDBRANCH   4  11
TORSDOF 6
ENDMDL
MODEL 9
REMARK VINA RESULT:      -7.3      3.087      4.394
REMARK  6 active torsions:
REMARK  status: ('A' for Active; 'I' for Inactive)
REMARK    1  A    between atoms: C3_3  and  N4_22 
REMARK    2  A    between atoms: C4_4  and  C5_5 
REMARK    3  A    between atoms: C8_9  and  C9_10 
REMARK    4  A    between atoms: C11_13  and  N3_14 
REMARK    5  A    between atoms: N3_14  and  C12_15 
REMARK       I    between atoms: N4_22  and  C18_23 
REMARK    6  A    between atoms: C18_23  and  C19_25 
ROOT
HETATM    1  C1  UNL     1      22.333   3.401  47.644  1.00  0.00     0.099 C 
HETATM    2  C2  UNL     1      23.142   3.284  48.667  1.00  0.00    -0.126 C 
HETATM    3  C3  UNL     1      23.924   3.285  49.736  1.00  0.00     0.077 C 
HETATM    4  C4  UNL     1      23.301   3.162  51.009  1.00  0.00     0.049 C 
ENDROOT
BRANCH   3   5
HETATM    5  N4  UNL     1      25.299   3.413  49.430  1.00  0.00    -0.317 N 
HETATM    6  C18 UNL     1      25.932   4.660  49.278  1.00  0.00     0.245 C 
HETATM    7  O1  UNL     1      25.327   5.753  49.402  1.00  0.00    -0.268 OA
HETATM    8  H14 UNL     1      25.845   2.518  49.316  1.00  0.00     0.170 HD
BRANCH   6   9
HETATM    9  C19 UNL     1      27.354   4.656  48.962  1.00  0.00     0.064 C 
HETATM   10  C20 UNL     1      27.913   5.703  48.377  1.00  0.00     0.017 C 
ENDBRANCH   6   9
ENDBRANCH   3   5
BRANCH   4  11
HETATM   11  C5  UNL     1      22.077   3.039  51.427  1.00  0.00    -0.008 A 
HETATM   12  C6  UNL     1      21.148   4.162  51.629  1.00  0.00     0.189 A 
HETATM   13  N1  UNL     1      19.848   3.780  52.093  1.00  0.00    -0.296 NA
HETATM   14  C7  UNL     1      19.456   2.587  52.335  1.00  0.00     0.121 A 
HETATM   15  C8  UNL     1      20.352   1.456  52.146  1.00  0.00    -0.001 A 
HETATM   16  C11 UNL     1      21.558   1.721  51.723  1.00  0.00     0.049 A 
BRANCH  15  17
HETATM   17  C9  UNL     1      19.852   0.102  52.440  1.00  0.00     0.166 C 
HETATM   18  C10 UNL     1      18.624  -0.148  51.703  1.00  0.00     0.063 C 
HETATM   19  N2  UNL     1      17.650  -0.337  51.101  1.00  0.00    -0.197 NA
ENDBRANCH  15  17
BRANCH  16  20
HETATM   20  N3  UNL     1      22.383   0.559  51.562  1.00  0.00    -0.355 N 
HETATM   21  H9  UNL     1      22.340  -0.069  50.720  1.00  0.00     0.166 HD
BRANCH  20  22
HETATM   22  C12 UNL     1      23.323   0.199  52.568  1.00  0.00     0.033 A 
HETATM   23  C13 UNL     1      23.004  -0.526  53.700  1.00  0.00     0.029 A 
HETATM   24  C14 UNL     1      23.968  -0.839  54.634  1.00  0.00     0.004 A 
HETATM   25  C15 UNL     1      25.284  -0.453  54.491  1.00  0.00     0.019 A 
HETATM   26  C16 UNL     1      25.634   0.276  53.366  1.00  0.00     0.013 A 
HETATM   27 BR1  UNL     1      27.410   0.874  53.042  1.00  0.00    -0.051 Br
HETATM   28  C17 UNL     1      24.658   0.570  52.460  1.00  0.00     0.048 A 
ENDBRANCH  20  22
ENDBRANCH  16  20
ENDBRANCH   4  11
TORSDOF 6
ENDMDL
