MODEL 1
REMARK VINA RESULT:      -7.7      0.000      0.000
REMARK  8 active torsions:
REMARK  status: ('A' for Active; 'I' for Inactive)
REMARK    1  A    between atoms: C4_5  and  O1_6 
REMARK    2  A    between atoms: C6_8  and  O2_9 
REMARK    3  A    between atoms: O2_9  and  C7_10 
REMARK    4  A    between atoms: C7_10  and  C8_11 
REMARK    5  A    between atoms: C8_11  and  C9_12 
REMARK    6  A    between atoms: C9_12  and  N2_13 
REMARK    7  A    between atoms: C14_18  and  N3_20 
REMARK    8  A    between atoms: N3_20  and  C15_21 
ROOT
HETATM    1  C1  UNL     1      19.564   2.479  52.043  1.00  0.00     0.178 C 
HETATM    2  N1  UNL     1      20.826   3.159  51.907  1.00  0.00    -0.293 NA
HETATM    3  C2  UNL     1      21.906   2.562  52.246  1.00  0.00     0.066 A 
HETATM    4  C3  UNL     1      22.037   1.213  52.779  1.00  0.00     0.071 A 
HETATM    5  C4  UNL     1      23.156   0.616  53.119  1.00  0.00     0.103 A 
HETATM    6  C6  UNL     1      24.379   1.418  52.931  1.00  0.00     0.103 A 
HETATM    7  C12 UNL     1      24.403   2.643  52.461  1.00  0.00     0.056 A 
HETATM    8  C13 UNL     1      23.157   3.292  52.088  1.00  0.00     0.034 A 
HETATM    9  C14 UNL     1      23.124   4.521  51.609  1.00  0.00     0.116 C 
HETATM   10 CL1  UNL     1      21.634   5.291  51.165  1.00  0.00    -0.064 Cl
ENDROOT
BRANCH   9  11
HETATM   11  N3  UNL     1      24.199   5.410  51.368  1.00  0.00    -0.346 N 
HETATM   12  H21 UNL     1      24.419   5.993  52.200  1.00  0.00     0.167 HD
BRANCH  11  13
HETATM   13  C15 UNL     1      25.142   5.840  50.394  1.00  0.00     0.036 A 
HETATM   14  C16 UNL     1      25.320   7.132  49.945  1.00  0.00     0.029 A 
HETATM   15  C17 UNL     1      26.284   7.381  48.990  1.00  0.00     0.005 A 
HETATM   16  C18 UNL     1      27.034   6.317  48.527  1.00  0.00     0.042 A 
HETATM   17  C19 UNL     1      26.891   5.010  48.948  1.00  0.00     0.118 A 
HETATM   18  F1  UNL     1      27.699   4.094  48.399  1.00  0.00    -0.206 F 
HETATM   19  C20 UNL     1      25.911   4.782  49.910  1.00  0.00     0.071 A 
ENDBRANCH  11  13
ENDBRANCH   9  11
BRANCH   6  20
HETATM   20  O2  UNL     1      25.589   0.819  53.279  1.00  0.00    -0.348 OA
BRANCH  20  21
HETATM   21  C7  UNL     1      26.359   0.067  52.364  1.00  0.00     0.177 C 
BRANCH  21  22
HETATM   22  C8  UNL     1      27.230  -0.850  53.197  1.00  0.00     0.057 C 
BRANCH  22  23
HETATM   23  C9  UNL     1      27.556  -0.089  54.453  1.00  0.00     0.273 C 
BRANCH  23  24
HETATM   24  N2  UNL     1      28.972   0.200  54.590  1.00  0.00     0.080 N 
HETATM   25  C10 UNL     1      29.235   1.571  54.190  1.00  0.00     0.309 C 
HETATM   26  C11 UNL     1      29.743  -0.746  53.806  1.00  0.00     0.309 C 
ENDBRANCH  23  24
ENDBRANCH  22  23
ENDBRANCH  21  22
ENDBRANCH  20  21
ENDBRANCH   6  20
BRANCH   5  27
HETATM   27  O1  UNL     1      23.174  -0.679  53.620  1.00  0.00    -0.353 OA
HETATM   28  C5  UNL     1      21.997  -1.150  54.233  1.00  0.00     0.210 C 
ENDBRANCH   5  27
TORSDOF 8
ENDMDL
MODEL 2
REMARK VINA RESULT:      -7.5      3.045      6.304
REMARK  8 active torsions:
REMARK  status: ('A' for Active; 'I' for Inactive)
REMARK    1  A    between atoms: C4_5  and  O1_6 
REMARK    2  A    between atoms: C6_8  and  O2_9 
REMARK    3  A    between atoms: O2_9  and  C7_10 
REMARK    4  A    between atoms: C7_10  and  C8_11 
REMARK    5  A    between atoms: C8_11  and  C9_12 
REMARK    6  A    between atoms: C9_12  and  N2_13 
REMARK    7  A    between atoms: C14_18  and  N3_20 
REMARK    8  A    between atoms: N3_20  and  C15_21 
ROOT
HETATM    1  C1  UNL     1      19.322  -0.141  52.416  1.00  0.00     0.178 C 
HETATM    2  N1  UNL     1      20.711  -0.136  52.795  1.00  0.00    -0.293 NA
HETATM    3  C2  UNL     1      21.546   0.568  52.128  1.00  0.00     0.066 A 
HETATM    4  C3  UNL     1      21.265   1.411  50.975  1.00  0.00     0.071 A 
HETATM    5  C4  UNL     1      22.136   2.128  50.304  1.00  0.00     0.103 A 
HETATM    6  C6  UNL     1      23.526   2.048  50.792  1.00  0.00     0.103 A 
HETATM    7  C12 UNL     1      23.916   1.329  51.819  1.00  0.00     0.056 A 
HETATM    8  C13 UNL     1      22.941   0.540  52.553  1.00  0.00     0.034 A 
HETATM    9  C14 UNL     1      23.277  -0.200  53.592  1.00  0.00     0.116 C 
HETATM   10 CL1  UNL     1      22.108  -1.139  54.465  1.00  0.00    -0.064 Cl
ENDROOT
BRANCH   9  11
HETATM   11  N3  UNL     1      24.553  -0.376  54.181  1.00  0.00    -0.346 N 
HETATM   12  H21 UNL     1      24.507  -0.386  55.219  1.00  0.00     0.167 HD
BRANCH  11  13
HETATM   13  C15 UNL     1      25.935  -0.555  53.902  1.00  0.00     0.036 A 
HETATM   14  C16 UNL     1      26.474  -1.385  52.941  1.00  0.00     0.029 A 
HETATM   15  C17 UNL     1      27.845  -1.441  52.799  1.00  0.00     0.005 A 
HETATM   16  C18 UNL     1      28.620  -0.657  53.630  1.00  0.00     0.042 A 
HETATM   17  C19 UNL     1      28.125   0.188  54.603  1.00  0.00     0.118 A 
HETATM   18  F1  UNL     1      29.013   0.882  55.327  1.00  0.00    -0.206 F 
HETATM   19  C20 UNL     1      26.740   0.228  54.731  1.00  0.00     0.071 A 
ENDBRANCH  11  13
ENDBRANCH   9  11
BRANCH   6  20
HETATM   20  O2  UNL     1      24.482   2.797  50.108  1.00  0.00    -0.348 OA
BRANCH  20  21
HETATM   21  C7  UNL     1      25.750   3.098  50.655  1.00  0.00     0.177 C 
BRANCH  21  22
HETATM   22  C8  UNL     1      26.498   3.872  49.590  1.00  0.00     0.057 C 
BRANCH  22  23
HETATM   23  C9  UNL     1      25.596   5.008  49.189  1.00  0.00     0.273 C 
BRANCH  23  24
HETATM   24  N2  UNL     1      25.773   6.191  50.012  1.00  0.00     0.080 N 
HETATM   25  C10 UNL     1      24.522   6.522  50.672  1.00  0.00     0.309 C 
HETATM   26  C11 UNL     1      26.256   7.288  49.195  1.00  0.00     0.309 C 
ENDBRANCH  23  24
ENDBRANCH  22  23
ENDBRANCH  21  22
ENDBRANCH  20  21
ENDBRANCH   6  20
BRANCH   5  27
HETATM   27  O1  UNL     1      21.765   2.902  49.213  1.00  0.00    -0.353 OA
HETATM   28  C5  UNL     1      21.051   2.263  48.181  1.00  0.00     0.210 C 
ENDBRANCH   5  27
TORSDOF 8
ENDMDL
MODEL 3
REMARK VINA RESULT:      -7.4      3.465      6.627
REMARK  8 active torsions:
REMARK  status: ('A' for Active; 'I' for Inactive)
REMARK    1  A    between atoms: C4_5  and  O1_6 
REMARK    2  A    between atoms: C6_8  and  O2_9 
REMARK    3  A    between atoms: O2_9  and  C7_10 
REMARK    4  A    between atoms: C7_10  and  C8_11 
REMARK    5  A    between atoms: C8_11  and  C9_12 
REMARK    6  A    between atoms: C9_12  and  N2_13 
REMARK    7  A    between atoms: C14_18  and  N3_20 
REMARK    8  A    between atoms: N3_20  and  C15_21 
ROOT
HETATM    1  C1  UNL     1      20.699   0.024  54.270  1.00  0.00     0.178 C 
HETATM    2  N1  UNL     1      22.020   0.216  53.728  1.00  0.00    -0.293 NA
HETATM    3  C2  UNL     1      22.250   1.216  52.963  1.00  0.00     0.066 A 
HETATM    4  C3  UNL     1      21.305   2.242  52.546  1.00  0.00     0.071 A 
HETATM    5  C4  UNL     1      21.562   3.263  51.760  1.00  0.00     0.103 A 
HETATM    6  C6  UNL     1      22.951   3.347  51.272  1.00  0.00     0.103 A 
HETATM    7  C12 UNL     1      23.900   2.491  51.570  1.00  0.00     0.056 A 
HETATM    8  C13 UNL     1      23.603   1.366  52.440  1.00  0.00     0.034 A 
HETATM    9  C14 UNL     1      24.519   0.477  52.774  1.00  0.00     0.116 C 
HETATM   10 CL1  UNL     1      24.158  -0.865  53.814  1.00  0.00    -0.064 Cl
ENDROOT
BRANCH   9  11
HETATM   11  N3  UNL     1      25.882   0.422  52.395  1.00  0.00    -0.346 N 
HETATM   12  H21 UNL     1      26.007   0.521  51.368  1.00  0.00     0.167 HD
BRANCH  11  13
HETATM   13  C15 UNL     1      27.208   0.279  52.886  1.00  0.00     0.036 A 
HETATM   14  C16 UNL     1      28.027   1.294  53.337  1.00  0.00     0.029 A 
HETATM   15  C17 UNL     1      29.294   0.983  53.783  1.00  0.00     0.005 A 
HETATM   16  C18 UNL     1      29.688  -0.341  53.759  1.00  0.00     0.042 A 
HETATM   17  C19 UNL     1      28.904  -1.388  53.318  1.00  0.00     0.118 A 
HETATM   18  F1  UNL     1      29.436  -2.616  53.360  1.00  0.00    -0.206 F 
HETATM   19  C20 UNL     1      27.630  -1.052  52.871  1.00  0.00     0.071 A 
ENDBRANCH  11  13
ENDBRANCH   9  11
BRANCH   6  20
HETATM   20  O2  UNL     1      23.265   4.418  50.437  1.00  0.00    -0.348 OA
BRANCH  20  21
HETATM   21  C7  UNL     1      23.724   4.244  49.112  1.00  0.00     0.177 C 
BRANCH  21  22
HETATM   22  C8  UNL     1      22.491   4.015  48.263  1.00  0.00     0.057 C 
BRANCH  22  23
HETATM   23  C9  UNL     1      22.569   2.590  47.787  1.00  0.00     0.273 C 
BRANCH  23  24
HETATM   24  N2  UNL     1      21.315   1.874  47.930  1.00  0.00     0.080 N 
HETATM   25  C10 UNL     1      20.231   2.817  48.146  1.00  0.00     0.309 C 
HETATM   26  C11 UNL     1      21.418   0.917  49.015  1.00  0.00     0.309 C 
ENDBRANCH  23  24
ENDBRANCH  22  23
ENDBRANCH  21  22
ENDBRANCH  20  21
ENDBRANCH   6  20
BRANCH   5  27
HETATM   27  O1  UNL     1      20.586   4.190  51.421  1.00  0.00    -0.353 OA
HETATM   28  C5  UNL     1      19.243   3.783  51.525  1.00  0.00     0.210 C 
ENDBRANCH   5  27
TORSDOF 8
ENDMDL
MODEL 4
REMARK VINA RESULT:      -7.4      3.107      6.061
REMARK  8 active torsions:
REMARK  status: ('A' for Active; 'I' for Inactive)
REMARK    1  A    between atoms: C4_5  and  O1_6 
REMARK    2  A    between atoms: C6_8  and  O2_9 
REMARK    3  A    between atoms: O2_9  and  C7_10 
REMARK    4  A    between atoms: C7_10  and  C8_11 
REMARK    5  A    between atoms: C8_11  and  C9_12 
REMARK    6  A    between atoms: C9_12  and  N2_13 
REMARK    7  A    between atoms: C14_18  and  N3_20 
REMARK    8  A    between atoms: N3_20  and  C15_21 
ROOT
HETATM    1  C1  UNL     1      20.905  -1.394  54.230  1.00  0.00     0.178 C 
HETATM    2  N1  UNL     1      22.151  -0.790  53.835  1.00  0.00    -0.293 NA
HETATM    3  C2  UNL     1      22.175   0.022  52.847  1.00  0.00     0.066 A 
HETATM    4  C3  UNL     1      21.049   0.443  52.025  1.00  0.00     0.071 A 
HETATM    5  C4  UNL     1      21.093   1.281  51.015  1.00  0.00     0.103 A 
HETATM    6  C6  UNL     1      22.428   1.830  50.711  1.00  0.00     0.103 A 
HETATM    7  C12 UNL     1      23.523   1.536  51.371  1.00  0.00     0.056 A 
HETATM    8  C13 UNL     1      23.461   0.607  52.487  1.00  0.00     0.034 A 
HETATM    9  C14 UNL     1      24.530   0.278  53.185  1.00  0.00     0.116 C 
HETATM   10 CL1  UNL     1      24.449  -0.832  54.517  1.00  0.00    -0.064 Cl
ENDROOT
BRANCH   9  11
HETATM   11  N3  UNL     1      25.867   0.717  53.023  1.00  0.00    -0.346 N 
HETATM   12  H21 UNL     1      25.923   1.615  52.504  1.00  0.00     0.167 HD
BRANCH  11  13
HETATM   13  C15 UNL     1      27.224   0.402  53.304  1.00  0.00     0.036 A 
HETATM   14  C16 UNL     1      28.176   1.265  53.807  1.00  0.00     0.029 A 
HETATM   15  C17 UNL     1      29.455   0.797  54.023  1.00  0.00     0.005 A 
HETATM   16  C18 UNL     1      29.726  -0.524  53.726  1.00  0.00     0.042 A 
HETATM   17  C19 UNL     1      28.806  -1.422  53.222  1.00  0.00     0.118 A 
HETATM   18  F1  UNL     1      29.230  -2.671  52.987  1.00  0.00    -0.206 F 
HETATM   19  C20 UNL     1      27.523  -0.929  53.010  1.00  0.00     0.071 A 
ENDBRANCH  11  13
ENDBRANCH   9  11
BRANCH   6  20
HETATM   20  O2  UNL     1      22.517   2.726  49.647  1.00  0.00    -0.348 OA
BRANCH  20  21
HETATM   21  C7  UNL     1      22.911   4.073  49.814  1.00  0.00     0.177 C 
BRANCH  21  22
HETATM   22  C8  UNL     1      24.129   4.270  48.935  1.00  0.00     0.057 C 
BRANCH  22  23
HETATM   23  C9  UNL     1      25.073   5.141  49.718  1.00  0.00     0.273 C 
BRANCH  23  24
HETATM   24  N2  UNL     1      26.434   4.635  49.731  1.00  0.00     0.080 N 
HETATM   25  C10 UNL     1      27.211   5.286  48.691  1.00  0.00     0.309 C 
HETATM   26  C11 UNL     1      26.422   3.194  49.570  1.00  0.00     0.309 C 
ENDBRANCH  23  24
ENDBRANCH  22  23
ENDBRANCH  21  22
ENDBRANCH  20  21
ENDBRANCH   6  20
BRANCH   5  27
HETATM   27  O1  UNL     1      19.958   1.618  50.291  1.00  0.00    -0.353 OA
HETATM   28  C5  UNL     1      18.833   0.782  50.427  1.00  0.00     0.210 C 
ENDBRANCH   5  27
TORSDOF 8
ENDMDL
MODEL 5
REMARK VINA RESULT:      -7.3      2.840      6.128
REMARK  8 active torsions:
REMARK  status: ('A' for Active; 'I' for Inactive)
REMARK    1  A    between atoms: C4_5  and  O1_6 
REMARK    2  A    between atoms: C6_8  and  O2_9 
REMARK    3  A    between atoms: O2_9  and  C7_10 
REMARK    4  A    between atoms: C7_10  and  C8_11 
REMARK    5  A    between atoms: C8_11  and  C9_12 
REMARK    6  A    between atoms: C9_12  and  N2_13 
REMARK    7  A    between atoms: C14_18  and  N3_20 
REMARK    8  A    between atoms: N3_20  and  C15_21 
ROOT
HETATM    1  C1  UNL     1      20.627  -1.118  54.290  1.00  0.00     0.178 C 
HETATM    2  N1  UNL     1      21.870  -0.538  53.849  1.00  0.00    -0.293 NA
HETATM    3  C2  UNL     1      21.869   0.621  53.306  1.00  0.00     0.066 A 
HETATM    4  C3  UNL     1      20.718   1.478  53.061  1.00  0.00     0.071 A 
HETATM    5  C4  UNL     1      20.737   2.667  52.503  1.00  0.00     0.103 A 
HETATM    6  C6  UNL     1      22.071   3.149  52.097  1.00  0.00     0.103 A 
HETATM    7  C12 UNL     1      23.187   2.479  52.258  1.00  0.00     0.056 A 
HETATM    8  C13 UNL     1      23.152   1.164  52.877  1.00  0.00     0.034 A 
HETATM    9  C14 UNL     1      24.244   0.449  53.066  1.00  0.00     0.116 C 
HETATM   10 CL1  UNL     1      24.195  -1.120  53.806  1.00  0.00    -0.064 Cl
ENDROOT
BRANCH   9  11
HETATM   11  N3  UNL     1      25.584   0.770  52.739  1.00  0.00    -0.346 N 
HETATM   12  H21 UNL     1      25.643   1.455  51.959  1.00  0.00     0.167 HD
BRANCH  11  13
HETATM   13  C15 UNL     1      26.942   0.516  53.070  1.00  0.00     0.036 A 
HETATM   14  C16 UNL     1      27.617  -0.674  52.897  1.00  0.00     0.029 A 
HETATM   15  C17 UNL     1      28.942  -0.753  53.274  1.00  0.00     0.005 A 
HETATM   16  C18 UNL     1      29.537   0.373  53.808  1.00  0.00     0.042 A 
HETATM   17  C19 UNL     1      28.901   1.584  53.999  1.00  0.00     0.118 A 
HETATM   18  F1  UNL     1      29.621   2.580  54.531  1.00  0.00    -0.206 F 
HETATM   19  C20 UNL     1      27.565   1.641  53.614  1.00  0.00     0.071 A 
ENDBRANCH  11  13
ENDBRANCH   9  11
BRANCH   6  20
HETATM   20  O2  UNL     1      22.135   4.408  51.502  1.00  0.00    -0.348 OA
BRANCH  20  21
HETATM   21  C7  UNL     1      23.035   5.409  51.930  1.00  0.00     0.177 C 
BRANCH  21  22
HETATM   22  C8  UNL     1      23.431   6.182  50.689  1.00  0.00     0.057 C 
BRANCH  22  23
HETATM   23  C9  UNL     1      24.385   5.298  49.933  1.00  0.00     0.273 C 
BRANCH  23  24
HETATM   24  N2  UNL     1      25.762   5.753  50.010  1.00  0.00     0.080 N 
HETATM   25  C10 UNL     1      25.804   7.205  49.972  1.00  0.00     0.309 C 
HETATM   26  C11 UNL     1      26.532   5.166  48.930  1.00  0.00     0.309 C 
ENDBRANCH  23  24
ENDBRANCH  22  23
ENDBRANCH  21  22
ENDBRANCH  20  21
ENDBRANCH   6  20
BRANCH   5  27
HETATM   27  O1  UNL     1      19.579   3.408  52.314  1.00  0.00    -0.353 OA
HETATM   28  C5  UNL     1      18.666   2.943  51.348  1.00  0.00     0.210 C 
ENDBRANCH   5  27
TORSDOF 8
ENDMDL
MODEL 6
REMARK VINA RESULT:      -7.1      2.237      4.978
REMARK  8 active torsions:
REMARK  status: ('A' for Active; 'I' for Inactive)
REMARK    1  A    between atoms: C4_5  and  O1_6 
REMARK    2  A    between atoms: C6_8  and  O2_9 
REMARK    3  A    between atoms: O2_9  and  C7_10 
REMARK    4  A    between atoms: C7_10  and  C8_11 
REMARK    5  A    between atoms: C8_11  and  C9_12 
REMARK    6  A    between atoms: C9_12  and  N2_13 
REMARK    7  A    between atoms: C14_18  and  N3_20 
REMARK    8  A    between atoms: N3_20  and  C15_21 
ROOT
HETATM    1  C1  UNL     1      26.317   0.113  54.722  1.00  0.00     0.178 C 
HETATM    2  N1  UNL     1      26.018   0.856  53.524  1.00  0.00    -0.293 NA
HETATM    3  C2  UNL     1      24.856   0.765  52.997  1.00  0.00     0.066 A 
HETATM    4  C3  UNL     1      23.732  -0.030  53.473  1.00  0.00     0.071 A 
HETATM    5  C4  UNL     1      22.545  -0.108  52.918  1.00  0.00     0.103 A 
HETATM    6  C6  UNL     1      22.366   0.700  51.697  1.00  0.00     0.103 A 
HETATM    7  C12 UNL     1      23.293   1.459  51.163  1.00  0.00     0.056 A 
HETATM    8  C13 UNL     1      24.604   1.537  51.787  1.00  0.00     0.034 A 
HETATM    9  C14 UNL     1      25.572   2.285  51.292  1.00  0.00     0.116 C 
HETATM   10 CL1  UNL     1      27.134   2.374  52.042  1.00  0.00    -0.064 Cl
ENDROOT
BRANCH   9  11
HETATM   11  N3  UNL     1      25.556   3.113  50.144  1.00  0.00    -0.346 N 
HETATM   12  H21 UNL     1      25.033   2.681  49.357  1.00  0.00     0.167 HD
BRANCH  11  13
HETATM   13  C15 UNL     1      25.992   4.359  49.617  1.00  0.00     0.036 A 
HETATM   14  C16 UNL     1      25.306   5.554  49.670  1.00  0.00     0.029 A 
HETATM   15  C17 UNL     1      25.873   6.678  49.107  1.00  0.00     0.005 A 
HETATM   16  C18 UNL     1      27.114   6.554  48.512  1.00  0.00     0.042 A 
HETATM   17  C19 UNL     1      27.836   5.380  48.435  1.00  0.00     0.118 A 
HETATM   18  F1  UNL     1      29.027   5.429  47.823  1.00  0.00    -0.206 F 
HETATM   19  C20 UNL     1      27.244   4.259  49.009  1.00  0.00     0.071 A 
ENDBRANCH  11  13
ENDBRANCH   9  11
BRANCH   6  20
HETATM   20  O2  UNL     1      21.118   0.647  51.079  1.00  0.00    -0.348 OA
BRANCH  20  21
HETATM   21  C7  UNL     1      20.285   1.780  50.942  1.00  0.00     0.177 C 
BRANCH  21  22
HETATM   22  C8  UNL     1      20.337   2.507  52.270  1.00  0.00     0.057 C 
BRANCH  22  23
HETATM   23  C9  UNL     1      20.341   3.975  51.942  1.00  0.00     0.273 C 
BRANCH  23  24
HETATM   24  N2  UNL     1      21.588   4.422  51.349  1.00  0.00     0.080 N 
HETATM   25  C10 UNL     1      22.509   4.836  52.394  1.00  0.00     0.309 C 
HETATM   26  C11 UNL     1      21.327   5.494  50.408  1.00  0.00     0.309 C 
ENDBRANCH  23  24
ENDBRANCH  22  23
ENDBRANCH  21  22
ENDBRANCH  20  21
ENDBRANCH   6  20
BRANCH   5  27
HETATM   27  O1  UNL     1      21.537  -0.899  53.452  1.00  0.00    -0.353 OA
HETATM   28  C5  UNL     1      21.834  -1.621  54.623  1.00  0.00     0.210 C 
ENDBRANCH   5  27
TORSDOF 8
ENDMDL
MODEL 7
REMARK VINA RESULT:      -6.9      1.921      2.276
REMARK  8 active torsions:
REMARK  status: ('A' for Active; 'I' for Inactive)
REMARK    1  A    between atoms: C4_5  and  O1_6 
REMARK    2  A    between atoms: C6_8  and  O2_9 
REMARK    3  A    between atoms: O2_9  and  C7_10 
REMARK    4  A    between atoms: C7_10  and  C8_11 
REMARK    5  A    between atoms: C8_11  and  C9_12 
REMARK    6  A    between atoms: C9_12  and  N2_13 
REMARK    7  A    between atoms: C14_18  and  N3_20 
REMARK    8  A    between atoms: N3_20  and  C15_21 
ROOT
HETATM    1  C1  UNL     1      19.798   0.445  52.057  1.00  0.00     0.178 C 
HETATM    2  N1  UNL     1      20.515   1.695  52.080  1.00  0.00    -0.293 NA
HETATM    3  C2  UNL     1      21.755   1.707  52.394  1.00  0.00     0.066 A 
HETATM    4  C3  UNL     1      22.586   0.564  52.748  1.00  0.00     0.071 A 
HETATM    5  C4  UNL     1      23.859   0.597  53.065  1.00  0.00     0.103 A 
HETATM    6  C6  UNL     1      24.477   1.936  53.051  1.00  0.00     0.103 A 
HETATM    7  C12 UNL     1      23.845   3.047  52.751  1.00  0.00     0.056 A 
HETATM    8  C13 UNL     1      22.435   2.997  52.402  1.00  0.00     0.034 A 
HETATM    9  C14 UNL     1      21.751   4.081  52.090  1.00  0.00     0.116 C 
HETATM   10 CL1  UNL     1      20.068   4.015  51.674  1.00  0.00    -0.064 Cl
ENDROOT
BRANCH   9  11
HETATM   11  N3  UNL     1      22.196   5.424  52.028  1.00  0.00    -0.346 N 
HETATM   12  H21 UNL     1      22.143   5.897  52.952  1.00  0.00     0.167 HD
BRANCH  11  13
HETATM   13  C15 UNL     1      22.711   6.427  51.163  1.00  0.00     0.036 A 
HETATM   14  C16 UNL     1      21.981   7.210  50.293  1.00  0.00     0.029 A 
HETATM   15  C17 UNL     1      22.640   8.143  49.520  1.00  0.00     0.005 A 
HETATM   16  C18 UNL     1      24.010   8.253  49.655  1.00  0.00     0.042 A 
HETATM   17  C19 UNL     1      24.780   7.492  50.511  1.00  0.00     0.118 A 
HETATM   18  F1  UNL     1      26.099   7.723  50.521  1.00  0.00    -0.206 F 
HETATM   19  C20 UNL     1      24.096   6.556  51.280  1.00  0.00     0.071 A 
ENDBRANCH  11  13
ENDBRANCH   9  11
BRANCH   6  20
HETATM   20  O2  UNL     1      25.830   2.014  53.380  1.00  0.00    -0.348 OA
BRANCH  20  21
HETATM   21  C7  UNL     1      26.835   2.268  52.420  1.00  0.00     0.177 C 
BRANCH  21  22
HETATM   22  C8  UNL     1      28.097   1.617  52.948  1.00  0.00     0.057 C 
BRANCH  22  23
HETATM   23  C9  UNL     1      27.920   0.137  52.748  1.00  0.00     0.273 C 
BRANCH  23  24
HETATM   24  N2  UNL     1      28.426  -0.651  53.857  1.00  0.00     0.080 N 
HETATM   25  C10 UNL     1      28.555   0.188  55.037  1.00  0.00     0.309 C 
HETATM   26  C11 UNL     1      29.691  -1.258  53.490  1.00  0.00     0.309 C 
ENDBRANCH  23  24
ENDBRANCH  22  23
ENDBRANCH  21  22
ENDBRANCH  20  21
ENDBRANCH   6  20
BRANCH   5  27
HETATM   27  O1  UNL     1      24.565  -0.554  53.389  1.00  0.00    -0.353 OA
HETATM   28  C5  UNL     1      24.618  -0.918  54.748  1.00  0.00     0.210 C 
ENDBRANCH   5  27
TORSDOF 8
ENDMDL
MODEL 8
REMARK VINA RESULT:      -6.9      2.703      5.522
REMARK  8 active torsions:
REMARK  status: ('A' for Active; 'I' for Inactive)
REMARK    1  A    between atoms: C4_5  and  O1_6 
REMARK    2  A    between atoms: C6_8  and  O2_9 
REMARK    3  A    between atoms: O2_9  and  C7_10 
REMARK    4  A    between atoms: C7_10  and  C8_11 
REMARK    5  A    between atoms: C8_11  and  C9_12 
REMARK    6  A    between atoms: C9_12  and  N2_13 
REMARK    7  A    between atoms: C14_18  and  N3_20 
REMARK    8  A    between atoms: N3_20  and  C15_21 
ROOT
HETATM    1  C1  UNL     1      26.276  -0.108  54.649  1.00  0.00     0.178 C 
HETATM    2  N1  UNL     1      25.983   0.697  53.491  1.00  0.00    -0.293 NA
HETATM    3  C2  UNL     1      24.805   0.679  52.991  1.00  0.00     0.066 A 
HETATM    4  C3  UNL     1      23.659  -0.086  53.462  1.00  0.00     0.071 A 
HETATM    5  C4  UNL     1      22.456  -0.088  52.935  1.00  0.00     0.103 A 
HETATM    6  C6  UNL     1      22.285   0.778  51.753  1.00  0.00     0.103 A 
HETATM    7  C12 UNL     1      23.232   1.518  51.227  1.00  0.00     0.056 A 
HETATM    8  C13 UNL     1      24.559   1.512  51.820  1.00  0.00     0.034 A 
HETATM    9  C14 UNL     1      25.547   2.237  51.333  1.00  0.00     0.116 C 
HETATM   10 CL1  UNL     1      27.130   2.226  52.045  1.00  0.00    -0.064 Cl
ENDROOT
BRANCH   9  11
HETATM   11  N3  UNL     1      25.542   3.113  50.220  1.00  0.00    -0.346 N 
HETATM   12  H21 UNL     1      24.880   2.803  49.481  1.00  0.00     0.167 HD
BRANCH  11  13
HETATM   13  C15 UNL     1      26.107   4.304  49.689  1.00  0.00     0.036 A 
HETATM   14  C16 UNL     1      27.244   4.394  48.913  1.00  0.00     0.029 A 
HETATM   15  C17 UNL     1      27.659   5.635  48.476  1.00  0.00     0.005 A 
HETATM   16  C18 UNL     1      26.912   6.738  48.838  1.00  0.00     0.042 A 
HETATM   17  C19 UNL     1      25.769   6.696  49.612  1.00  0.00     0.118 A 
HETATM   18  F1  UNL     1      25.160   7.859  49.874  1.00  0.00    -0.206 F 
HETATM   19  C20 UNL     1      25.369   5.435  50.043  1.00  0.00     0.071 A 
ENDBRANCH  11  13
ENDBRANCH   9  11
BRANCH   6  20
HETATM   20  O2  UNL     1      21.021   0.805  51.165  1.00  0.00    -0.348 OA
BRANCH  20  21
HETATM   21  C7  UNL     1      20.378   2.007  50.795  1.00  0.00     0.177 C 
BRANCH  21  22
HETATM   22  C8  UNL     1      19.744   1.749  49.443  1.00  0.00     0.057 C 
BRANCH  22  23
HETATM   23  C9  UNL     1      20.840   1.924  48.428  1.00  0.00     0.273 C 
BRANCH  23  24
HETATM   24  N2  UNL     1      21.087   3.315  48.094  1.00  0.00     0.080 N 
HETATM   25  C10 UNL     1      20.482   3.629  46.811  1.00  0.00     0.309 C 
HETATM   26  C11 UNL     1      22.515   3.571  48.090  1.00  0.00     0.309 C 
ENDBRANCH  23  24
ENDBRANCH  22  23
ENDBRANCH  21  22
ENDBRANCH  20  21
ENDBRANCH   6  20
BRANCH   5  27
HETATM   27  O1  UNL     1      21.427  -0.857  53.461  1.00  0.00    -0.353 OA
HETATM   28  C5  UNL     1      21.731  -1.675  54.565  1.00  0.00     0.210 C 
ENDBRANCH   5  27
TORSDOF 8
ENDMDL
MODEL 9
REMARK VINA RESULT:      -6.8      3.206      6.109
REMARK  8 active torsions:
REMARK  status: ('A' for Active; 'I' for Inactive)
REMARK    1  A    between atoms: C4_5  and  O1_6 
REMARK    2  A    between atoms: C6_8  and  O2_9 
REMARK    3  A    between atoms: O2_9  and  C7_10 
REMARK    4  A    between atoms: C7_10  and  C8_11 
REMARK    5  A    between atoms: C8_11  and  C9_12 
REMARK    6  A    between atoms: C9_12  and  N2_13 
REMARK    7  A    between atoms: C14_18  and  N3_20 
REMARK    8  A    between atoms: N3_20  and  C15_21 
ROOT
HETATM    1  C1  UNL     1      21.847   5.303  46.962  1.00  0.00     0.178 C 
HETATM    2  N1  UNL     1      21.884   4.168  47.848  1.00  0.00    -0.293 NA
HETATM    3  C2  UNL     1      22.889   4.004  48.624  1.00  0.00     0.066 A 
HETATM    4  C3  UNL     1      24.063   4.859  48.737  1.00  0.00     0.071 A 
HETATM    5  C4  UNL     1      25.084   4.674  49.542  1.00  0.00     0.103 A 
HETATM    6  C6  UNL     1      25.002   3.477  50.399  1.00  0.00     0.103 A 
HETATM    7  C12 UNL     1      24.003   2.626  50.397  1.00  0.00     0.056 A 
HETATM    8  C13 UNL     1      22.879   2.841  49.502  1.00  0.00     0.034 A 
HETATM    9  C14 UNL     1      21.848   2.018  49.461  1.00  0.00     0.116 C 
HETATM   10 CL1  UNL     1      20.508   2.281  48.390  1.00  0.00    -0.064 Cl
ENDROOT
BRANCH   9  11
HETATM   11  N3  UNL     1      21.620   0.841  50.214  1.00  0.00    -0.346 N 
HETATM   12  H21 UNL     1      21.946  -0.011  49.717  1.00  0.00     0.167 HD
BRANCH  11  13
HETATM   13  C15 UNL     1      21.100   0.341  51.438  1.00  0.00     0.036 A 
HETATM   14  C16 UNL     1      19.767   0.188  51.758  1.00  0.00     0.029 A 
HETATM   15  C17 UNL     1      19.429  -0.315  52.997  1.00  0.00     0.005 A 
HETATM   16  C18 UNL     1      20.450  -0.648  53.866  1.00  0.00     0.042 A 
HETATM   17  C19 UNL     1      21.795  -0.513  53.589  1.00  0.00     0.118 A 
HETATM   18  F1  UNL     1      22.660  -0.882  54.543  1.00  0.00    -0.206 F 
HETATM   19  C20 UNL     1      22.113  -0.002  52.335  1.00  0.00     0.071 A 
ENDBRANCH  11  13
ENDBRANCH   9  11
BRANCH   6  20
HETATM   20  O2  UNL     1      26.066   3.246  51.269  1.00  0.00    -0.348 OA
BRANCH  20  21
HETATM   21  C7  UNL     1      26.752   2.012  51.325  1.00  0.00     0.177 C 
BRANCH  21  22
HETATM   22  C8  UNL     1      26.869   1.659  52.793  1.00  0.00     0.057 C 
BRANCH  22  23
HETATM   23  C9  UNL     1      27.268   0.209  52.844  1.00  0.00     0.273 C 
BRANCH  23  24
HETATM   24  N2  UNL     1      27.564  -0.252  54.188  1.00  0.00     0.080 N 
HETATM   25  C10 UNL     1      26.457   0.067  55.073  1.00  0.00     0.309 C 
HETATM   26  C11 UNL     1      28.806   0.342  54.647  1.00  0.00     0.309 C 
ENDBRANCH  23  24
ENDBRANCH  22  23
ENDBRANCH  21  22
ENDBRANCH  20  21
ENDBRANCH   6  20
BRANCH   5  27
HETATM   27  O1  UNL     1      26.160   5.551  49.574  1.00  0.00    -0.353 OA
HETATM   28  C5  UNL     1      27.245   5.274  48.720  1.00  0.00     0.210 C 
ENDBRANCH   5  27
TORSDOF 8
ENDMDL
