MODEL 1
REMARK VINA RESULT:      -7.0      0.000      0.000
REMARK  7 active torsions:
REMARK  status: ('A' for Active; 'I' for Inactive)
REMARK    1  A    between atoms: C2_2  and  C3_3 
REMARK    2  A    between atoms: C3_3  and  C4_4 
REMARK    3  A    between atoms: C4_4  and  C5_5 
REMARK    4  A    between atoms: C5_5  and  N1_6 
REMARK    5  A    between atoms: N1_6  and  C6_7 
REMARK    6  A    between atoms: C11_15  and  C12_16 
REMARK    7  A    between atoms: C12_16  and  C13_17 
ROOT
HETATM    1  C6  UNL     1      24.852   2.338  52.514  1.00  0.00     0.155 A 
HETATM    2  N2  UNL     1      23.679   1.692  52.419  1.00  0.00    -0.222 NA
HETATM    3  C7  UNL     1      23.458   0.512  53.017  1.00  0.00     0.238 A 
HETATM    4  N3  UNL     1      24.398  -0.107  53.753  1.00  0.00    -0.216 NA
HETATM    5  C8  UNL     1      25.614   0.479  53.899  1.00  0.00     0.196 A 
HETATM    6  C9  UNL     1      25.809   1.711  53.262  1.00  0.00     0.128 A 
HETATM    7  N4  UNL     1      27.008   2.504  53.293  1.00  0.00    -0.383 N 
HETATM    8  C10 UNL     1      28.395   2.060  53.381  1.00  0.00     0.126 C 
HETATM    9  C11 UNL     1      28.421   0.564  53.627  1.00  0.00     0.028 C 
HETATM   10  C14 UNL     1      27.849   0.192  54.951  1.00  0.00     0.183 C 
HETATM   11  O1  UNL     1      26.510  -0.267  54.692  1.00  0.00    -0.332 OA
HETATM   12  H10 UNL     1      26.775   3.513  53.245  1.00  0.00     0.159 HD
ENDROOT
BRANCH   1  13
HETATM   13  N1  UNL     1      25.022   3.580  51.847  1.00  0.00    -0.372 N 
HETATM   14  H8  UNL     1      25.175   4.554  52.162  1.00  0.00     0.161 HD
BRANCH  13  15
HETATM   15  C5  UNL     1      24.990   3.567  50.394  1.00  0.00     0.139 C 
BRANCH  15  16
HETATM   16  C4  UNL     1      26.312   3.220  49.825  1.00  0.00     0.086 C 
BRANCH  16  17
HETATM   17  C3  UNL     1      26.950   4.187  49.180  1.00  0.00    -0.170 C 
BRANCH  17  18
HETATM   18  C2  UNL     1      27.798   5.018  48.592  1.00  0.00     0.062 C 
HETATM   19  C1  UNL     1      27.309   6.400  48.356  1.00  0.00     0.023 C 
ENDBRANCH  17  18
ENDBRANCH  16  17
ENDBRANCH  15  16
ENDBRANCH  13  15
ENDBRANCH   1  13
BRANCH   9  20
HETATM   20  C12 UNL     1      29.819   0.074  53.499  1.00  0.00     0.019 C 
BRANCH  20  21
HETATM   21  C13 UNL     1      30.057  -1.326  53.950  1.00  0.00     0.085 C 
HETATM   22 BR1  UNL     1      28.832  -2.469  52.958  1.00  0.00    -0.096 Br
ENDBRANCH  20  21
ENDBRANCH   9  20
TORSDOF 7
ENDMDL
MODEL 2
REMARK VINA RESULT:      -6.8      2.893      4.899
REMARK  7 active torsions:
REMARK  status: ('A' for Active; 'I' for Inactive)
REMARK    1  A    between atoms: C2_2  and  C3_3 
REMARK    2  A    between atoms: C3_3  and  C4_4 
REMARK    3  A    between atoms: C4_4  and  C5_5 
REMARK    4  A    between atoms: C5_5  and  N1_6 
REMARK    5  A    between atoms: N1_6  and  C6_7 
REMARK    6  A    between atoms: C11_15  and  C12_16 
REMARK    7  A    between atoms: C12_16  and  C13_17 
ROOT
HETATM    1  C6  UNL     1      25.930   1.645  53.284  1.00  0.00     0.155 A 
HETATM    2  N2  UNL     1      26.944   1.296  54.091  1.00  0.00    -0.222 NA
HETATM    3  C7  UNL     1      26.884   0.227  54.900  1.00  0.00     0.238 A 
HETATM    4  N3  UNL     1      25.801  -0.568  54.958  1.00  0.00    -0.216 NA
HETATM    5  C8  UNL     1      24.730  -0.285  54.173  1.00  0.00     0.196 A 
HETATM    6  C9  UNL     1      24.828   0.838  53.341  1.00  0.00     0.128 A 
HETATM    7  N4  UNL     1      23.822   1.310  52.429  1.00  0.00    -0.383 N 
HETATM    8  C10 UNL     1      22.371   1.229  52.547  1.00  0.00     0.126 C 
HETATM    9  C11 UNL     1      22.020   0.373  53.748  1.00  0.00     0.028 C 
HETATM   10  C14 UNL     1      22.439  -1.047  53.581  1.00  0.00     0.183 C 
HETATM   11  O1  UNL     1      23.662  -1.192  54.325  1.00  0.00    -0.332 OA
HETATM   12  H10 UNL     1      24.265   1.754  51.602  1.00  0.00     0.159 HD
ENDROOT
BRANCH   1  13
HETATM   13  N1  UNL     1      26.056   2.796  52.462  1.00  0.00    -0.372 N 
HETATM   14  H8  UNL     1      25.701   3.767  52.519  1.00  0.00     0.161 HD
BRANCH  13  15
HETATM   15  C5  UNL     1      26.848   2.668  51.251  1.00  0.00     0.139 C 
BRANCH  15  16
HETATM   16  C4  UNL     1      26.122   3.184  50.069  1.00  0.00     0.086 C 
BRANCH  16  17
HETATM   17  C3  UNL     1      26.779   4.039  49.298  1.00  0.00    -0.170 C 
BRANCH  17  18
HETATM   18  C2  UNL     1      27.641   4.820  48.662  1.00  0.00     0.062 C 
HETATM   19  C1  UNL     1      27.226   6.231  48.460  1.00  0.00     0.023 C 
ENDBRANCH  17  18
ENDBRANCH  16  17
ENDBRANCH  15  16
ENDBRANCH  13  15
ENDBRANCH   1  13
BRANCH   9  20
HETATM   20  C12 UNL     1      20.557   0.466  54.001  1.00  0.00     0.019 C 
BRANCH  20  21
HETATM   21  C13 UNL     1      19.734  -0.647  53.451  1.00  0.00     0.085 C 
HETATM   22 BR1  UNL     1      18.787   0.050  51.898  1.00  0.00    -0.096 Br
ENDBRANCH  20  21
ENDBRANCH   9  20
TORSDOF 7
ENDMDL
MODEL 3
REMARK VINA RESULT:      -6.7      1.724      2.503
REMARK  7 active torsions:
REMARK  status: ('A' for Active; 'I' for Inactive)
REMARK    1  A    between atoms: C2_2  and  C3_3 
REMARK    2  A    between atoms: C3_3  and  C4_4 
REMARK    3  A    between atoms: C4_4  and  C5_5 
REMARK    4  A    between atoms: C5_5  and  N1_6 
REMARK    5  A    between atoms: N1_6  and  C6_7 
REMARK    6  A    between atoms: C11_15  and  C12_16 
REMARK    7  A    between atoms: C12_16  and  C13_17 
ROOT
HETATM    1  C6  UNL     1      24.422   3.666  50.844  1.00  0.00     0.155 A 
HETATM    2  N2  UNL     1      23.380   3.590  50.000  1.00  0.00    -0.222 NA
HETATM    3  C7  UNL     1      22.552   2.535  49.974  1.00  0.00     0.238 A 
HETATM    4  N3  UNL     1      22.709   1.479  50.792  1.00  0.00    -0.216 NA
HETATM    5  C8  UNL     1      23.738   1.476  51.677  1.00  0.00     0.196 A 
HETATM    6  C9  UNL     1      24.582   2.594  51.677  1.00  0.00     0.128 A 
HETATM    7  N4  UNL     1      25.720   2.800  52.532  1.00  0.00    -0.383 N 
HETATM    8  C10 UNL     1      26.636   1.812  53.088  1.00  0.00     0.126 C 
HETATM    9  C11 UNL     1      26.112   0.422  52.779  1.00  0.00     0.028 C 
HETATM   10  C14 UNL     1      24.822   0.132  53.466  1.00  0.00     0.183 C 
HETATM   11  O1  UNL     1      23.794   0.317  52.476  1.00  0.00    -0.332 OA
HETATM   12  H10 UNL     1      25.839   3.810  52.737  1.00  0.00     0.159 HD
ENDROOT
BRANCH   1  13
HETATM   13  N1  UNL     1      25.266   4.807  50.810  1.00  0.00    -0.372 N 
HETATM   14  H8  UNL     1      25.623   5.462  51.529  1.00  0.00     0.161 HD
BRANCH  13  15
HETATM   15  C5  UNL     1      25.791   5.212  49.518  1.00  0.00     0.139 C 
BRANCH  15  16
HETATM   16  C4  UNL     1      26.930   4.362  49.104  1.00  0.00     0.086 C 
BRANCH  16  17
HETATM   17  C3  UNL     1      27.965   4.984  48.558  1.00  0.00    -0.170 C 
BRANCH  17  18
HETATM   18  C2  UNL     1      28.937   5.798  48.171  1.00  0.00     0.062 C 
HETATM   19  C1  UNL     1      28.516   7.062  47.517  1.00  0.00     0.023 C 
ENDBRANCH  17  18
ENDBRANCH  16  17
ENDBRANCH  15  16
ENDBRANCH  13  15
ENDBRANCH   1  13
BRANCH   9  20
HETATM   20  C12 UNL     1      27.146  -0.581  53.149  1.00  0.00     0.019 C 
BRANCH  20  21
HETATM   21  C13 UNL     1      28.135  -0.142  54.172  1.00  0.00     0.085 C 
HETATM   22 BR1  UNL     1      29.875  -0.827  53.624  1.00  0.00    -0.096 Br
ENDBRANCH  20  21
ENDBRANCH   9  20
TORSDOF 7
ENDMDL
MODEL 4
REMARK VINA RESULT:      -6.6      3.630      6.237
REMARK  7 active torsions:
REMARK  status: ('A' for Active; 'I' for Inactive)
REMARK    1  A    between atoms: C2_2  and  C3_3 
REMARK    2  A    between atoms: C3_3  and  C4_4 
REMARK    3  A    between atoms: C4_4  and  C5_5 
REMARK    4  A    between atoms: C5_5  and  N1_6 
REMARK    5  A    between atoms: N1_6  and  C6_7 
REMARK    6  A    between atoms: C11_15  and  C12_16 
REMARK    7  A    between atoms: C12_16  and  C13_17 
ROOT
HETATM    1  C6  UNL     1      26.075   1.549  53.836  1.00  0.00     0.155 A 
HETATM    2  N2  UNL     1      26.145   0.347  54.428  1.00  0.00    -0.222 NA
HETATM    3  C7  UNL     1      25.209  -0.598  54.250  1.00  0.00     0.238 A 
HETATM    4  N3  UNL     1      24.134  -0.404  53.465  1.00  0.00    -0.216 NA
HETATM    5  C8  UNL     1      23.987   0.785  52.828  1.00  0.00     0.196 A 
HETATM    6  C9  UNL     1      24.984   1.748  53.036  1.00  0.00     0.128 A 
HETATM    7  N4  UNL     1      25.030   3.063  52.457  1.00  0.00    -0.383 N 
HETATM    8  C10 UNL     1      23.924   3.942  52.095  1.00  0.00     0.126 C 
HETATM    9  C11 UNL     1      22.619   3.185  52.253  1.00  0.00     0.028 C 
HETATM   10  C14 UNL     1      22.496   2.052  51.293  1.00  0.00     0.183 C 
HETATM   11  O1  UNL     1      22.824   0.864  52.036  1.00  0.00    -0.332 OA
HETATM   12  H10 UNL     1      26.013   3.355  52.304  1.00  0.00     0.159 HD
ENDROOT
BRANCH   1  13
HETATM   13  N1  UNL     1      27.095   2.507  54.077  1.00  0.00    -0.372 N 
HETATM   14  H8  UNL     1      27.154   3.370  54.647  1.00  0.00     0.161 HD
BRANCH  13  15
HETATM   15  C5  UNL     1      28.374   2.302  53.420  1.00  0.00     0.139 C 
BRANCH  15  16
HETATM   16  C4  UNL     1      29.305   1.529  54.272  1.00  0.00     0.086 C 
BRANCH  16  17
HETATM   17  C3  UNL     1      29.635   0.319  53.842  1.00  0.00    -0.170 C 
BRANCH  17  18
HETATM   18  C2  UNL     1      30.054  -0.923  53.650  1.00  0.00     0.062 C 
HETATM   19  C1  UNL     1      29.031  -1.902  53.204  1.00  0.00     0.023 C 
ENDBRANCH  17  18
ENDBRANCH  16  17
ENDBRANCH  15  16
ENDBRANCH  13  15
ENDBRANCH   1  13
BRANCH   9  20
HETATM   20  C12 UNL     1      21.484   4.134  52.099  1.00  0.00     0.019 C 
BRANCH  20  21
HETATM   21  C13 UNL     1      21.790   5.392  51.362  1.00  0.00     0.085 C 
HETATM   22 BR1  UNL     1      20.904   5.278  49.632  1.00  0.00    -0.096 Br
ENDBRANCH  20  21
ENDBRANCH   9  20
TORSDOF 7
ENDMDL
MODEL 5
REMARK VINA RESULT:      -6.3      3.127      6.342
REMARK  7 active torsions:
REMARK  status: ('A' for Active; 'I' for Inactive)
REMARK    1  A    between atoms: C2_2  and  C3_3 
REMARK    2  A    between atoms: C3_3  and  C4_4 
REMARK    3  A    between atoms: C4_4  and  C5_5 
REMARK    4  A    between atoms: C5_5  and  N1_6 
REMARK    5  A    between atoms: N1_6  and  C6_7 
REMARK    6  A    between atoms: C11_15  and  C12_16 
REMARK    7  A    between atoms: C12_16  and  C13_17 
ROOT
HETATM    1  C6  UNL     1      26.511   2.275  51.762  1.00  0.00     0.155 A 
HETATM    2  N2  UNL     1      27.026   2.990  50.749  1.00  0.00    -0.222 NA
HETATM    3  C7  UNL     1      26.258   3.686  49.897  1.00  0.00     0.238 A 
HETATM    4  N3  UNL     1      24.917   3.713  49.999  1.00  0.00    -0.216 NA
HETATM    5  C8  UNL     1      24.316   3.016  50.996  1.00  0.00     0.196 A 
HETATM    6  C9  UNL     1      25.149   2.301  51.867  1.00  0.00     0.128 A 
HETATM    7  N4  UNL     1      24.726   1.508  52.989  1.00  0.00    -0.383 N 
HETATM    8  C10 UNL     1      23.497   0.739  53.153  1.00  0.00     0.126 C 
HETATM    9  C11 UNL     1      22.571   1.033  51.989  1.00  0.00     0.028 C 
HETATM   10  C14 UNL     1      22.101   2.447  51.974  1.00  0.00     0.183 C 
HETATM   11  O1  UNL     1      22.911   3.125  50.996  1.00  0.00    -0.332 OA
HETATM   12  H10 UNL     1      25.440   1.537  53.741  1.00  0.00     0.159 HD
ENDROOT
BRANCH   1  13
HETATM   13  N1  UNL     1      27.383   1.552  52.619  1.00  0.00    -0.372 N 
HETATM   14  H8  UNL     1      27.526   0.546  52.821  1.00  0.00     0.161 HD
BRANCH  13  15
HETATM   15  C5  UNL     1      28.315   2.320  53.426  1.00  0.00     0.139 C 
BRANCH  15  16
HETATM   16  C4  UNL     1      29.100   1.448  54.327  1.00  0.00     0.086 C 
BRANCH  16  17
HETATM   17  C3  UNL     1      29.462   0.269  53.842  1.00  0.00    -0.170 C 
BRANCH  17  18
HETATM   18  C2  UNL     1      30.020  -0.890  53.521  1.00  0.00     0.062 C 
HETATM   19  C1  UNL     1      29.091  -2.015  53.250  1.00  0.00     0.023 C 
ENDBRANCH  17  18
ENDBRANCH  16  17
ENDBRANCH  15  16
ENDBRANCH  13  15
ENDBRANCH   1  13
BRANCH   9  20
HETATM   20  C12 UNL     1      21.419   0.094  52.035  1.00  0.00     0.019 C 
BRANCH  20  21
HETATM   21  C13 UNL     1      20.193   0.608  52.709  1.00  0.00     0.085 C 
HETATM   22 BR1  UNL     1      18.665   0.014  51.658  1.00  0.00    -0.096 Br
ENDBRANCH  20  21
ENDBRANCH   9  20
TORSDOF 7
ENDMDL
MODEL 6
REMARK VINA RESULT:      -6.0      2.565      4.512
REMARK  7 active torsions:
REMARK  status: ('A' for Active; 'I' for Inactive)
REMARK    1  A    between atoms: C2_2  and  C3_3 
REMARK    2  A    between atoms: C3_3  and  C4_4 
REMARK    3  A    between atoms: C4_4  and  C5_5 
REMARK    4  A    between atoms: C5_5  and  N1_6 
REMARK    5  A    between atoms: N1_6  and  C6_7 
REMARK    6  A    between atoms: C11_15  and  C12_16 
REMARK    7  A    between atoms: C12_16  and  C13_17 
ROOT
HETATM    1  C6  UNL     1      27.002   2.300  52.255  1.00  0.00     0.155 A 
HETATM    2  N2  UNL     1      28.261   2.447  52.698  1.00  0.00    -0.222 NA
HETATM    3  C7  UNL     1      28.872   1.518  53.449  1.00  0.00     0.238 A 
HETATM    4  N3  UNL     1      28.264   0.375  53.812  1.00  0.00    -0.216 NA
HETATM    5  C8  UNL     1      26.989   0.148  53.406  1.00  0.00     0.196 A 
HETATM    6  C9  UNL     1      26.382   1.138  52.622  1.00  0.00     0.128 A 
HETATM    7  N4  UNL     1      25.050   1.098  52.082  1.00  0.00    -0.383 N 
HETATM    8  C10 UNL     1      23.856   0.474  52.640  1.00  0.00     0.126 C 
HETATM    9  C11 UNL     1      24.246  -0.336  53.862  1.00  0.00     0.028 C 
HETATM   10  C14 UNL     1      25.123  -1.492  53.525  1.00  0.00     0.183 C 
HETATM   11  O1  UNL     1      26.464  -1.083  53.850  1.00  0.00    -0.332 OA
HETATM   12  H10 UNL     1      25.014   1.599  51.175  1.00  0.00     0.159 HD
ENDROOT
BRANCH   1  13
HETATM   13  N1  UNL     1      26.412   3.328  51.473  1.00  0.00    -0.372 N 
HETATM   14  H8  UNL     1      25.785   4.124  51.683  1.00  0.00     0.161 HD
BRANCH  13  15
HETATM   15  C5  UNL     1      26.709   3.339  50.051  1.00  0.00     0.139 C 
BRANCH  15  16
HETATM   16  C4  UNL     1      25.733   4.159  49.299  1.00  0.00     0.086 C 
BRANCH  16  17
HETATM   17  C3  UNL     1      24.471   3.756  49.334  1.00  0.00    -0.170 C 
BRANCH  17  18
HETATM   18  C2  UNL     1      23.156   3.592  49.293  1.00  0.00     0.062 C 
HETATM   19  C1  UNL     1      22.656   2.216  49.541  1.00  0.00     0.023 C 
ENDBRANCH  17  18
ENDBRANCH  16  17
ENDBRANCH  15  16
ENDBRANCH  13  15
ENDBRANCH   1  13
BRANCH   9  20
HETATM   20  C12 UNL     1      23.013  -0.792  54.557  1.00  0.00     0.019 C 
BRANCH  20  21
HETATM   21  C13 UNL     1      21.946  -1.350  53.680  1.00  0.00     0.085 C 
HETATM   22 BR1  UNL     1      20.397  -0.180  53.840  1.00  0.00    -0.096 Br
ENDBRANCH  20  21
ENDBRANCH   9  20
TORSDOF 7
ENDMDL
MODEL 7
REMARK VINA RESULT:      -5.9      4.454      7.019
REMARK  7 active torsions:
REMARK  status: ('A' for Active; 'I' for Inactive)
REMARK    1  A    between atoms: C2_2  and  C3_3 
REMARK    2  A    between atoms: C3_3  and  C4_4 
REMARK    3  A    between atoms: C4_4  and  C5_5 
REMARK    4  A    between atoms: C5_5  and  N1_6 
REMARK    5  A    between atoms: N1_6  and  C6_7 
REMARK    6  A    between atoms: C11_15  and  C12_16 
REMARK    7  A    between atoms: C12_16  and  C13_17 
ROOT
HETATM    1  C6  UNL     1      23.959  -0.318  53.733  1.00  0.00     0.155 A 
HETATM    2  N2  UNL     1      23.982  -1.067  54.848  1.00  0.00    -0.222 NA
HETATM    3  C7  UNL     1      22.862  -1.478  55.461  1.00  0.00     0.238 A 
HETATM    4  N3  UNL     1      21.637  -1.168  55.000  1.00  0.00    -0.216 NA
HETATM    5  C8  UNL     1      21.525  -0.414  53.877  1.00  0.00     0.196 A 
HETATM    6  C9  UNL     1      22.716  -0.003  53.263  1.00  0.00     0.128 A 
HETATM    7  N4  UNL     1      22.826   0.789  52.068  1.00  0.00    -0.383 N 
HETATM    8  C10 UNL     1      21.934   1.833  51.577  1.00  0.00     0.126 C 
HETATM    9  C11 UNL     1      20.693   1.872  52.447  1.00  0.00     0.028 C 
HETATM   10  C14 UNL     1      19.876   0.631  52.336  1.00  0.00     0.183 C 
HETATM   11  O1  UNL     1      20.192  -0.158  53.497  1.00  0.00    -0.332 OA
HETATM   12  H10 UNL     1      23.677   0.524  51.537  1.00  0.00     0.159 HD
ENDROOT
BRANCH   1  13
HETATM   13  N1  UNL     1      25.184   0.092  53.142  1.00  0.00    -0.372 N 
HETATM   14  H8  UNL     1      25.527   0.164  52.168  1.00  0.00     0.161 HD
BRANCH  13  15
HETATM   15  C5  UNL     1      26.243   0.529  54.036  1.00  0.00     0.139 C 
BRANCH  15  16
HETATM   16  C4  UNL     1      27.335   1.200  53.296  1.00  0.00     0.086 C 
BRANCH  16  17
HETATM   17  C3  UNL     1      28.556   0.717  53.476  1.00  0.00    -0.170 C 
BRANCH  17  18
HETATM   18  C2  UNL     1      29.657   0.009  53.688  1.00  0.00     0.062 C 
HETATM   19  C1  UNL     1      29.556  -1.453  53.451  1.00  0.00     0.023 C 
ENDBRANCH  17  18
ENDBRANCH  16  17
ENDBRANCH  15  16
ENDBRANCH  13  15
ENDBRANCH   1  13
BRANCH   9  20
HETATM   20  C12 UNL     1      19.886   3.070  52.091  1.00  0.00     0.019 C 
BRANCH  20  21
HETATM   21  C13 UNL     1      18.504   2.796  51.606  1.00  0.00     0.085 C 
HETATM   22 BR1  UNL     1      18.000   4.271  50.438  1.00  0.00    -0.096 Br
ENDBRANCH  20  21
ENDBRANCH   9  20
TORSDOF 7
ENDMDL
MODEL 8
REMARK VINA RESULT:      -5.8      3.171      5.304
REMARK  7 active torsions:
REMARK  status: ('A' for Active; 'I' for Inactive)
REMARK    1  A    between atoms: C2_2  and  C3_3 
REMARK    2  A    between atoms: C3_3  and  C4_4 
REMARK    3  A    between atoms: C4_4  and  C5_5 
REMARK    4  A    between atoms: C5_5  and  N1_6 
REMARK    5  A    between atoms: N1_6  and  C6_7 
REMARK    6  A    between atoms: C11_15  and  C12_16 
REMARK    7  A    between atoms: C12_16  and  C13_17 
ROOT
HETATM    1  C6  UNL     1      26.241   0.509  52.872  1.00  0.00     0.155 A 
HETATM    2  N2  UNL     1      27.265   0.514  53.741  1.00  0.00    -0.222 NA
HETATM    3  C7  UNL     1      27.156   0.016  54.982  1.00  0.00     0.238 A 
HETATM    4  N3  UNL     1      26.012  -0.521  55.442  1.00  0.00    -0.216 NA
HETATM    5  C8  UNL     1      24.928  -0.564  54.627  1.00  0.00     0.196 A 
HETATM    6  C9  UNL     1      25.078  -0.037  53.337  1.00  0.00     0.128 A 
HETATM    7  N4  UNL     1      24.068   0.010  52.315  1.00  0.00    -0.383 N 
HETATM    8  C10 UNL     1      22.624   0.153  52.463  1.00  0.00     0.126 C 
HETATM    9  C11 UNL     1      22.266   0.068  53.934  1.00  0.00     0.028 C 
HETATM   10  C14 UNL     1      22.547  -1.276  54.514  1.00  0.00     0.183 C 
HETATM   11  O1  UNL     1      23.793  -1.150  55.224  1.00  0.00    -0.332 OA
HETATM   12  H10 UNL     1      24.500  -0.076  51.377  1.00  0.00     0.159 HD
ENDROOT
BRANCH   1  13
HETATM   13  N1  UNL     1      26.423   1.063  51.577  1.00  0.00    -0.372 N 
HETATM   14  H8  UNL     1      26.299   0.702  50.614  1.00  0.00     0.161 HD
BRANCH  13  15
HETATM   15  C5  UNL     1      26.878   2.440  51.497  1.00  0.00     0.139 C 
BRANCH  15  16
HETATM   16  C4  UNL     1      26.108   3.209  50.494  1.00  0.00     0.086 C 
BRANCH  16  17
HETATM   17  C3  UNL     1      24.794   3.258  50.667  1.00  0.00    -0.170 C 
BRANCH  17  18
HETATM   18  C2  UNL     1      23.537   3.472  51.028  1.00  0.00     0.062 C 
HETATM   19  C1  UNL     1      23.306   3.769  52.464  1.00  0.00     0.023 C 
ENDBRANCH  17  18
ENDBRANCH  16  17
ENDBRANCH  15  16
ENDBRANCH  13  15
ENDBRANCH   1  13
BRANCH   9  20
HETATM   20  C12 UNL     1      20.835   0.430  54.109  1.00  0.00     0.019 C 
BRANCH  20  21
HETATM   21  C13 UNL     1      19.944   0.117  52.957  1.00  0.00     0.085 C 
HETATM   22 BR1  UNL     1      19.505   1.805  52.090  1.00  0.00    -0.096 Br
ENDBRANCH  20  21
ENDBRANCH   9  20
TORSDOF 7
ENDMDL
MODEL 9
REMARK VINA RESULT:      -5.8      3.239      6.289
REMARK  7 active torsions:
REMARK  status: ('A' for Active; 'I' for Inactive)
REMARK    1  A    between atoms: C2_2  and  C3_3 
REMARK    2  A    between atoms: C3_3  and  C4_4 
REMARK    3  A    between atoms: C4_4  and  C5_5 
REMARK    4  A    between atoms: C5_5  and  N1_6 
REMARK    5  A    between atoms: N1_6  and  C6_7 
REMARK    6  A    between atoms: C11_15  and  C12_16 
REMARK    7  A    between atoms: C12_16  and  C13_17 
ROOT
HETATM    1  C6  UNL     1      26.251   2.025  52.398  1.00  0.00     0.155 A 
HETATM    2  N2  UNL     1      25.564   1.385  53.358  1.00  0.00    -0.222 NA
HETATM    3  C7  UNL     1      24.246   1.153  53.266  1.00  0.00     0.238 A 
HETATM    4  N3  UNL     1      23.521   1.547  52.204  1.00  0.00    -0.216 NA
HETATM    5  C8  UNL     1      24.138   2.202  51.188  1.00  0.00     0.196 A 
HETATM    6  C9  UNL     1      25.515   2.426  51.318  1.00  0.00     0.128 A 
HETATM    7  N4  UNL     1      26.362   3.087  50.362  1.00  0.00    -0.383 N 
HETATM    8  C10 UNL     1      26.032   4.170  49.443  1.00  0.00     0.126 C 
HETATM    9  C11 UNL     1      24.537   4.421  49.492  1.00  0.00     0.028 C 
HETATM   10  C14 UNL     1      23.746   3.268  48.976  1.00  0.00     0.183 C 
HETATM   11  O1  UNL     1      23.272   2.561  50.136  1.00  0.00    -0.332 OA
HETATM   12  H10 UNL     1      27.318   2.685  50.389  1.00  0.00     0.159 HD
ENDROOT
BRANCH   1  13
HETATM   13  N1  UNL     1      27.643   2.247  52.565  1.00  0.00    -0.372 N 
HETATM   14  H8  UNL     1      28.439   2.362  51.913  1.00  0.00     0.161 HD
BRANCH  13  15
HETATM   15  C5  UNL     1      28.144   2.354  53.925  1.00  0.00     0.139 C 
BRANCH  15  16
HETATM   16  C4  UNL     1      29.272   1.426  54.162  1.00  0.00     0.086 C 
BRANCH  16  17
HETATM   17  C3  UNL     1      29.147   0.203  53.667  1.00  0.00    -0.170 C 
BRANCH  17  18
HETATM   18  C2  UNL     1      28.993  -1.090  53.417  1.00  0.00     0.062 C 
HETATM   19  C1  UNL     1      27.668  -1.507  52.894  1.00  0.00     0.023 C 
ENDBRANCH  17  18
ENDBRANCH  16  17
ENDBRANCH  15  16
ENDBRANCH  13  15
ENDBRANCH   1  13
BRANCH   9  20
HETATM   20  C12 UNL     1      24.226   5.659  48.728  1.00  0.00     0.019 C 
BRANCH  20  21
HETATM   21  C13 UNL     1      25.341   6.639  48.605  1.00  0.00     0.085 C 
HETATM   22 BR1  UNL     1      25.201   7.865  50.112  1.00  0.00    -0.096 Br
ENDBRANCH  20  21
ENDBRANCH   9  20
TORSDOF 7
ENDMDL
