MODEL 1
REMARK VINA RESULT:      -9.2      0.000      0.000
REMARK  7 active torsions:
REMARK  status: ('A' for Active; 'I' for Inactive)
REMARK    1  A    between atoms: C1_2  and  N1_3 
REMARK    2  A    between atoms: N1_3  and  C2_4 
REMARK    3  A    between atoms: C3_5  and  C4_6 
REMARK    4  A    between atoms: C4_6  and  C5_7 
REMARK    5  A    between atoms: C4_6  and  N4_24 
REMARK       I    between atoms: C5_7  and  N2_9 
REMARK    6  A    between atoms: N2_9  and  C6_10 
REMARK    7  A    between atoms: C9_13  and  N3_14 
ROOT
HETATM    1  C5  UNL     1      25.680   1.996  51.830  1.00  0.00     0.248 C 
HETATM    2  O2  UNL     1      26.731   2.587  52.268  1.00  0.00    -0.271 OA
HETATM    3  N2  UNL     1      25.080   2.559  50.693  1.00  0.00    -0.325 N 
HETATM    4  H6  UNL     1      24.242   1.993  50.436  1.00  0.00     0.169 HD
ENDROOT
BRANCH   1   5
HETATM    5  C4  UNL     1      25.450   0.850  52.739  1.00  0.00     0.197 C 
BRANCH   5   6
HETATM    6  C3  UNL     1      26.411  -0.234  52.301  1.00  0.00     0.024 C 
HETATM    7  C2  UNL     1      27.521  -0.548  52.942  1.00  0.00     0.089 C 
BRANCH   7   8
HETATM    8  N1  UNL     1      27.804   0.192  54.107  1.00  0.00    -0.344 N 
HETATM    9  H2  UNL     1      27.175   0.332  54.934  1.00  0.00     0.167 HD
BRANCH   8  10
HETATM   10  C1  UNL     1      29.030   0.879  54.335  1.00  0.00     0.352 C 
HETATM   11  O1  UNL     1      29.343   1.977  54.877  1.00  0.00    -0.283 OA
ENDBRANCH   8  10
ENDBRANCH   7   8
ENDBRANCH   5   6
BRANCH   5  12
HETATM   12  N4  UNL     1      24.167   0.302  52.786  1.00  0.00    -0.394 N 
HETATM   13  C16 UNL     1      23.975  -0.845  53.666  1.00  0.00     0.145 C 
HETATM   14  C17 UNL     1      22.824  -0.921  54.525  1.00  0.00    -0.008 C 
HETATM   15  C18 UNL     1      21.559  -0.597  54.877  1.00  0.00    -0.003 C 
HETATM   16  C19 UNL     1      20.602   0.307  54.182  1.00  0.00    -0.004 C 
HETATM   17  C20 UNL     1      20.792   1.237  53.204  1.00  0.00    -0.025 C 
HETATM   18  C21 UNL     1      21.976   1.793  52.382  1.00  0.00     0.046 C 
HETATM   19  C22 UNL     1      23.007   0.885  52.762  1.00  0.00     0.122 C 
ENDBRANCH   5  12
ENDBRANCH   1   5
BRANCH   3  20
HETATM   20  C6  UNL     1      25.665   3.712  50.124  1.00  0.00     0.034 A 
HETATM   21  C7  UNL     1      25.117   4.953  50.332  1.00  0.00     0.032 A 
HETATM   22  C8  UNL     1      25.705   6.067  49.766  1.00  0.00     0.031 A 
HETATM   23  C9  UNL     1      26.837   6.025  48.984  1.00  0.00     0.030 A 
HETATM   24  C14 UNL     1      27.346   4.759  48.807  1.00  0.00     0.031 A 
HETATM   25  C15 UNL     1      26.806   3.621  49.343  1.00  0.00     0.032 A 
BRANCH  23  26
HETATM   26  N3  UNL     1      27.408   7.201  48.427  1.00  0.00    -0.379 N 
HETATM   27  C10 UNL     1      28.528   7.111  47.514  1.00  0.00     0.138 C 
HETATM   28  C11 UNL     1      29.832   7.444  48.252  1.00  0.00     0.160 C 
HETATM   29  S1  UNL     1      29.645   9.163  48.723  1.00  0.00     0.147 S 
HETATM   30  O3  UNL     1      29.793   9.977  47.459  1.00  0.00    -0.228 OA
HETATM   31  O4  UNL     1      30.668   9.554  49.738  1.00  0.00    -0.228 OA
HETATM   32  C12 UNL     1      28.031   9.377  49.372  1.00  0.00     0.160 C 
HETATM   33  C13 UNL     1      26.972   8.534  48.696  1.00  0.00     0.138 C 
ENDBRANCH  23  26
ENDBRANCH   3  20
TORSDOF 7
ENDMDL
MODEL 2
REMARK VINA RESULT:      -9.0      1.000      1.506
REMARK  7 active torsions:
REMARK  status: ('A' for Active; 'I' for Inactive)
REMARK    1  A    between atoms: C1_2  and  N1_3 
REMARK    2  A    between atoms: N1_3  and  C2_4 
REMARK    3  A    between atoms: C3_5  and  C4_6 
REMARK    4  A    between atoms: C4_6  and  C5_7 
REMARK    5  A    between atoms: C4_6  and  N4_24 
REMARK       I    between atoms: C5_7  and  N2_9 
REMARK    6  A    between atoms: N2_9  and  C6_10 
REMARK    7  A    between atoms: C9_13  and  N3_14 
ROOT
HETATM    1  C5  UNL     1      25.669   2.183  51.722  1.00  0.00     0.248 C 
HETATM    2  O2  UNL     1      26.712   2.795  52.153  1.00  0.00    -0.271 OA
HETATM    3  N2  UNL     1      25.065   2.722  50.575  1.00  0.00    -0.325 N 
HETATM    4  H6  UNL     1      24.234   2.142  50.325  1.00  0.00     0.169 HD
ENDROOT
BRANCH   1   5
HETATM    5  C4  UNL     1      25.451   1.049  52.647  1.00  0.00     0.197 C 
BRANCH   5   6
HETATM    6  C3  UNL     1      26.442  -0.022  52.241  1.00  0.00     0.024 C 
HETATM    7  C2  UNL     1      27.561  -0.284  52.888  1.00  0.00     0.089 C 
BRANCH   7   8
HETATM    8  N1  UNL     1      27.825   0.499  54.030  1.00  0.00    -0.344 N 
HETATM    9  H2  UNL     1      27.173   0.688  54.829  1.00  0.00     0.167 HD
BRANCH   8  10
HETATM   10  C1  UNL     1      29.059   1.168  54.268  1.00  0.00     0.352 C 
HETATM   11  O1  UNL     1      29.386   2.247  54.840  1.00  0.00    -0.283 OA
ENDBRANCH   8  10
ENDBRANCH   7   8
ENDBRANCH   5   6
BRANCH   5  12
HETATM   12  N4  UNL     1      24.180   0.473  52.686  1.00  0.00    -0.394 N 
HETATM   13  C16 UNL     1      24.024  -0.719  53.512  1.00  0.00     0.145 C 
HETATM   14  C17 UNL     1      22.888  -0.859  54.383  1.00  0.00    -0.008 C 
HETATM   15  C18 UNL     1      21.623  -0.578  54.769  1.00  0.00    -0.003 C 
HETATM   16  C19 UNL     1      20.638   0.339  54.132  1.00  0.00    -0.004 C 
HETATM   17  C20 UNL     1      20.795   1.319  53.198  1.00  0.00    -0.025 C 
HETATM   18  C21 UNL     1      21.955   1.938  52.387  1.00  0.00     0.046 C 
HETATM   19  C22 UNL     1      23.008   1.033  52.707  1.00  0.00     0.122 C 
ENDBRANCH   5  12
ENDBRANCH   1   5
BRANCH   3  20
HETATM   20  C6  UNL     1      25.636   3.874  49.990  1.00  0.00     0.034 A 
HETATM   21  C7  UNL     1      26.794   3.789  49.257  1.00  0.00     0.032 A 
HETATM   22  C8  UNL     1      27.336   4.927  48.695  1.00  0.00     0.031 A 
HETATM   23  C9  UNL     1      26.784   6.183  48.818  1.00  0.00     0.030 A 
HETATM   24  C14 UNL     1      25.627   6.213  49.562  1.00  0.00     0.031 A 
HETATM   25  C15 UNL     1      25.046   5.118  50.142  1.00  0.00     0.032 A 
BRANCH  23  26
HETATM   26  N3  UNL     1      27.377   7.326  48.217  1.00  0.00    -0.379 N 
HETATM   27  C10 UNL     1      28.550   7.939  48.805  1.00  0.00     0.138 C 
HETATM   28  C11 UNL     1      28.144   9.195  49.588  1.00  0.00     0.160 C 
HETATM   29  S1  UNL     1      27.512  10.310  48.334  1.00  0.00     0.147 S 
HETATM   30  O3  UNL     1      28.707  10.808  47.556  1.00  0.00    -0.228 OA
HETATM   31  O4  UNL     1      26.764  11.444  48.956  1.00  0.00    -0.228 OA
HETATM   32  C12 UNL     1      26.459   9.395  47.273  1.00  0.00     0.160 C 
HETATM   33  C13 UNL     1      26.906   7.970  47.033  1.00  0.00     0.138 C 
ENDBRANCH  23  26
ENDBRANCH   3  20
TORSDOF 7
ENDMDL
MODEL 3
REMARK VINA RESULT:      -8.1      5.025      8.122
REMARK  7 active torsions:
REMARK  status: ('A' for Active; 'I' for Inactive)
REMARK    1  A    between atoms: C1_2  and  N1_3 
REMARK    2  A    between atoms: N1_3  and  C2_4 
REMARK    3  A    between atoms: C3_5  and  C4_6 
REMARK    4  A    between atoms: C4_6  and  C5_7 
REMARK    5  A    between atoms: C4_6  and  N4_24 
REMARK       I    between atoms: C5_7  and  N2_9 
REMARK    6  A    between atoms: N2_9  and  C6_10 
REMARK    7  A    between atoms: C9_13  and  N3_14 
ROOT
HETATM    1  C5  UNL     1      19.822   0.549  51.902  1.00  0.00     0.248 C 
HETATM    2  O2  UNL     1      20.473   0.260  50.834  1.00  0.00    -0.271 OA
HETATM    3  N2  UNL     1      20.592   0.791  53.051  1.00  0.00    -0.325 N 
HETATM    4  H6  UNL     1      19.953   1.013  53.846  1.00  0.00     0.169 HD
ENDROOT
BRANCH   1   5
HETATM    5  C4  UNL     1      18.391   0.521  51.525  1.00  0.00     0.197 C 
BRANCH   5   6
HETATM    6  C3  UNL     1      17.908   1.953  51.603  1.00  0.00     0.024 C 
HETATM    7  C2  UNL     1      17.920   2.800  50.591  1.00  0.00     0.089 C 
BRANCH   7   8
HETATM    8  N1  UNL     1      18.421   2.310  49.369  1.00  0.00    -0.344 N 
HETATM    9  H2  UNL     1      18.271   1.354  48.964  1.00  0.00     0.167 HD
BRANCH   8  10
HETATM   10  C1  UNL     1      19.230   3.070  48.478  1.00  0.00     0.352 C 
HETATM   11  O1  UNL     1      19.944   2.792  47.473  1.00  0.00    -0.283 OA
ENDBRANCH   8  10
ENDBRANCH   7   8
ENDBRANCH   5   6
BRANCH   5  12
HETATM   12  N4  UNL     1      17.531  -0.271  52.287  1.00  0.00    -0.394 N 
HETATM   13  C16 UNL     1      16.143  -0.346  51.844  1.00  0.00     0.145 C 
HETATM   14  C17 UNL     1      15.459  -1.611  51.802  1.00  0.00    -0.008 C 
HETATM   15  C18 UNL     1      15.278  -2.897  52.179  1.00  0.00    -0.003 C 
HETATM   16  C19 UNL     1      16.067  -3.701  53.152  1.00  0.00    -0.004 C 
HETATM   17  C20 UNL     1      17.294  -3.491  53.706  1.00  0.00    -0.025 C 
HETATM   18  C21 UNL     1      18.405  -2.420  53.630  1.00  0.00     0.046 C 
HETATM   19  C22 UNL     1      17.742  -1.410  52.874  1.00  0.00     0.122 C 
ENDBRANCH   5  12
ENDBRANCH   1   5
BRANCH   3  20
HETATM   20  C6  UNL     1      21.998   0.702  52.951  1.00  0.00     0.034 A 
HETATM   21  C7  UNL     1      22.733   1.743  52.439  1.00  0.00     0.032 A 
HETATM   22  C8  UNL     1      24.106   1.634  52.350  1.00  0.00     0.031 A 
HETATM   23  C9  UNL     1      24.818   0.525  52.749  1.00  0.00     0.030 A 
HETATM   24  C14 UNL     1      24.035  -0.488  53.253  1.00  0.00     0.031 A 
HETATM   25  C15 UNL     1      22.671  -0.435  53.365  1.00  0.00     0.032 A 
BRANCH  23  26
HETATM   26  N3  UNL     1      26.233   0.463  52.641  1.00  0.00    -0.379 N 
HETATM   27  C10 UNL     1      26.967  -0.633  53.239  1.00  0.00     0.138 C 
HETATM   28  C11 UNL     1      27.599  -0.178  54.561  1.00  0.00     0.160 C 
HETATM   29  S1  UNL     1      28.785   1.074  54.074  1.00  0.00     0.147 S 
HETATM   30  O3  UNL     1      29.936   0.349  53.418  1.00  0.00    -0.228 OA
HETATM   31  O4  UNL     1      29.248   1.861  55.256  1.00  0.00    -0.228 OA
HETATM   32  C12 UNL     1      28.014   2.129  52.905  1.00  0.00     0.160 C 
HETATM   33  C13 UNL     1      27.051   1.425  51.974  1.00  0.00     0.138 C 
ENDBRANCH  23  26
ENDBRANCH   3  20
TORSDOF 7
ENDMDL
MODEL 4
REMARK VINA RESULT:      -8.0      1.131      1.989
REMARK  7 active torsions:
REMARK  status: ('A' for Active; 'I' for Inactive)
REMARK    1  A    between atoms: C1_2  and  N1_3 
REMARK    2  A    between atoms: N1_3  and  C2_4 
REMARK    3  A    between atoms: C3_5  and  C4_6 
REMARK    4  A    between atoms: C4_6  and  C5_7 
REMARK    5  A    between atoms: C4_6  and  N4_24 
REMARK       I    between atoms: C5_7  and  N2_9 
REMARK    6  A    between atoms: N2_9  and  C6_10 
REMARK    7  A    between atoms: C9_13  and  N3_14 
ROOT
HETATM    1  C5  UNL     1      24.573   2.390  52.020  1.00  0.00     0.248 C 
HETATM    2  O2  UNL     1      25.125   3.333  52.693  1.00  0.00    -0.271 OA
HETATM    3  N2  UNL     1      24.666   2.489  50.623  1.00  0.00    -0.325 N 
HETATM    4  H6  UNL     1      24.183   1.670  50.192  1.00  0.00     0.169 HD
ENDROOT
BRANCH   1   5
HETATM    5  C4  UNL     1      23.991   1.465  53.019  1.00  0.00     0.197 C 
BRANCH   5   6
HETATM    6  C3  UNL     1      24.494   0.084  52.657  1.00  0.00     0.024 C 
HETATM    7  C2  UNL     1      25.497  -0.525  53.260  1.00  0.00     0.089 C 
BRANCH   7   8
HETATM    8  N1  UNL     1      26.122   0.181  54.308  1.00  0.00    -0.344 N 
HETATM    9  H2  UNL     1      25.658   0.807  55.010  1.00  0.00     0.167 HD
BRANCH   8  10
HETATM   10  C1  UNL     1      27.520   0.143  54.569  1.00  0.00     0.352 C 
HETATM   11  O1  UNL     1      28.352   0.957  55.064  1.00  0.00    -0.283 OA
ENDBRANCH   8  10
ENDBRANCH   7   8
ENDBRANCH   5   6
BRANCH   5  12
HETATM   12  N4  UNL     1      22.600   1.408  53.123  1.00  0.00    -0.394 N 
HETATM   13  C16 UNL     1      21.836   1.965  52.013  1.00  0.00     0.145 C 
HETATM   14  C17 UNL     1      20.704   1.255  51.478  1.00  0.00    -0.008 C 
HETATM   15  C18 UNL     1      19.696   0.357  51.559  1.00  0.00    -0.003 C 
HETATM   16  C19 UNL     1      19.315  -0.512  52.705  1.00  0.00    -0.004 C 
HETATM   17  C20 UNL     1      19.989  -0.851  53.841  1.00  0.00    -0.025 C 
HETATM   18  C21 UNL     1      21.363  -0.546  54.478  1.00  0.00     0.046 C 
HETATM   19  C22 UNL     1      21.835   0.475  53.603  1.00  0.00     0.122 C 
ENDBRANCH   5  12
ENDBRANCH   1   5
BRANCH   3  20
HETATM   20  C6  UNL     1      25.346   3.597  50.070  1.00  0.00     0.034 A 
HETATM   21  C7  UNL     1      26.596   3.452  49.522  1.00  0.00     0.032 A 
HETATM   22  C8  UNL     1      27.243   4.548  48.988  1.00  0.00     0.031 A 
HETATM   23  C9  UNL     1      26.710   5.818  48.961  1.00  0.00     0.030 A 
HETATM   24  C14 UNL     1      25.457   5.909  49.522  1.00  0.00     0.031 A 
HETATM   25  C15 UNL     1      24.769   4.857  50.066  1.00  0.00     0.032 A 
BRANCH  23  26
HETATM   26  N3  UNL     1      27.413   6.915  48.395  1.00  0.00    -0.379 N 
HETATM   27  C10 UNL     1      28.558   6.690  47.537  1.00  0.00     0.138 C 
HETATM   28  C11 UNL     1      29.854   6.924  48.324  1.00  0.00     0.160 C 
HETATM   29  S1  UNL     1      29.812   8.669  48.733  1.00  0.00     0.147 S 
HETATM   30  O3  UNL     1      30.091   9.420  47.453  1.00  0.00    -0.228 OA
HETATM   31  O4  UNL     1      30.824   8.996  49.781  1.00  0.00    -0.228 OA
HETATM   32  C12 UNL     1      28.200   9.055  49.302  1.00  0.00     0.160 C 
HETATM   33  C13 UNL     1      27.095   8.292  48.604  1.00  0.00     0.138 C 
ENDBRANCH  23  26
ENDBRANCH   3  20
TORSDOF 7
ENDMDL
MODEL 5
REMARK VINA RESULT:      -8.0      1.558      2.233
REMARK  7 active torsions:
REMARK  status: ('A' for Active; 'I' for Inactive)
REMARK    1  A    between atoms: C1_2  and  N1_3 
REMARK    2  A    between atoms: N1_3  and  C2_4 
REMARK    3  A    between atoms: C3_5  and  C4_6 
REMARK    4  A    between atoms: C4_6  and  C5_7 
REMARK    5  A    between atoms: C4_6  and  N4_24 
REMARK       I    between atoms: C5_7  and  N2_9 
REMARK    6  A    between atoms: N2_9  and  C6_10 
REMARK    7  A    between atoms: C9_13  and  N3_14 
ROOT
HETATM    1  C5  UNL     1      24.449   2.486  51.887  1.00  0.00     0.248 C 
HETATM    2  O2  UNL     1      24.778   3.566  52.497  1.00  0.00    -0.271 OA
HETATM    3  N2  UNL     1      24.678   2.461  50.502  1.00  0.00    -0.325 N 
HETATM    4  H6  UNL     1      24.372   1.538  50.124  1.00  0.00     0.169 HD
ENDROOT
BRANCH   1   5
HETATM    5  C4  UNL     1      23.905   1.583  52.926  1.00  0.00     0.197 C 
BRANCH   5   6
HETATM    6  C3  UNL     1      24.433   0.202  52.602  1.00  0.00     0.024 C 
HETATM    7  C2  UNL     1      25.391  -0.406  53.277  1.00  0.00     0.089 C 
BRANCH   7   8
HETATM    8  N1  UNL     1      25.938   0.302  54.366  1.00  0.00    -0.344 N 
HETATM    9  H2  UNL     1      25.416   0.881  55.068  1.00  0.00     0.167 HD
BRANCH   8  10
HETATM   10  C1  UNL     1      27.326   0.331  54.679  1.00  0.00     0.352 C 
HETATM   11  O1  UNL     1      28.166   1.250  54.900  1.00  0.00    -0.283 OA
ENDBRANCH   8  10
ENDBRANCH   7   8
ENDBRANCH   5   6
BRANCH   5  12
HETATM   12  N4  UNL     1      22.518   1.498  53.055  1.00  0.00    -0.394 N 
HETATM   13  C16 UNL     1      21.722   2.033  51.957  1.00  0.00     0.145 C 
HETATM   14  C17 UNL     1      20.596   1.297  51.446  1.00  0.00    -0.008 C 
HETATM   15  C18 UNL     1      19.608   0.379  51.550  1.00  0.00    -0.003 C 
HETATM   16  C19 UNL     1      19.265  -0.492  52.707  1.00  0.00    -0.004 C 
HETATM   17  C20 UNL     1      19.967  -0.810  53.832  1.00  0.00    -0.025 C 
HETATM   18  C21 UNL     1      21.345  -0.474  54.443  1.00  0.00     0.046 C 
HETATM   19  C22 UNL     1      21.780   0.552  53.554  1.00  0.00     0.122 C 
ENDBRANCH   5  12
ENDBRANCH   1   5
BRANCH   3  20
HETATM   20  C6  UNL     1      25.242   3.603  49.892  1.00  0.00     0.034 A 
HETATM   21  C7  UNL     1      24.480   4.718  49.648  1.00  0.00     0.032 A 
HETATM   22  C8  UNL     1      25.051   5.824  49.050  1.00  0.00     0.031 A 
HETATM   23  C9  UNL     1      26.372   5.896  48.669  1.00  0.00     0.030 A 
HETATM   24  C14 UNL     1      27.092   4.753  48.936  1.00  0.00     0.031 A 
HETATM   25  C15 UNL     1      26.578   3.629  49.525  1.00  0.00     0.032 A 
BRANCH  23  26
HETATM   26  N3  UNL     1      26.916   7.059  48.061  1.00  0.00    -0.379 N 
HETATM   27  C10 UNL     1      28.212   7.562  48.467  1.00  0.00     0.138 C 
HETATM   28  C11 UNL     1      28.034   8.759  49.410  1.00  0.00     0.160 C 
HETATM   29  S1  UNL     1      27.256  10.011  48.389  1.00  0.00     0.147 S 
HETATM   30  O3  UNL     1      28.318  10.520  47.444  1.00  0.00    -0.228 OA
HETATM   31  O4  UNL     1      26.706  11.118  49.228  1.00  0.00    -0.228 OA
HETATM   32  C12 UNL     1      25.973   9.245  47.473  1.00  0.00     0.160 C 
HETATM   33  C13 UNL     1      26.279   7.828  47.041  1.00  0.00     0.138 C 
ENDBRANCH  23  26
ENDBRANCH   3  20
TORSDOF 7
ENDMDL
MODEL 6
REMARK VINA RESULT:      -7.7      5.230      9.475
REMARK  7 active torsions:
REMARK  status: ('A' for Active; 'I' for Inactive)
REMARK    1  A    between atoms: C1_2  and  N1_3 
REMARK    2  A    between atoms: N1_3  and  C2_4 
REMARK    3  A    between atoms: C3_5  and  C4_6 
REMARK    4  A    between atoms: C4_6  and  C5_7 
REMARK    5  A    between atoms: C4_6  and  N4_24 
REMARK       I    between atoms: C5_7  and  N2_9 
REMARK    6  A    between atoms: N2_9  and  C6_10 
REMARK    7  A    between atoms: C9_13  and  N3_14 
ROOT
HETATM    1  C5  UNL     1      24.027   2.111  52.090  1.00  0.00     0.248 C 
HETATM    2  O2  UNL     1      23.639   2.451  50.915  1.00  0.00    -0.271 OA
HETATM    3  N2  UNL     1      23.032   1.638  52.960  1.00  0.00    -0.325 N 
HETATM    4  H6  UNL     1      23.469   1.396  53.876  1.00  0.00     0.169 HD
ENDROOT
BRANCH   1   5
HETATM    5  C4  UNL     1      25.487   2.354  52.121  1.00  0.00     0.197 C 
BRANCH   5   6
HETATM    6  C3  UNL     1      25.981   2.129  50.707  1.00  0.00     0.024 C 
HETATM    7  C2  UNL     1      26.390   3.090  49.900  1.00  0.00     0.089 C 
BRANCH   7   8
HETATM    8  N1  UNL     1      26.354   4.401  50.416  1.00  0.00    -0.344 N 
HETATM    9  H2  UNL     1      26.951   4.792  51.185  1.00  0.00     0.167 HD
BRANCH   8  10
HETATM   10  C1  UNL     1      25.473   5.416  49.949  1.00  0.00     0.352 C 
HETATM   11  O1  UNL     1      24.935   6.433  50.473  1.00  0.00    -0.283 OA
ENDBRANCH   8  10
ENDBRANCH   7   8
ENDBRANCH   5   6
BRANCH   5  12
HETATM   12  N4  UNL     1      26.261   1.572  52.980  1.00  0.00    -0.394 N 
HETATM   13  C16 UNL     1      26.051   0.130  52.924  1.00  0.00     0.145 C 
HETATM   14  C17 UNL     1      27.174  -0.770  52.909  1.00  0.00    -0.008 C 
HETATM   15  C18 UNL     1      28.464  -1.093  53.154  1.00  0.00    -0.003 C 
HETATM   16  C19 UNL     1      29.532  -0.256  53.767  1.00  0.00    -0.004 C 
HETATM   17  C20 UNL     1      29.605   1.087  53.991  1.00  0.00    -0.025 C 
HETATM   18  C21 UNL     1      28.715   2.327  53.753  1.00  0.00     0.046 C 
HETATM   19  C22 UNL     1      27.503   1.701  53.338  1.00  0.00     0.122 C 
ENDBRANCH   5  12
ENDBRANCH   1   5
BRANCH   3  20
HETATM   20  C6  UNL     1      21.702   1.572  52.489  1.00  0.00     0.034 A 
HETATM   21  C7  UNL     1      21.168   0.384  52.057  1.00  0.00     0.032 A 
HETATM   22  C8  UNL     1      19.866   0.342  51.600  1.00  0.00     0.031 A 
HETATM   23  C9  UNL     1      19.034   1.438  51.544  1.00  0.00     0.030 A 
HETATM   24  C14 UNL     1      19.618   2.603  51.989  1.00  0.00     0.031 A 
HETATM   25  C15 UNL     1      20.902   2.703  52.451  1.00  0.00     0.032 A 
BRANCH  23  26
HETATM   26  N3  UNL     1      17.699   1.344  51.070  1.00  0.00    -0.379 N 
HETATM   27  C10 UNL     1      16.936   2.541  50.783  1.00  0.00     0.138 C 
HETATM   28  C11 UNL     1      15.965   2.829  51.936  1.00  0.00     0.160 C 
HETATM   29  S1  UNL     1      14.832   1.439  51.915  1.00  0.00     0.147 S 
HETATM   30  O3  UNL     1      13.941   1.625  50.711  1.00  0.00    -0.228 OA
HETATM   31  O4  UNL     1      14.031   1.384  53.175  1.00  0.00    -0.228 OA
HETATM   32  C12 UNL     1      15.775  -0.027  51.728  1.00  0.00     0.160 C 
HETATM   33  C13 UNL     1      16.991   0.125  50.842  1.00  0.00     0.138 C 
ENDBRANCH  23  26
ENDBRANCH   3  20
TORSDOF 7
ENDMDL
MODEL 7
REMARK VINA RESULT:      -7.7      2.504      4.317
REMARK  7 active torsions:
REMARK  status: ('A' for Active; 'I' for Inactive)
REMARK    1  A    between atoms: C1_2  and  N1_3 
REMARK    2  A    between atoms: N1_3  and  C2_4 
REMARK    3  A    between atoms: C3_5  and  C4_6 
REMARK    4  A    between atoms: C4_6  and  C5_7 
REMARK    5  A    between atoms: C4_6  and  N4_24 
REMARK       I    between atoms: C5_7  and  N2_9 
REMARK    6  A    between atoms: N2_9  and  C6_10 
REMARK    7  A    between atoms: C9_13  and  N3_14 
ROOT
HETATM    1  C5  UNL     1      24.639   4.181  50.124  1.00  0.00     0.248 C 
HETATM    2  O2  UNL     1      24.911   5.165  50.902  1.00  0.00    -0.271 OA
HETATM    3  N2  UNL     1      25.421   4.075  48.963  1.00  0.00    -0.325 N 
HETATM    4  H6  UNL     1      25.106   3.243  48.417  1.00  0.00     0.169 HD
ENDROOT
BRANCH   1   5
HETATM    5  C4  UNL     1      23.521   3.453  50.765  1.00  0.00     0.197 C 
BRANCH   5   6
HETATM    6  C3  UNL     1      23.188   4.221  52.026  1.00  0.00     0.024 C 
HETATM    7  C2  UNL     1      22.001   4.729  52.297  1.00  0.00     0.089 C 
BRANCH   7   8
HETATM    8  N1  UNL     1      20.996   4.528  51.329  1.00  0.00    -0.344 N 
HETATM    9  H2  UNL     1      21.028   4.808  50.319  1.00  0.00     0.167 HD
BRANCH   8  10
HETATM   10  C1  UNL     1      19.751   3.892  51.595  1.00  0.00     0.352 C 
HETATM   11  O1  UNL     1      19.362   3.012  52.415  1.00  0.00    -0.283 OA
ENDBRANCH   8  10
ENDBRANCH   7   8
ENDBRANCH   5   6
BRANCH   5  12
HETATM   12  N4  UNL     1      23.725   2.117  51.110  1.00  0.00    -0.394 N 
HETATM   13  C16 UNL     1      24.982   1.795  51.777  1.00  0.00     0.145 C 
HETATM   14  C17 UNL     1      24.998   0.929  52.925  1.00  0.00    -0.008 C 
HETATM   15  C18 UNL     1      24.477  -0.041  53.712  1.00  0.00    -0.003 C 
HETATM   16  C19 UNL     1      23.211  -0.803  53.534  1.00  0.00    -0.004 C 
HETATM   17  C20 UNL     1      22.129  -0.576  52.736  1.00  0.00    -0.025 C 
HETATM   18  C21 UNL     1      21.684   0.482  51.701  1.00  0.00     0.046 C 
HETATM   19  C22 UNL     1      22.888   1.232  51.562  1.00  0.00     0.122 C 
ENDBRANCH   5  12
ENDBRANCH   1   5
BRANCH   3  20
HETATM   20  C6  UNL     1      26.429   5.039  48.739  1.00  0.00     0.034 A 
HETATM   21  C7  UNL     1      27.749   4.671  48.668  1.00  0.00     0.032 A 
HETATM   22  C8  UNL     1      28.718   5.629  48.449  1.00  0.00     0.031 A 
HETATM   23  C9  UNL     1      28.452   6.971  48.290  1.00  0.00     0.030 A 
HETATM   24  C14 UNL     1      27.114   7.286  48.370  1.00  0.00     0.031 A 
HETATM   25  C15 UNL     1      26.112   6.379  48.585  1.00  0.00     0.032 A 
BRANCH  23  26
HETATM   26  N3  UNL     1      29.484   7.920  48.062  1.00  0.00    -0.379 N 
HETATM   27  C10 UNL     1      30.225   7.913  46.819  1.00  0.00     0.138 C 
HETATM   28  C11 UNL     1      31.589   7.242  47.028  1.00  0.00     0.160 C 
HETATM   29  S1  UNL     1      32.444   8.329  48.170  1.00  0.00     0.147 S 
HETATM   30  O3  UNL     1      32.827   9.563  47.388  1.00  0.00    -0.228 OA
HETATM   31  O4  UNL     1      33.650   7.659  48.744  1.00  0.00    -0.228 OA
HETATM   32  C12 UNL     1      31.324   8.766  49.446  1.00  0.00     0.160 C 
HETATM   33  C13 UNL     1      29.892   8.929  48.987  1.00  0.00     0.138 C 
ENDBRANCH  23  26
ENDBRANCH   3  20
TORSDOF 7
ENDMDL
MODEL 8
REMARK VINA RESULT:      -7.6      4.091     10.590
REMARK  7 active torsions:
REMARK  status: ('A' for Active; 'I' for Inactive)
REMARK    1  A    between atoms: C1_2  and  N1_3 
REMARK    2  A    between atoms: N1_3  and  C2_4 
REMARK    3  A    between atoms: C3_5  and  C4_6 
REMARK    4  A    between atoms: C4_6  and  C5_7 
REMARK    5  A    between atoms: C4_6  and  N4_24 
REMARK       I    between atoms: C5_7  and  N2_9 
REMARK    6  A    between atoms: N2_9  and  C6_10 
REMARK    7  A    between atoms: C9_13  and  N3_14 
ROOT
HETATM    1  C5  UNL     1      29.682   8.088  48.064  1.00  0.00     0.248 C 
HETATM    2  O2  UNL     1      29.133   8.469  49.160  1.00  0.00    -0.271 OA
HETATM    3  N2  UNL     1      29.036   7.050  47.375  1.00  0.00    -0.325 N 
HETATM    4  H6  UNL     1      29.574   6.832  46.508  1.00  0.00     0.169 HD
ENDROOT
BRANCH   1   5
HETATM    5  C4  UNL     1      30.887   8.932  47.899  1.00  0.00     0.197 C 
BRANCH   5   6
HETATM    6  C3  UNL     1      30.556   9.931  46.811  1.00  0.00     0.024 C 
HETATM    7  C2  UNL     1      30.061  11.134  47.031  1.00  0.00     0.089 C 
BRANCH   7   8
HETATM    8  N1  UNL     1      29.838  11.485  48.378  1.00  0.00    -0.344 N 
HETATM    9  H2  UNL     1      30.514  11.390  49.174  1.00  0.00     0.167 HD
BRANCH   8  10
HETATM   10  C1  UNL     1      28.621  12.039  48.864  1.00  0.00     0.352 C 
HETATM   11  O1  UNL     1      28.314  13.097  49.485  1.00  0.00    -0.283 OA
ENDBRANCH   8  10
ENDBRANCH   7   8
ENDBRANCH   5   6
BRANCH   5  12
HETATM   12  N4  UNL     1      32.084   8.300  47.559  1.00  0.00    -0.394 N 
HETATM   13  C16 UNL     1      33.173   9.157  47.104  1.00  0.00     0.145 C 
HETATM   14  C17 UNL     1      34.511   8.961  47.596  1.00  0.00    -0.008 C 
HETATM   15  C18 UNL     1      35.495   8.216  48.149  1.00  0.00    -0.003 C 
HETATM   16  C19 UNL     1      35.451   6.793  48.584  1.00  0.00    -0.004 C 
HETATM   17  C20 UNL     1      34.402   5.952  48.805  1.00  0.00    -0.025 C 
HETATM   18  C21 UNL     1      32.860   6.017  48.731  1.00  0.00     0.046 C 
HETATM   19  C22 UNL     1      32.683   7.289  48.113  1.00  0.00     0.122 C 
ENDBRANCH   5  12
ENDBRANCH   1   5
BRANCH   3  20
HETATM   20  C6  UNL     1      27.852   6.511  47.926  1.00  0.00     0.034 A 
HETATM   21  C7  UNL     1      27.852   5.268  48.508  1.00  0.00     0.032 A 
HETATM   22  C8  UNL     1      26.684   4.759  49.040  1.00  0.00     0.031 A 
HETATM   23  C9  UNL     1      25.479   5.427  49.031  1.00  0.00     0.030 A 
HETATM   24  C14 UNL     1      25.534   6.667  48.437  1.00  0.00     0.031 A 
HETATM   25  C15 UNL     1      26.663   7.220  47.893  1.00  0.00     0.032 A 
BRANCH  23  26
HETATM   26  N3  UNL     1      24.304   4.864  49.596  1.00  0.00    -0.379 N 
HETATM   27  C10 UNL     1      23.546   5.592  50.593  1.00  0.00     0.138 C 
HETATM   28  C11 UNL     1      23.865   5.046  51.991  1.00  0.00     0.160 C 
HETATM   29  S1  UNL     1      23.250   3.363  51.958  1.00  0.00     0.147 S 
HETATM   30  O3  UNL     1      21.743   3.452  51.999  1.00  0.00    -0.228 OA
HETATM   31  O4  UNL     1      23.775   2.578  53.115  1.00  0.00    -0.228 OA
HETATM   32  C12 UNL     1      23.753   2.630  50.447  1.00  0.00     0.160 C 
HETATM   33  C13 UNL     1      23.769   3.580  49.270  1.00  0.00     0.138 C 
ENDBRANCH  23  26
ENDBRANCH   3  20
TORSDOF 7
ENDMDL
MODEL 9
REMARK VINA RESULT:      -7.4      4.413      5.108
REMARK  7 active torsions:
REMARK  status: ('A' for Active; 'I' for Inactive)
REMARK    1  A    between atoms: C1_2  and  N1_3 
REMARK    2  A    between atoms: N1_3  and  C2_4 
REMARK    3  A    between atoms: C3_5  and  C4_6 
REMARK    4  A    between atoms: C4_6  and  C5_7 
REMARK    5  A    between atoms: C4_6  and  N4_24 
REMARK       I    between atoms: C5_7  and  N2_9 
REMARK    6  A    between atoms: N2_9  and  C6_10 
REMARK    7  A    between atoms: C9_13  and  N3_14 
ROOT
HETATM    1  C5  UNL     1      24.455   2.986  52.310  1.00  0.00     0.248 C 
HETATM    2  O2  UNL     1      24.754   2.961  51.062  1.00  0.00    -0.271 OA
HETATM    3  N2  UNL     1      23.617   4.032  52.726  1.00  0.00    -0.325 N 
HETATM    4  H6  UNL     1      23.448   3.944  53.752  1.00  0.00     0.169 HD
ENDROOT
BRANCH   1   5
HETATM    5  C4  UNL     1      25.146   1.825  52.916  1.00  0.00     0.197 C 
BRANCH   5   6
HETATM    6  C3  UNL     1      26.370   1.571  52.062  1.00  0.00     0.024 C 
HETATM    7  C2  UNL     1      27.605   1.540  52.523  1.00  0.00     0.089 C 
BRANCH   7   8
HETATM    8  N1  UNL     1      27.765   1.761  53.906  1.00  0.00    -0.344 N 
HETATM    9  H2  UNL     1      27.465   2.607  54.448  1.00  0.00     0.167 HD
BRANCH   8  10
HETATM   10  C1  UNL     1      28.379   0.833  54.794  1.00  0.00     0.352 C 
HETATM   11  O1  UNL     1      28.347  -0.424  54.923  1.00  0.00    -0.283 OA
ENDBRANCH   8  10
ENDBRANCH   7   8
ENDBRANCH   5   6
BRANCH   5  12
HETATM   12  N4  UNL     1      24.436   0.628  53.025  1.00  0.00    -0.394 N 
HETATM   13  C16 UNL     1      24.882  -0.309  54.050  1.00  0.00     0.145 C 
HETATM   14  C17 UNL     1      23.928  -0.967  54.902  1.00  0.00    -0.008 C 
HETATM   15  C18 UNL     1      22.691  -1.428  55.197  1.00  0.00    -0.003 C 
HETATM   16  C19 UNL     1      21.451  -1.351  54.378  1.00  0.00    -0.004 C 
HETATM   17  C20 UNL     1      21.139  -0.598  53.285  1.00  0.00    -0.025 C 
HETATM   18  C21 UNL     1      21.833   0.466  52.406  1.00  0.00     0.046 C 
HETATM   19  C22 UNL     1      23.163   0.397  52.914  1.00  0.00     0.122 C 
ENDBRANCH   5  12
ENDBRANCH   1   5
BRANCH   3  20
HETATM   20  C6  UNL     1      23.172   4.963  51.762  1.00  0.00     0.034 A 
HETATM   21  C7  UNL     1      22.026   4.736  51.042  1.00  0.00     0.032 A 
HETATM   22  C8  UNL     1      21.610   5.659  50.103  1.00  0.00     0.031 A 
HETATM   23  C9  UNL     1      22.280   6.830  49.826  1.00  0.00     0.030 A 
HETATM   24  C14 UNL     1      23.422   7.009  50.574  1.00  0.00     0.031 A 
HETATM   25  C15 UNL     1      23.881   6.128  51.517  1.00  0.00     0.032 A 
BRANCH  23  26
HETATM   26  N3  UNL     1      21.810   7.752  48.854  1.00  0.00    -0.379 N 
HETATM   27  C10 UNL     1      21.781   9.171  49.141  1.00  0.00     0.138 C 
HETATM   28  C11 UNL     1      20.352   9.602  49.497  1.00  0.00     0.160 C 
HETATM   29  S1  UNL     1      19.421   9.329  47.989  1.00  0.00     0.147 S 
HETATM   30  O3  UNL     1      19.835  10.413  47.023  1.00  0.00    -0.228 OA
HETATM   31  O4  UNL     1      17.951   9.376  48.253  1.00  0.00    -0.228 OA
HETATM   32  C12 UNL     1      19.875   7.763  47.346  1.00  0.00     0.160 C 
HETATM   33  C13 UNL     1      21.330   7.404  47.554  1.00  0.00     0.138 C 
ENDBRANCH  23  26
ENDBRANCH   3  20
TORSDOF 7
ENDMDL
