MODEL 1
REMARK VINA RESULT:      -8.7      0.000      0.000
REMARK  6 active torsions:
REMARK  status: ('A' for Active; 'I' for Inactive)
REMARK    1  A    between atoms: C2_2  and  C3_3 
REMARK    2  A    between atoms: C4_4  and  C5_5 
REMARK    3  A    between atoms: C5_5  and  N1_6 
REMARK       I    between atoms: N1_6  and  C6_7 
REMARK    4  A    between atoms: C10_15  and  N4_16 
REMARK    5  A    between atoms: N4_16  and  C11_17 
REMARK    6  A    between atoms: C11_17  and  C13_19 
ROOT
HETATM    1  C3  UNL     1      24.410   0.078  53.686  1.00  0.00    -0.005 A 
HETATM    2  C4  UNL     1      25.390  -0.158  54.668  1.00  0.00     0.014 A 
HETATM    3  S1  UNL     1      24.510  -1.143  55.840  1.00  0.00    -0.071 SA
HETATM    4  C8  UNL     1      22.955  -1.198  55.006  1.00  0.00     0.114 A 
HETATM    5  N2  UNL     1      21.692  -1.736  55.071  1.00  0.00    -0.234 NA
HETATM    6  C9  UNL     1      20.870  -1.483  54.046  1.00  0.00     0.236 A 
HETATM    7  N3  UNL     1      21.312  -0.756  53.070  1.00  0.00    -0.224 NA
HETATM    8  C10 UNL     1      22.547  -0.099  52.779  1.00  0.00     0.139 A 
HETATM    9  C19 UNL     1      23.105  -0.498  53.886  1.00  0.00     0.057 A 
ENDROOT
BRANCH   8  10
HETATM   10  N4  UNL     1      21.966   0.316  51.627  1.00  0.00    -0.366 N 
HETATM   11  H11 UNL     1      21.467   0.040  50.821  1.00  0.00     0.161 HD
BRANCH  10  12
HETATM   12  C11 UNL     1      21.624   1.422  50.808  1.00  0.00     0.112 C 
HETATM   13  C12 UNL     1      21.112   1.061  49.434  1.00  0.00     0.037 C 
BRANCH  12  14
HETATM   14  C13 UNL     1      22.601   2.528  50.687  1.00  0.00    -0.036 A 
HETATM   15  C14 UNL     1      22.781   3.509  51.676  1.00  0.00     0.009 A 
HETATM   16  C15 UNL     1      23.676   4.555  51.598  1.00  0.00     0.001 A 
HETATM   17  C16 UNL     1      24.470   4.648  50.444  1.00  0.00     0.000 A 
HETATM   18  C17 UNL     1      24.346   3.715  49.425  1.00  0.00     0.001 A 
HETATM   19  C18 UNL     1      23.424   2.722  49.616  1.00  0.00     0.009 A 
ENDBRANCH  12  14
ENDBRANCH  10  12
ENDBRANCH   8  10
BRANCH   1  20
HETATM   20  C2  UNL     1      25.081   0.987  52.733  1.00  0.00     0.003 C 
HETATM   21  C1  UNL     1      25.920   1.129  51.749  1.00  0.00     0.012 C 
ENDBRANCH   1  20
BRANCH   2  22
HETATM   22  C5  UNL     1      26.776   0.170  54.933  1.00  0.00     0.169 C 
BRANCH  22  23
HETATM   23  N1  UNL     1      27.732  -0.733  54.370  1.00  0.00    -0.357 N 
HETATM   24  C6  UNL     1      29.033  -0.348  54.016  1.00  0.00     0.213 C 
HETATM   25  C7  UNL     1      29.923  -1.409  53.437  1.00  0.00     0.117 C 
HETATM   26  O1  UNL     1      29.338   0.863  54.218  1.00  0.00    -0.274 OA
HETATM   27  H6  UNL     1      27.407  -1.692  54.235  1.00  0.00     0.162 HD
ENDBRANCH  22  23
ENDBRANCH   2  22
TORSDOF 6
ENDMDL
MODEL 2
REMARK VINA RESULT:      -8.5      1.828      2.904
REMARK  6 active torsions:
REMARK  status: ('A' for Active; 'I' for Inactive)
REMARK    1  A    between atoms: C2_2  and  C3_3 
REMARK    2  A    between atoms: C4_4  and  C5_5 
REMARK    3  A    between atoms: C5_5  and  N1_6 
REMARK       I    between atoms: N1_6  and  C6_7 
REMARK    4  A    between atoms: C10_15  and  N4_16 
REMARK    5  A    between atoms: N4_16  and  C11_17 
REMARK    6  A    between atoms: C11_17  and  C13_19 
ROOT
HETATM    1  C3  UNL     1      24.824   1.195  52.728  1.00  0.00    -0.005 A 
HETATM    2  C4  UNL     1      25.166   0.379  53.823  1.00  0.00     0.014 A 
HETATM    3  S1  UNL     1      23.738  -0.647  53.980  1.00  0.00    -0.071 SA
HETATM    4  C8  UNL     1      22.799   0.020  52.642  1.00  0.00     0.114 A 
HETATM    5  N2  UNL     1      21.626  -0.129  51.942  1.00  0.00    -0.234 NA
HETATM    6  C9  UNL     1      21.444   0.671  50.884  1.00  0.00     0.236 A 
HETATM    7  N3  UNL     1      22.373   1.523  50.593  1.00  0.00    -0.224 NA
HETATM    8  C10 UNL     1      23.645   1.863  51.151  1.00  0.00     0.139 A 
HETATM    9  C19 UNL     1      23.545   0.979  52.102  1.00  0.00     0.057 A 
ENDROOT
BRANCH   8  10
HETATM   10  N4  UNL     1      23.747   2.783  50.161  1.00  0.00    -0.366 N 
HETATM   11  H11 UNL     1      23.801   2.927  49.186  1.00  0.00     0.161 HD
BRANCH  10  12
HETATM   12  C11 UNL     1      23.798   4.160  49.829  1.00  0.00     0.112 C 
HETATM   13  C12 UNL     1      22.681   4.640  48.933  1.00  0.00     0.037 C 
BRANCH  12  14
HETATM   14  C13 UNL     1      25.081   4.714  49.343  1.00  0.00    -0.036 A 
HETATM   15  C14 UNL     1      26.275   3.975  49.307  1.00  0.00     0.009 A 
HETATM   16  C15 UNL     1      27.489   4.455  48.865  1.00  0.00     0.001 A 
HETATM   17  C16 UNL     1      27.539   5.785  48.415  1.00  0.00     0.000 A 
HETATM   18  C17 UNL     1      26.399   6.575  48.423  1.00  0.00     0.001 A 
HETATM   19  C18 UNL     1      25.253   5.987  48.883  1.00  0.00     0.009 A 
ENDBRANCH  12  14
ENDBRANCH  10  12
ENDBRANCH   8  10
BRANCH   1  20
HETATM   20  C2  UNL     1      25.958   2.139  52.627  1.00  0.00     0.003 C 
HETATM   21  C1  UNL     1      27.150   2.385  52.171  1.00  0.00     0.012 C 
ENDBRANCH   1  20
BRANCH   2  22
HETATM   22  C5  UNL     1      26.264   0.195  54.750  1.00  0.00     0.169 C 
BRANCH  22  23
HETATM   23  N1  UNL     1      27.380  -0.534  54.232  1.00  0.00    -0.357 N 
HETATM   24  C6  UNL     1      28.709  -0.120  54.398  1.00  0.00     0.213 C 
HETATM   25  C7  UNL     1      29.774  -0.991  53.798  1.00  0.00     0.117 C 
HETATM   26  O1  UNL     1      28.889   0.955  55.040  1.00  0.00    -0.274 OA
HETATM   27  H6  UNL     1      27.150  -1.389  53.722  1.00  0.00     0.162 HD
ENDBRANCH  22  23
ENDBRANCH   2  22
TORSDOF 6
ENDMDL
MODEL 3
REMARK VINA RESULT:      -8.4      1.347      2.005
REMARK  6 active torsions:
REMARK  status: ('A' for Active; 'I' for Inactive)
REMARK    1  A    between atoms: C2_2  and  C3_3 
REMARK    2  A    between atoms: C4_4  and  C5_5 
REMARK    3  A    between atoms: C5_5  and  N1_6 
REMARK       I    between atoms: N1_6  and  C6_7 
REMARK    4  A    between atoms: C10_15  and  N4_16 
REMARK    5  A    between atoms: N4_16  and  C11_17 
REMARK    6  A    between atoms: C11_17  and  C13_19 
ROOT
HETATM    1  C3  UNL     1      24.099   0.471  52.872  1.00  0.00    -0.005 A 
HETATM    2  C4  UNL     1      25.392   0.476  53.427  1.00  0.00     0.014 A 
HETATM    3  S1  UNL     1      25.190  -0.552  54.848  1.00  0.00    -0.071 SA
HETATM    4  C8  UNL     1      23.477  -0.928  54.644  1.00  0.00     0.114 A 
HETATM    5  N2  UNL     1      22.443  -1.664  55.173  1.00  0.00    -0.234 NA
HETATM    6  C9  UNL     1      21.276  -1.629  54.520  1.00  0.00     0.236 A 
HETATM    7  N3  UNL     1      21.196  -0.914  53.444  1.00  0.00    -0.224 NA
HETATM    8  C10 UNL     1      22.101  -0.082  52.714  1.00  0.00     0.139 A 
HETATM    9  C19 UNL     1      23.082  -0.299  53.542  1.00  0.00     0.057 A 
ENDROOT
BRANCH   8  10
HETATM   10  N4  UNL     1      21.078   0.143  51.854  1.00  0.00    -0.366 N 
HETATM   11  H11 UNL     1      20.348  -0.268  51.332  1.00  0.00     0.161 HD
BRANCH  10  12
HETATM   12  C11 UNL     1      20.318   1.111  51.149  1.00  0.00     0.112 C 
HETATM   13  C12 UNL     1      18.942   0.654  50.727  1.00  0.00     0.037 C 
BRANCH  12  14
HETATM   14  C13 UNL     1      20.963   1.816  50.019  1.00  0.00    -0.036 A 
HETATM   15  C14 UNL     1      21.588   1.150  48.951  1.00  0.00     0.009 A 
HETATM   16  C15 UNL     1      22.201   1.770  47.884  1.00  0.00     0.001 A 
HETATM   17  C16 UNL     1      22.202   3.174  47.859  1.00  0.00     0.000 A 
HETATM   18  C17 UNL     1      21.604   3.898  48.880  1.00  0.00     0.001 A 
HETATM   19  C18 UNL     1      21.028   3.172  49.885  1.00  0.00     0.009 A 
ENDBRANCH  12  14
ENDBRANCH  10  12
ENDBRANCH   8  10
BRANCH   1  20
HETATM   20  C2  UNL     1      24.204   1.406  51.731  1.00  0.00     0.003 C 
HETATM   21  C1  UNL     1      24.265   2.637  51.316  1.00  0.00     0.012 C 
ENDBRANCH   1  20
BRANCH   2  22
HETATM   22  C5  UNL     1      26.696   1.050  53.161  1.00  0.00     0.169 C 
BRANCH  22  23
HETATM   23  N1  UNL     1      27.766   0.107  53.065  1.00  0.00    -0.357 N 
HETATM   24  C6  UNL     1      28.811   0.038  53.997  1.00  0.00     0.213 C 
HETATM   25  C7  UNL     1      29.864  -1.006  53.764  1.00  0.00     0.117 C 
HETATM   26  O1  UNL     1      28.771   0.866  54.953  1.00  0.00    -0.274 OA
HETATM   27  H6  UNL     1      27.729  -0.523  52.262  1.00  0.00     0.162 HD
ENDBRANCH  22  23
ENDBRANCH   2  22
TORSDOF 6
ENDMDL
MODEL 4
REMARK VINA RESULT:      -8.3      3.494      7.392
REMARK  6 active torsions:
REMARK  status: ('A' for Active; 'I' for Inactive)
REMARK    1  A    between atoms: C2_2  and  C3_3 
REMARK    2  A    between atoms: C4_4  and  C5_5 
REMARK    3  A    between atoms: C5_5  and  N1_6 
REMARK       I    between atoms: N1_6  and  C6_7 
REMARK    4  A    between atoms: C10_15  and  N4_16 
REMARK    5  A    between atoms: N4_16  and  C11_17 
REMARK    6  A    between atoms: C11_17  and  C13_19 
ROOT
HETATM    1  C3  UNL     1      23.760   1.492  51.756  1.00  0.00    -0.005 A 
HETATM    2  C4  UNL     1      22.402   1.311  51.433  1.00  0.00     0.014 A 
HETATM    3  S1  UNL     1      22.206   2.382  50.043  1.00  0.00    -0.071 SA
HETATM    4  C8  UNL     1      23.863   2.987  49.956  1.00  0.00     0.114 A 
HETATM    5  N2  UNL     1      24.702   3.789  49.220  1.00  0.00    -0.234 NA
HETATM    6  C9  UNL     1      25.986   3.832  49.597  1.00  0.00     0.236 A 
HETATM    7  N3  UNL     1      26.350   3.125  50.617  1.00  0.00    -0.224 NA
HETATM    8  C10 UNL     1      25.686   2.239  51.522  1.00  0.00     0.139 A 
HETATM    9  C19 UNL     1      24.531   2.396  50.941  1.00  0.00     0.057 A 
ENDROOT
BRANCH   8  10
HETATM   10  N4  UNL     1      26.889   2.077  52.125  1.00  0.00    -0.366 N 
HETATM   11  H11 UNL     1      27.856   2.272  52.079  1.00  0.00     0.161 HD
BRANCH  10  12
HETATM   12  C11 UNL     1      27.587   1.569  53.249  1.00  0.00     0.112 C 
HETATM   13  C12 UNL     1      28.704   2.451  53.755  1.00  0.00     0.037 C 
BRANCH  12  14
HETATM   14  C13 UNL     1      28.060   0.167  53.201  1.00  0.00    -0.036 A 
HETATM   15  C14 UNL     1      27.257  -0.902  52.772  1.00  0.00     0.009 A 
HETATM   16  C15 UNL     1      27.659  -2.220  52.717  1.00  0.00     0.001 A 
HETATM   17  C16 UNL     1      28.971  -2.518  53.119  1.00  0.00     0.000 A 
HETATM   18  C17 UNL     1      29.821  -1.512  53.556  1.00  0.00     0.001 A 
HETATM   19  C18 UNL     1      29.309  -0.243  53.566  1.00  0.00     0.009 A 
ENDBRANCH  12  14
ENDBRANCH  10  12
ENDBRANCH   8  10
BRANCH   1  20
HETATM   20  C2  UNL     1      23.938   0.684  52.982  1.00  0.00     0.003 C 
HETATM   21  C1  UNL     1      23.971  -0.495  53.531  1.00  0.00     0.012 C 
ENDBRANCH   1  20
BRANCH   2  22
HETATM   22  C5  UNL     1      21.255   0.560  51.902  1.00  0.00     0.169 C 
BRANCH  22  23
HETATM   23  N1  UNL     1      20.125   0.567  51.026  1.00  0.00    -0.357 N 
HETATM   24  C6  UNL     1      18.859   0.100  51.406  1.00  0.00     0.213 C 
HETATM   25  C7  UNL     1      17.769   0.172  50.376  1.00  0.00     0.117 C 
HETATM   26  O1  UNL     1      18.751  -0.342  52.586  1.00  0.00    -0.274 OA
HETATM   27  H6  UNL     1      20.295   0.936  50.089  1.00  0.00     0.162 HD
ENDBRANCH  22  23
ENDBRANCH   2  22
TORSDOF 6
ENDMDL
MODEL 5
REMARK VINA RESULT:      -8.2      2.406      4.953
REMARK  6 active torsions:
REMARK  status: ('A' for Active; 'I' for Inactive)
REMARK    1  A    between atoms: C2_2  and  C3_3 
REMARK    2  A    between atoms: C4_4  and  C5_5 
REMARK    3  A    between atoms: C5_5  and  N1_6 
REMARK       I    between atoms: N1_6  and  C6_7 
REMARK    4  A    between atoms: C10_15  and  N4_16 
REMARK    5  A    between atoms: N4_16  and  C11_17 
REMARK    6  A    between atoms: C11_17  and  C13_19 
ROOT
HETATM    1  C3  UNL     1      24.880   1.370  52.561  1.00  0.00    -0.005 A 
HETATM    2  C4  UNL     1      26.118   2.039  52.525  1.00  0.00     0.014 A 
HETATM    3  S1  UNL     1      25.983   2.986  51.041  1.00  0.00    -0.071 SA
HETATM    4  C8  UNL     1      24.361   2.479  50.563  1.00  0.00     0.114 A 
HETATM    5  N2  UNL     1      23.377   2.683  49.626  1.00  0.00    -0.234 NA
HETATM    6  C9  UNL     1      22.223   2.030  49.804  1.00  0.00     0.236 A 
HETATM    7  N3  UNL     1      22.108   1.257  50.835  1.00  0.00    -0.224 NA
HETATM    8  C10 UNL     1      22.961   0.886  51.920  1.00  0.00     0.139 A 
HETATM    9  C19 UNL     1      23.944   1.628  51.496  1.00  0.00     0.057 A 
ENDROOT
BRANCH   8  10
HETATM   10  N4  UNL     1      21.938   0.115  52.360  1.00  0.00    -0.366 N 
HETATM   11  H11 UNL     1      21.328  -0.630  52.143  1.00  0.00     0.161 HD
BRANCH  10  12
HETATM   12  C11 UNL     1      21.071  -0.194  53.439  1.00  0.00     0.112 C 
HETATM   13  C12 UNL     1      21.635  -1.164  54.450  1.00  0.00     0.037 C 
BRANCH  12  14
HETATM   14  C13 UNL     1      19.676  -0.578  53.125  1.00  0.00    -0.036 A 
HETATM   15  C14 UNL     1      19.026  -1.672  53.719  1.00  0.00     0.009 A 
HETATM   16  C15 UNL     1      17.731  -2.063  53.451  1.00  0.00     0.001 A 
HETATM   17  C16 UNL     1      17.005  -1.311  52.514  1.00  0.00     0.000 A 
HETATM   18  C17 UNL     1      17.583  -0.217  51.887  1.00  0.00     0.001 A 
HETATM   19  C18 UNL     1      18.874   0.074  52.235  1.00  0.00     0.009 A 
ENDBRANCH  12  14
ENDBRANCH  10  12
ENDBRANCH   8  10
BRANCH   1  20
HETATM   20  C2  UNL     1      24.993   0.487  53.741  1.00  0.00     0.003 C 
HETATM   21  C1  UNL     1      25.300  -0.685  54.216  1.00  0.00     0.012 C 
ENDBRANCH   1  20
BRANCH   2  22
HETATM   22  C5  UNL     1      27.336   2.130  53.303  1.00  0.00     0.169 C 
BRANCH  22  23
HETATM   23  N1  UNL     1      28.309   1.120  53.029  1.00  0.00    -0.357 N 
HETATM   24  C6  UNL     1      28.918   0.351  54.032  1.00  0.00     0.213 C 
HETATM   25  C7  UNL     1      29.921  -0.674  53.589  1.00  0.00     0.117 C 
HETATM   26  O1  UNL     1      28.564   0.593  55.222  1.00  0.00    -0.274 OA
HETATM   27  H6  UNL     1      28.544   0.988  52.044  1.00  0.00     0.162 HD
ENDBRANCH  22  23
ENDBRANCH   2  22
TORSDOF 6
ENDMDL
MODEL 6
REMARK VINA RESULT:      -8.1      3.240      6.170
REMARK  6 active torsions:
REMARK  status: ('A' for Active; 'I' for Inactive)
REMARK    1  A    between atoms: C2_2  and  C3_3 
REMARK    2  A    between atoms: C4_4  and  C5_5 
REMARK    3  A    between atoms: C5_5  and  N1_6 
REMARK       I    between atoms: N1_6  and  C6_7 
REMARK    4  A    between atoms: C10_15  and  N4_16 
REMARK    5  A    between atoms: N4_16  and  C11_17 
REMARK    6  A    between atoms: C11_17  and  C13_19 
ROOT
HETATM    1  C3  UNL     1      25.191   2.440  51.009  1.00  0.00    -0.005 A 
HETATM    2  C4  UNL     1      25.511   3.340  49.975  1.00  0.00     0.014 A 
HETATM    3  S1  UNL     1      23.924   3.691  49.285  1.00  0.00    -0.071 SA
HETATM    4  C8  UNL     1      22.954   2.677  50.357  1.00  0.00     0.114 A 
HETATM    5  N2  UNL     1      21.662   2.321  50.660  1.00  0.00    -0.234 NA
HETATM    6  C9  UNL     1      21.485   1.502  51.703  1.00  0.00     0.236 A 
HETATM    7  N3  UNL     1      22.531   1.102  52.352  1.00  0.00    -0.224 NA
HETATM    8  C10 UNL     1      23.938   1.323  52.237  1.00  0.00     0.139 A 
HETATM    9  C19 UNL     1      23.804   2.102  51.202  1.00  0.00     0.057 A 
ENDROOT
BRANCH   8  10
HETATM   10  N4  UNL     1      24.076   0.513  53.314  1.00  0.00    -0.366 N 
HETATM   11  H11 UNL     1      23.752   0.304  54.223  1.00  0.00     0.161 HD
BRANCH  10  12
HETATM   12  C11 UNL     1      24.734  -0.615  53.867  1.00  0.00     0.112 C 
HETATM   13  C12 UNL     1      24.191  -1.079  55.197  1.00  0.00     0.037 C 
BRANCH  12  14
HETATM   14  C13 UNL     1      26.213  -0.602  53.924  1.00  0.00    -0.036 A 
HETATM   15  C14 UNL     1      26.939   0.091  54.908  1.00  0.00     0.009 A 
HETATM   16  C15 UNL     1      28.314   0.130  54.993  1.00  0.00     0.001 A 
HETATM   17  C16 UNL     1      29.048  -0.575  54.025  1.00  0.00     0.000 A 
HETATM   18  C17 UNL     1      28.398  -1.280  53.024  1.00  0.00     0.001 A 
HETATM   19  C18 UNL     1      27.030  -1.246  53.042  1.00  0.00     0.009 A 
ENDBRANCH  12  14
ENDBRANCH  10  12
ENDBRANCH   8  10
BRANCH   1  20
HETATM   20  C2  UNL     1      26.510   2.043  51.548  1.00  0.00     0.003 C 
HETATM   21  C1  UNL     1      27.552   2.363  52.257  1.00  0.00     0.012 C 
ENDBRANCH   1  20
BRANCH   2  22
HETATM   22  C5  UNL     1      26.679   3.972  49.396  1.00  0.00     0.169 C 
BRANCH  22  23
HETATM   23  N1  UNL     1      26.567   5.383  49.193  1.00  0.00    -0.357 N 
HETATM   24  C6  UNL     1      27.551   6.144  48.546  1.00  0.00     0.213 C 
HETATM   25  C7  UNL     1      27.291   7.616  48.406  1.00  0.00     0.117 C 
HETATM   26  O1  UNL     1      28.572   5.518  48.139  1.00  0.00    -0.274 OA
HETATM   27  H6  UNL     1      25.715   5.815  49.554  1.00  0.00     0.162 HD
ENDBRANCH  22  23
ENDBRANCH   2  22
TORSDOF 6
ENDMDL
MODEL 7
REMARK VINA RESULT:      -8.0      3.410      6.496
REMARK  6 active torsions:
REMARK  status: ('A' for Active; 'I' for Inactive)
REMARK    1  A    between atoms: C2_2  and  C3_3 
REMARK    2  A    between atoms: C4_4  and  C5_5 
REMARK    3  A    between atoms: C5_5  and  N1_6 
REMARK       I    between atoms: N1_6  and  C6_7 
REMARK    4  A    between atoms: C10_15  and  N4_16 
REMARK    5  A    between atoms: N4_16  and  C11_17 
REMARK    6  A    between atoms: C11_17  and  C13_19 
ROOT
HETATM    1  C3  UNL     1      22.566   1.148  52.325  1.00  0.00    -0.005 A 
HETATM    2  C4  UNL     1      21.391   1.869  52.039  1.00  0.00     0.014 A 
HETATM    3  S1  UNL     1      20.255   1.207  53.218  1.00  0.00    -0.071 SA
HETATM    4  C8  UNL     1      21.344   0.060  54.002  1.00  0.00     0.114 A 
HETATM    5  N2  UNL     1      21.427  -0.851  55.027  1.00  0.00    -0.234 NA
HETATM    6  C9  UNL     1      22.617  -1.429  55.232  1.00  0.00     0.236 A 
HETATM    7  N3  UNL     1      23.601  -1.096  54.461  1.00  0.00    -0.224 NA
HETATM    8  C10 UNL     1      23.764  -0.202  53.358  1.00  0.00     0.139 A 
HETATM    9  C19 UNL     1      22.520   0.182  53.392  1.00  0.00     0.057 A 
ENDROOT
BRANCH   8  10
HETATM   10  N4  UNL     1      25.057  -0.603  53.322  1.00  0.00    -0.366 N 
HETATM   11  H11 UNL     1      25.758  -1.134  53.772  1.00  0.00     0.161 HD
BRANCH  10  12
HETATM   12  C11 UNL     1      26.280  -0.586  52.605  1.00  0.00     0.112 C 
HETATM   13  C12 UNL     1      26.827  -1.947  52.247  1.00  0.00     0.037 C 
BRANCH  12  14
HETATM   14  C13 UNL     1      27.381   0.258  53.122  1.00  0.00    -0.036 A 
HETATM   15  C14 UNL     1      28.529  -0.266  53.739  1.00  0.00     0.009 A 
HETATM   16  C15 UNL     1      29.572   0.485  54.236  1.00  0.00     0.001 A 
HETATM   17  C16 UNL     1      29.483   1.882  54.117  1.00  0.00     0.000 A 
HETATM   18  C17 UNL     1      28.378   2.470  53.519  1.00  0.00     0.001 A 
HETATM   19  C18 UNL     1      27.407   1.621  53.064  1.00  0.00     0.009 A 
ENDBRANCH  12  14
ENDBRANCH  10  12
ENDBRANCH   8  10
BRANCH   1  20
HETATM   20  C2  UNL     1      23.517   1.605  51.289  1.00  0.00     0.003 C 
HETATM   21  C1  UNL     1      24.475   2.417  50.953  1.00  0.00     0.012 C 
ENDBRANCH   1  20
BRANCH   2  22
HETATM   22  C5  UNL     1      20.931   2.895  51.126  1.00  0.00     0.169 C 
BRANCH  22  23
HETATM   23  N1  UNL     1      19.703   3.529  51.493  1.00  0.00    -0.357 N 
HETATM   24  C6  UNL     1      18.516   3.382  50.761  1.00  0.00     0.213 C 
HETATM   25  C7  UNL     1      17.306   4.109  51.272  1.00  0.00     0.117 C 
HETATM   26  O1  UNL     1      18.575   2.648  49.732  1.00  0.00    -0.274 OA
HETATM   27  H6  UNL     1      19.739   4.108  52.334  1.00  0.00     0.162 HD
ENDBRANCH  22  23
ENDBRANCH   2  22
TORSDOF 6
ENDMDL
MODEL 8
REMARK VINA RESULT:      -8.0      2.482      4.596
REMARK  6 active torsions:
REMARK  status: ('A' for Active; 'I' for Inactive)
REMARK    1  A    between atoms: C2_2  and  C3_3 
REMARK    2  A    between atoms: C4_4  and  C5_5 
REMARK    3  A    between atoms: C5_5  and  N1_6 
REMARK       I    between atoms: N1_6  and  C6_7 
REMARK    4  A    between atoms: C10_15  and  N4_16 
REMARK    5  A    between atoms: N4_16  and  C11_17 
REMARK    6  A    between atoms: C11_17  and  C13_19 
ROOT
HETATM    1  C3  UNL     1      24.058   0.353  53.152  1.00  0.00    -0.005 A 
HETATM    2  C4  UNL     1      25.369   0.567  53.618  1.00  0.00     0.014 A 
HETATM    3  S1  UNL     1      25.964   1.797  52.499  1.00  0.00    -0.071 SA
HETATM    4  C8  UNL     1      24.508   1.967  51.515  1.00  0.00     0.114 A 
HETATM    5  N2  UNL     1      23.964   2.679  50.473  1.00  0.00    -0.234 NA
HETATM    6  C9  UNL     1      22.687   2.423  50.162  1.00  0.00     0.236 A 
HETATM    7  N3  UNL     1      22.056   1.530  50.855  1.00  0.00    -0.224 NA
HETATM    8  C10 UNL     1      22.391   0.678  51.952  1.00  0.00     0.139 A 
HETATM    9  C19 UNL     1      23.612   1.125  52.020  1.00  0.00     0.057 A 
ENDROOT
BRANCH   8  10
HETATM   10  N4  UNL     1      21.120   0.213  51.880  1.00  0.00    -0.366 N 
HETATM   11  H11 UNL     1      20.499  -0.390  51.405  1.00  0.00     0.161 HD
BRANCH  10  12
HETATM   12  C11 UNL     1      19.823   0.227  52.453  1.00  0.00     0.112 C 
HETATM   13  C12 UNL     1      19.593  -0.810  53.527  1.00  0.00     0.037 C 
BRANCH  12  14
HETATM   14  C13 UNL     1      18.657   0.247  51.541  1.00  0.00    -0.036 A 
HETATM   15  C14 UNL     1      18.528   1.155  50.477  1.00  0.00     0.009 A 
HETATM   16  C15 UNL     1      17.458   1.208  49.609  1.00  0.00     0.001 A 
HETATM   17  C16 UNL     1      16.417   0.286  49.802  1.00  0.00     0.000 A 
HETATM   18  C17 UNL     1      16.476  -0.639  50.834  1.00  0.00     0.001 A 
HETATM   19  C18 UNL     1      17.588  -0.596  51.629  1.00  0.00     0.009 A 
ENDBRANCH  12  14
ENDBRANCH  10  12
ENDBRANCH   8  10
BRANCH   1  20
HETATM   20  C2  UNL     1      23.558  -0.747  54.004  1.00  0.00     0.003 C 
HETATM   21  C1  UNL     1      22.810  -1.117  55.001  1.00  0.00     0.012 C 
ENDBRANCH   1  20
BRANCH   2  22
HETATM   22  C5  UNL     1      26.254   0.083  54.658  1.00  0.00     0.169 C 
BRANCH  22  23
HETATM   23  N1  UNL     1      27.424  -0.593  54.194  1.00  0.00    -0.357 N 
HETATM   24  C6  UNL     1      28.721  -0.092  54.378  1.00  0.00     0.213 C 
HETATM   25  C7  UNL     1      29.853  -0.917  53.835  1.00  0.00     0.117 C 
HETATM   26  O1  UNL     1      28.819   1.013  54.985  1.00  0.00    -0.274 OA
HETATM   27  H6  UNL     1      27.261  -1.477  53.710  1.00  0.00     0.162 HD
ENDBRANCH  22  23
ENDBRANCH   2  22
TORSDOF 6
ENDMDL
MODEL 9
REMARK VINA RESULT:      -7.9      2.512      4.761
REMARK  6 active torsions:
REMARK  status: ('A' for Active; 'I' for Inactive)
REMARK    1  A    between atoms: C2_2  and  C3_3 
REMARK    2  A    between atoms: C4_4  and  C5_5 
REMARK    3  A    between atoms: C5_5  and  N1_6 
REMARK       I    between atoms: N1_6  and  C6_7 
REMARK    4  A    between atoms: C10_15  and  N4_16 
REMARK    5  A    between atoms: N4_16  and  C11_17 
REMARK    6  A    between atoms: C11_17  and  C13_19 
ROOT
HETATM    1  C3  UNL     1      23.721   0.695  53.063  1.00  0.00    -0.005 A 
HETATM    2  C4  UNL     1      24.985   0.510  53.654  1.00  0.00     0.014 A 
HETATM    3  S1  UNL     1      25.688   2.126  53.536  1.00  0.00    -0.071 SA
HETATM    4  C8  UNL     1      24.331   2.935  52.750  1.00  0.00     0.114 A 
HETATM    5  N2  UNL     1      23.889   4.158  52.304  1.00  0.00    -0.234 NA
HETATM    6  C9  UNL     1      22.645   4.214  51.814  1.00  0.00     0.236 A 
HETATM    7  N3  UNL     1      21.946   3.125  51.791  1.00  0.00    -0.224 NA
HETATM    8  C10 UNL     1      22.174   1.769  52.182  1.00  0.00     0.139 A 
HETATM    9  C19 UNL     1      23.386   2.014  52.588  1.00  0.00     0.057 A 
ENDROOT
BRANCH   8  10
HETATM   10  N4  UNL     1      20.912   1.516  51.758  1.00  0.00    -0.366 N 
HETATM   11  H11 UNL     1      19.964   1.790  51.811  1.00  0.00     0.161 HD
BRANCH  10  12
HETATM   12  C11 UNL     1      20.083   0.729  50.918  1.00  0.00     0.112 C 
HETATM   13  C12 UNL     1      19.639   1.410  49.645  1.00  0.00     0.037 C 
BRANCH  12  14
HETATM   14  C13 UNL     1      18.925   0.039  51.529  1.00  0.00    -0.036 A 
HETATM   15  C14 UNL     1      17.658  -0.022  50.925  1.00  0.00     0.009 A 
HETATM   16  C15 UNL     1      16.555  -0.650  51.463  1.00  0.00     0.001 A 
HETATM   17  C16 UNL     1      16.707  -1.279  52.709  1.00  0.00     0.000 A 
HETATM   18  C17 UNL     1      17.930  -1.258  53.365  1.00  0.00     0.001 A 
HETATM   19  C18 UNL     1      18.950  -0.604  52.732  1.00  0.00     0.009 A 
ENDBRANCH  12  14
ENDBRANCH  10  12
ENDBRANCH   8  10
BRANCH   1  20
HETATM   20  C2  UNL     1      23.138  -0.664  53.052  1.00  0.00     0.003 C 
HETATM   21  C1  UNL     1      22.291  -1.504  53.569  1.00  0.00     0.012 C 
ENDBRANCH   1  20
BRANCH   2  22
HETATM   22  C5  UNL     1      25.767  -0.549  54.259  1.00  0.00     0.169 C 
BRANCH  22  23
HETATM   23  N1  UNL     1      26.979  -0.875  53.575  1.00  0.00    -0.357 N 
HETATM   24  C6  UNL     1      28.251  -0.615  54.105  1.00  0.00     0.213 C 
HETATM   25  C7  UNL     1      29.432  -1.015  53.269  1.00  0.00     0.117 C 
HETATM   26  O1  UNL     1      28.287  -0.064  55.243  1.00  0.00    -0.274 OA
HETATM   27  H6  UNL     1      26.866  -1.313  52.659  1.00  0.00     0.162 HD
ENDBRANCH  22  23
ENDBRANCH   2  22
TORSDOF 6
ENDMDL
