MODEL 1
REMARK VINA RESULT:      -9.0      0.000      0.000
REMARK  2 active torsions:
REMARK  status: ('A' for Active; 'I' for Inactive)
REMARK    1  A    between atoms: C2_2  and  C3_3 
REMARK    2  A    between atoms: C10_12  and  C11_13 
ROOT
HETATM    1  C3  UNL     1      22.283   2.597  51.264  1.00  0.00     0.053 C 
HETATM    2  C4  UNL     1      22.273   1.346  50.398  1.00  0.00     0.041 C 
HETATM    3  N1  UNL     1      21.858   3.745  50.559  1.00  0.00    -0.401 N 
HETATM    4  C5  UNL     1      22.830   4.548  49.851  1.00  0.00     0.132 C 
HETATM    5  C6  UNL     1      22.646   4.262  48.395  1.00  0.00     0.039 C 
HETATM    6  C7  UNL     1      24.187   4.279  50.421  1.00  0.00     0.090 C 
HETATM    7  C8  UNL     1      25.289   3.640  50.081  1.00  0.00     0.033 C 
HETATM    8  C9  UNL     1      26.594   3.361  49.452  1.00  0.00     0.070 C 
HETATM    9  N2  UNL     1      24.700   2.571  50.924  1.00  0.00    -0.374 N 
HETATM   10  C10 UNL     1      23.602   2.615  51.959  1.00  0.00     0.096 C 
HETATM   11  C20 UNL     1      23.764   3.935  52.695  1.00  0.00     0.213 C 
HETATM   12  O2  UNL     1      24.326   4.891  51.741  1.00  0.00    -0.348 OA
HETATM   13  H9  UNL     1      21.080   4.285  50.945  1.00  0.00     0.154 HD
HETATM   14  H17 UNL     1      25.133   1.563  50.785  1.00  0.00     0.160 HD
ENDROOT
BRANCH  10  15
HETATM   15  C11 UNL     1      23.813   1.431  52.771  1.00  0.00     0.026 C 
HETATM   16  C12 UNL     1      24.732   0.795  53.449  1.00  0.00     0.043 A 
HETATM   17  C13 UNL     1      24.631  -0.470  54.225  1.00  0.00     0.256 A 
HETATM   18  C19 UNL     1      26.142   1.144  53.609  1.00  0.00     0.006 A 
HETATM   19  O1  UNL     1      23.567  -1.165  54.378  1.00  0.00    -0.267 OA
HETATM   20  N3  UNL     1      25.912  -0.743  54.748  1.00  0.00    -0.322 N 
HETATM   21  C14 UNL     1      26.848   0.242  54.376  1.00  0.00     0.046 A 
HETATM   22  H19 UNL     1      26.053  -1.593  55.327  1.00  0.00     0.169 HD
HETATM   23  C15 UNL     1      28.182   0.290  54.699  1.00  0.00     0.030 A 
HETATM   24  C16 UNL     1      28.924   1.346  54.218  1.00  0.00     0.002 A 
HETATM   25  C17 UNL     1      28.299   2.297  53.440  1.00  0.00     0.001 A 
HETATM   26  C18 UNL     1      26.955   2.166  53.168  1.00  0.00     0.014 A 
ENDBRANCH  10  15
BRANCH   1  27
HETATM   27  C2  UNL     1      21.189   2.383  52.316  1.00  0.00     0.029 C 
HETATM   28  C1  UNL     1      19.964   3.220  51.960  1.00  0.00     0.007 C 
ENDBRANCH   1  27
TORSDOF 2
ENDMDL
MODEL 2
REMARK VINA RESULT:      -8.3      2.599      5.523
REMARK  2 active torsions:
REMARK  status: ('A' for Active; 'I' for Inactive)
REMARK    1  A    between atoms: C2_2  and  C3_3 
REMARK    2  A    between atoms: C10_12  and  C11_13 
ROOT
HETATM    1  C3  UNL     1      24.295   2.469  51.935  1.00  0.00     0.053 C 
HETATM    2  C4  UNL     1      24.276   3.167  53.287  1.00  0.00     0.041 C 
HETATM    3  N1  UNL     1      24.829   3.286  50.914  1.00  0.00    -0.401 N 
HETATM    4  C5  UNL     1      23.950   4.151  50.158  1.00  0.00     0.132 C 
HETATM    5  C6  UNL     1      24.198   5.544  50.641  1.00  0.00     0.039 C 
HETATM    6  C7  UNL     1      22.549   3.639  50.277  1.00  0.00     0.090 C 
HETATM    7  C8  UNL     1      21.430   3.964  50.894  1.00  0.00     0.033 C 
HETATM    8  C9  UNL     1      20.148   4.635  51.182  1.00  0.00     0.070 C 
HETATM    9  N2  UNL     1      21.904   2.957  51.874  1.00  0.00    -0.374 N 
HETATM   10  C10 UNL     1      22.942   1.868  51.755  1.00  0.00     0.096 C 
HETATM   11  C20 UNL     1      22.822   1.317  50.344  1.00  0.00     0.213 C 
HETATM   12  O2  UNL     1      22.374   2.419  49.491  1.00  0.00    -0.348 OA
HETATM   13  H9  UNL     1      25.616   2.922  50.371  1.00  0.00     0.154 HD
HETATM   14  H17 UNL     1      21.418   2.994  52.867  1.00  0.00     0.160 HD
ENDROOT
BRANCH  10  15
HETATM   15  C11 UNL     1      22.614   0.927  52.809  1.00  0.00     0.026 C 
HETATM   16  C12 UNL     1      21.649   0.157  53.243  1.00  0.00     0.043 A 
HETATM   17  C13 UNL     1      21.617  -0.747  54.423  1.00  0.00     0.256 A 
HETATM   18  C19 UNL     1      20.306  -0.005  52.691  1.00  0.00     0.006 A 
HETATM   19  O1  UNL     1      22.585  -0.942  55.236  1.00  0.00    -0.267 OA
HETATM   20  N3  UNL     1      20.334  -1.333  54.465  1.00  0.00    -0.322 N 
HETATM   21  C14 UNL     1      19.521  -0.885  53.406  1.00  0.00     0.046 A 
HETATM   22  H19 UNL     1      20.109  -2.004  55.224  1.00  0.00     0.169 HD
HETATM   23  C15 UNL     1      18.220  -1.239  53.145  1.00  0.00     0.030 A 
HETATM   24  C16 UNL     1      17.603  -0.670  52.054  1.00  0.00     0.002 A 
HETATM   25  C17 UNL     1      18.314   0.224  51.281  1.00  0.00     0.001 A 
HETATM   26  C18 UNL     1      19.615   0.520  51.620  1.00  0.00     0.014 A 
ENDBRANCH  10  15
BRANCH   1  27
HETATM   27  C2  UNL     1      25.313   1.331  52.068  1.00  0.00     0.029 C 
HETATM   28  C1  UNL     1      26.592   1.696  51.322  1.00  0.00     0.007 C 
ENDBRANCH   1  27
TORSDOF 2
ENDMDL
MODEL 3
REMARK VINA RESULT:      -7.9      2.205      4.525
REMARK  2 active torsions:
REMARK  status: ('A' for Active; 'I' for Inactive)
REMARK    1  A    between atoms: C2_2  and  C3_3 
REMARK    2  A    between atoms: C10_12  and  C11_13 
ROOT
HETATM    1  C3  UNL     1      23.805   3.835  49.931  1.00  0.00     0.053 C 
HETATM    2  C4  UNL     1      24.171   4.749  51.092  1.00  0.00     0.041 C 
HETATM    3  N1  UNL     1      23.189   4.533  48.869  1.00  0.00    -0.401 N 
HETATM    4  C5  UNL     1      21.751   4.689  48.855  1.00  0.00     0.132 C 
HETATM    5  C6  UNL     1      21.469   6.111  49.221  1.00  0.00     0.039 C 
HETATM    6  C7  UNL     1      21.143   3.637  49.727  1.00  0.00     0.090 C 
HETATM    7  C8  UNL     1      20.567   3.551  50.911  1.00  0.00     0.033 C 
HETATM    8  C9  UNL     1      19.526   3.606  51.955  1.00  0.00     0.070 C 
HETATM    9  N2  UNL     1      21.929   3.142  51.330  1.00  0.00    -0.374 N 
HETATM   10  C10 UNL     1      23.112   2.657  50.527  1.00  0.00     0.096 C 
HETATM   11  C20 UNL     1      22.545   1.792  49.415  1.00  0.00     0.213 C 
HETATM   12  O2  UNL     1      21.221   2.324  49.090  1.00  0.00    -0.348 OA
HETATM   13  H9  UNL     1      23.604   4.452  47.938  1.00  0.00     0.154 HD
HETATM   14  H17 UNL     1      22.125   3.189  52.418  1.00  0.00     0.160 HD
ENDROOT
BRANCH  10  15
HETATM   15  C11 UNL     1      23.945   1.955  51.485  1.00  0.00     0.026 C 
HETATM   16  C12 UNL     1      23.901   1.038  52.416  1.00  0.00     0.043 A 
HETATM   17  C13 UNL     1      24.993   0.501  53.270  1.00  0.00     0.256 A 
HETATM   18  C19 UNL     1      22.737   0.298  52.900  1.00  0.00     0.006 A 
HETATM   19  O1  UNL     1      26.221   0.855  53.215  1.00  0.00    -0.267 OA
HETATM   20  N3  UNL     1      24.417  -0.455  54.133  1.00  0.00    -0.322 N 
HETATM   21  C14 UNL     1      23.032  -0.588  53.915  1.00  0.00     0.046 A 
HETATM   22  H19 UNL     1      25.022  -0.951  54.816  1.00  0.00     0.169 HD
HETATM   23  C15 UNL     1      22.158  -1.416  54.576  1.00  0.00     0.030 A 
HETATM   24  C16 UNL     1      20.832  -1.380  54.208  1.00  0.00     0.002 A 
HETATM   25  C17 UNL     1      20.446  -0.521  53.201  1.00  0.00     0.001 A 
HETATM   26  C18 UNL     1      21.393   0.273  52.594  1.00  0.00     0.014 A 
ENDBRANCH  10  15
BRANCH   1  27
HETATM   27  C2  UNL     1      25.136   3.360  49.339  1.00  0.00     0.029 C 
HETATM   28  C1  UNL     1      26.164   4.484  49.420  1.00  0.00     0.007 C 
ENDBRANCH   1  27
TORSDOF 2
ENDMDL
MODEL 4
REMARK VINA RESULT:      -7.9      2.185      5.839
REMARK  2 active torsions:
REMARK  status: ('A' for Active; 'I' for Inactive)
REMARK    1  A    between atoms: C2_2  and  C3_3 
REMARK    2  A    between atoms: C10_12  and  C11_13 
ROOT
HETATM    1  C3  UNL     1      26.109   2.556  51.300  1.00  0.00     0.053 C 
HETATM    2  C4  UNL     1      26.509   1.441  50.346  1.00  0.00     0.041 C 
HETATM    3  N1  UNL     1      27.173   2.960  52.136  1.00  0.00    -0.401 N 
HETATM    4  C5  UNL     1      27.370   2.301  53.409  1.00  0.00     0.132 C 
HETATM    5  C6  UNL     1      28.561   1.410  53.252  1.00  0.00     0.039 C 
HETATM    6  C7  UNL     1      26.089   1.645  53.817  1.00  0.00     0.090 C 
HETATM    7  C8  UNL     1      25.587   0.428  53.893  1.00  0.00     0.033 C 
HETATM    8  C9  UNL     1      25.282  -0.918  54.415  1.00  0.00     0.070 C 
HETATM    9  N2  UNL     1      25.005   0.794  52.579  1.00  0.00    -0.374 N 
HETATM   10  C10 UNL     1      24.817   2.137  51.916  1.00  0.00     0.096 C 
HETATM   11  C20 UNL     1      24.449   3.111  53.023  1.00  0.00     0.213 C 
HETATM   12  O2  UNL     1      25.109   2.641  54.242  1.00  0.00    -0.348 OA
HETATM   13  H9  UNL     1      27.432   3.949  52.139  1.00  0.00     0.154 HD
HETATM   14  H17 UNL     1      24.636  -0.053  51.970  1.00  0.00     0.160 HD
ENDROOT
BRANCH  10  15
HETATM   15  C11 UNL     1      23.781   1.917  50.925  1.00  0.00     0.026 C 
HETATM   16  C12 UNL     1      22.558   1.472  50.790  1.00  0.00     0.043 A 
HETATM   17  C13 UNL     1      21.715   1.374  49.569  1.00  0.00     0.256 A 
HETATM   18  C19 UNL     1      21.682   0.913  51.817  1.00  0.00     0.006 A 
HETATM   19  O1  UNL     1      22.062   1.747  48.395  1.00  0.00    -0.267 OA
HETATM   20  N3  UNL     1      20.485   0.801  49.955  1.00  0.00    -0.322 N 
HETATM   21  C14 UNL     1      20.454   0.514  51.333  1.00  0.00     0.046 A 
HETATM   22  H19 UNL     1      19.751   0.647  49.238  1.00  0.00     0.169 HD
HETATM   23  C15 UNL     1      19.424  -0.052  52.045  1.00  0.00     0.030 A 
HETATM   24  C16 UNL     1      19.609  -0.256  53.394  1.00  0.00     0.002 A 
HETATM   25  C17 UNL     1      20.809   0.113  53.963  1.00  0.00     0.001 A 
HETATM   26  C18 UNL     1      21.785   0.674  53.170  1.00  0.00     0.014 A 
ENDBRANCH  10  15
BRANCH   1  27
HETATM   27  C2  UNL     1      25.845   3.783  50.420  1.00  0.00     0.029 C 
HETATM   28  C1  UNL     1      26.880   3.844  49.300  1.00  0.00     0.007 C 
ENDBRANCH   1  27
TORSDOF 2
ENDMDL
MODEL 5
REMARK VINA RESULT:      -7.8      2.242      3.531
REMARK  2 active torsions:
REMARK  status: ('A' for Active; 'I' for Inactive)
REMARK    1  A    between atoms: C2_2  and  C3_3 
REMARK    2  A    between atoms: C10_12  and  C11_13 
ROOT
HETATM    1  C3  UNL     1      22.404   2.885  49.779  1.00  0.00     0.053 C 
HETATM    2  C4  UNL     1      23.559   2.863  48.788  1.00  0.00     0.041 C 
HETATM    3  N1  UNL     1      21.287   3.599  49.291  1.00  0.00    -0.401 N 
HETATM    4  C5  UNL     1      21.183   5.019  49.543  1.00  0.00     0.132 C 
HETATM    5  C6  UNL     1      21.492   5.709  48.253  1.00  0.00     0.039 C 
HETATM    6  C7  UNL     1      22.046   5.367  50.715  1.00  0.00     0.090 C 
HETATM    7  C8  UNL     1      23.194   5.972  50.946  1.00  0.00     0.033 C 
HETATM    8  C9  UNL     1      24.172   7.053  51.174  1.00  0.00     0.070 C 
HETATM    9  N2  UNL     1      23.706   4.581  50.955  1.00  0.00    -0.374 N 
HETATM   10  C10 UNL     1      22.989   3.260  51.098  1.00  0.00     0.096 C 
HETATM   11  C20 UNL     1      21.869   3.489  52.098  1.00  0.00     0.213 C 
HETATM   12  O2  UNL     1      21.450   4.885  51.959  1.00  0.00    -0.348 OA
HETATM   13  H9  UNL     1      20.385   3.118  49.261  1.00  0.00     0.154 HD
HETATM   14  H17 UNL     1      24.802   4.477  50.844  1.00  0.00     0.160 HD
ENDROOT
BRANCH  10  15
HETATM   15  C11 UNL     1      24.014   2.329  51.530  1.00  0.00     0.026 C 
HETATM   16  C12 UNL     1      24.204   1.282  52.290  1.00  0.00     0.043 A 
HETATM   17  C13 UNL     1      25.447   0.502  52.534  1.00  0.00     0.256 A 
HETATM   18  C19 UNL     1      23.236   0.597  53.144  1.00  0.00     0.006 A 
HETATM   19  O1  UNL     1      26.585   0.730  51.997  1.00  0.00    -0.267 OA
HETATM   20  N3  UNL     1      25.126  -0.518  53.456  1.00  0.00    -0.322 N 
HETATM   21  C14 UNL     1      23.770  -0.468  53.837  1.00  0.00     0.046 A 
HETATM   22  H19 UNL     1      25.867  -1.178  53.759  1.00  0.00     0.169 HD
HETATM   23  C15 UNL     1      23.120  -1.297  54.718  1.00  0.00     0.030 A 
HETATM   24  C16 UNL     1      21.784  -1.064  54.957  1.00  0.00     0.002 A 
HETATM   25  C17 UNL     1      21.167  -0.016  54.307  1.00  0.00     0.001 A 
HETATM   26  C18 UNL     1      21.900   0.763  53.440  1.00  0.00     0.014 A 
ENDBRANCH  10  15
BRANCH   1  27
HETATM   27  C2  UNL     1      21.906   1.438  49.869  1.00  0.00     0.029 C 
HETATM   28  C1  UNL     1      20.467   1.357  49.368  1.00  0.00     0.007 C 
ENDBRANCH   1  27
TORSDOF 2
ENDMDL
MODEL 6
REMARK VINA RESULT:      -7.8      7.241     11.032
REMARK  2 active torsions:
REMARK  status: ('A' for Active; 'I' for Inactive)
REMARK    1  A    between atoms: C2_2  and  C3_3 
REMARK    2  A    between atoms: C10_12  and  C11_13 
ROOT
HETATM    1  C3  UNL     1      33.778   6.344  46.831  1.00  0.00     0.053 C 
HETATM    2  C4  UNL     1      33.683   6.427  45.314  1.00  0.00     0.041 C 
HETATM    3  N1  UNL     1      34.841   5.518  47.260  1.00  0.00    -0.401 N 
HETATM    4  C5  UNL     1      34.610   4.104  47.462  1.00  0.00     0.132 C 
HETATM    5  C6  UNL     1      35.254   3.395  46.313  1.00  0.00     0.039 C 
HETATM    6  C7  UNL     1      33.144   3.877  47.654  1.00  0.00     0.090 C 
HETATM    7  C8  UNL     1      32.126   3.382  46.976  1.00  0.00     0.033 C 
HETATM    8  C9  UNL     1      31.189   2.399  46.400  1.00  0.00     0.070 C 
HETATM    9  N2  UNL     1      31.886   4.812  46.666  1.00  0.00    -0.374 N 
HETATM   10  C10 UNL     1      32.398   6.070  47.323  1.00  0.00     0.096 C 
HETATM   11  C20 UNL     1      32.444   5.783  48.814  1.00  0.00     0.213 C 
HETATM   12  O2  UNL     1      32.712   4.352  48.966  1.00  0.00    -0.348 OA
HETATM   13  H9  UNL     1      35.531   5.918  47.900  1.00  0.00     0.154 HD
HETATM   14  H17 UNL     1      31.211   5.006  45.810  1.00  0.00     0.160 HD
ENDROOT
BRANCH  10  15
HETATM   15  C11 UNL     1      31.458   7.102  46.927  1.00  0.00     0.026 C 
HETATM   16  C12 UNL     1      30.195   7.434  47.004  1.00  0.00     0.043 A 
HETATM   17  C13 UNL     1      29.496   8.632  46.468  1.00  0.00     0.256 A 
HETATM   18  C19 UNL     1      29.102   6.689  47.626  1.00  0.00     0.006 A 
HETATM   19  O1  UNL     1      30.050   9.590  45.828  1.00  0.00    -0.267 OA
HETATM   20  N3  UNL     1      28.131   8.502  46.800  1.00  0.00    -0.322 N 
HETATM   21  C14 UNL     1      27.877   7.312  47.511  1.00  0.00     0.046 A 
HETATM   22  H19 UNL     1      27.466   9.245  46.511  1.00  0.00     0.169 HD
HETATM   23  C15 UNL     1      26.668   6.863  47.982  1.00  0.00     0.030 A 
HETATM   24  C16 UNL     1      26.643   5.658  48.648  1.00  0.00     0.002 A 
HETATM   25  C17 UNL     1      27.824   4.964  48.809  1.00  0.00     0.001 A 
HETATM   26  C18 UNL     1      28.990   5.493  48.302  1.00  0.00     0.014 A 
ENDBRANCH  10  15
BRANCH   1  27
HETATM   27  C2  UNL     1      34.187   7.745  47.300  1.00  0.00     0.029 C 
HETATM   28  C1  UNL     1      35.344   7.639  48.288  1.00  0.00     0.007 C 
ENDBRANCH   1  27
TORSDOF 2
ENDMDL
MODEL 7
REMARK VINA RESULT:      -7.7      2.355      4.418
REMARK  2 active torsions:
REMARK  status: ('A' for Active; 'I' for Inactive)
REMARK    1  A    between atoms: C2_2  and  C3_3 
REMARK    2  A    between atoms: C10_12  and  C11_13 
ROOT
HETATM    1  C3  UNL     1      21.283   0.307  52.971  1.00  0.00     0.053 C 
HETATM    2  C4  UNL     1      21.699  -1.043  52.404  1.00  0.00     0.041 C 
HETATM    3  N1  UNL     1      19.880   0.447  53.056  1.00  0.00    -0.401 N 
HETATM    4  C5  UNL     1      19.148   0.992  51.933  1.00  0.00     0.132 C 
HETATM    5  C6  UNL     1      18.441  -0.155  51.284  1.00  0.00     0.039 C 
HETATM    6  C7  UNL     1      20.092   1.771  51.074  1.00  0.00     0.090 C 
HETATM    7  C8  UNL     1      20.696   1.645  49.908  1.00  0.00     0.033 C 
HETATM    8  C9  UNL     1      20.918   1.674  48.450  1.00  0.00     0.070 C 
HETATM    9  N2  UNL     1      21.819   1.180  50.756  1.00  0.00    -0.374 N 
HETATM   10  C10 UNL     1      22.076   1.333  52.236  1.00  0.00     0.096 C 
HETATM   11  C20 UNL     1      21.576   2.718  52.613  1.00  0.00     0.213 C 
HETATM   12  O2  UNL     1      20.462   3.030  51.717  1.00  0.00    -0.348 OA
HETATM   13  H9  UNL     1      19.475   0.683  53.965  1.00  0.00     0.154 HD
HETATM   14  H17 UNL     1      22.618   0.628  50.226  1.00  0.00     0.160 HD
ENDROOT
BRANCH  10  15
HETATM   15  C11 UNL     1      23.505   1.136  52.385  1.00  0.00     0.026 C 
HETATM   16  C12 UNL     1      24.659   1.585  51.965  1.00  0.00     0.043 A 
HETATM   17  C13 UNL     1      26.034   1.153  52.331  1.00  0.00     0.256 A 
HETATM   18  C19 UNL     1      24.916   2.634  50.980  1.00  0.00     0.006 A 
HETATM   19  O1  UNL     1      26.325   0.237  53.176  1.00  0.00    -0.267 OA
HETATM   20  N3  UNL     1      26.933   1.938  51.578  1.00  0.00    -0.322 N 
HETATM   21  C14 UNL     1      26.257   2.851  50.745  1.00  0.00     0.046 A 
HETATM   22  H19 UNL     1      27.954   1.788  51.692  1.00  0.00     0.169 HD
HETATM   23  C15 UNL     1      26.813   3.758  49.877  1.00  0.00     0.030 A 
HETATM   24  C16 UNL     1      25.962   4.555  49.144  1.00  0.00     0.002 A 
HETATM   25  C17 UNL     1      24.602   4.405  49.315  1.00  0.00     0.001 A 
HETATM   26  C18 UNL     1      24.135   3.468  50.210  1.00  0.00     0.014 A 
ENDBRANCH  10  15
BRANCH   1  27
HETATM   27  C2  UNL     1      21.742   0.302  54.433  1.00  0.00     0.029 C 
HETATM   28  C1  UNL     1      22.076  -1.123  54.863  1.00  0.00     0.007 C 
ENDBRANCH   1  27
TORSDOF 2
ENDMDL
MODEL 8
REMARK VINA RESULT:      -7.6      2.576      4.747
REMARK  2 active torsions:
REMARK  status: ('A' for Active; 'I' for Inactive)
REMARK    1  A    between atoms: C2_2  and  C3_3 
REMARK    2  A    between atoms: C10_12  and  C11_13 
ROOT
HETATM    1  C3  UNL     1      22.990   3.742  49.741  1.00  0.00     0.053 C 
HETATM    2  C4  UNL     1      23.017   2.753  48.584  1.00  0.00     0.041 C 
HETATM    3  N1  UNL     1      24.113   4.597  49.746  1.00  0.00    -0.401 N 
HETATM    4  C5  UNL     1      25.308   4.202  50.460  1.00  0.00     0.132 C 
HETATM    5  C6  UNL     1      26.312   3.798  49.428  1.00  0.00     0.039 C 
HETATM    6  C7  UNL     1      24.942   3.172  51.481  1.00  0.00     0.090 C 
HETATM    7  C8  UNL     1      25.074   1.871  51.659  1.00  0.00     0.033 C 
HETATM    8  C9  UNL     1      25.676   0.574  52.021  1.00  0.00     0.070 C 
HETATM    9  N2  UNL     1      23.695   1.851  51.113  1.00  0.00    -0.374 N 
HETATM   10  C10 UNL     1      22.671   2.950  50.963  1.00  0.00     0.096 C 
HETATM   11  C20 UNL     1      22.814   3.836  52.188  1.00  0.00     0.213 C 
HETATM   12  O2  UNL     1      24.219   3.779  52.596  1.00  0.00    -0.348 OA
HETATM   13  H9  UNL     1      23.949   5.607  49.746  1.00  0.00     0.154 HD
HETATM   14  H17 UNL     1      23.340   0.866  50.755  1.00  0.00     0.160 HD
ENDROOT
BRANCH  10  15
HETATM   15  C11 UNL     1      21.401   2.257  50.853  1.00  0.00     0.026 C 
HETATM   16  C12 UNL     1      20.687   1.314  51.412  1.00  0.00     0.043 A 
HETATM   17  C13 UNL     1      19.337   0.807  51.049  1.00  0.00     0.256 A 
HETATM   18  C19 UNL     1      21.041   0.467  52.550  1.00  0.00     0.006 A 
HETATM   19  O1  UNL     1      18.611   1.247  50.093  1.00  0.00    -0.267 OA
HETATM   20  N3  UNL     1      19.026  -0.234  51.950  1.00  0.00    -0.322 N 
HETATM   21  C14 UNL     1      20.065  -0.450  52.876  1.00  0.00     0.046 A 
HETATM   22  H19 UNL     1      18.115  -0.724  51.862  1.00  0.00     0.169 HD
HETATM   23  C15 UNL     1      20.104  -1.383  53.884  1.00  0.00     0.030 A 
HETATM   24  C16 UNL     1      21.231  -1.431  54.674  1.00  0.00     0.002 A 
HETATM   25  C17 UNL     1      22.259  -0.549  54.418  1.00  0.00     0.001 A 
HETATM   26  C18 UNL     1      22.131   0.352  53.385  1.00  0.00     0.014 A 
ENDBRANCH  10  15
BRANCH   1  27
HETATM   27  C2  UNL     1      21.812   4.681  49.456  1.00  0.00     0.029 C 
HETATM   28  C1  UNL     1      22.336   6.070  49.104  1.00  0.00     0.007 C 
ENDBRANCH   1  27
TORSDOF 2
ENDMDL
MODEL 9
REMARK VINA RESULT:      -7.3      4.206      5.461
REMARK  2 active torsions:
REMARK  status: ('A' for Active; 'I' for Inactive)
REMARK    1  A    between atoms: C2_2  and  C3_3 
REMARK    2  A    between atoms: C10_12  and  C11_13 
ROOT
HETATM    1  C3  UNL     1      17.499   2.357  50.267  1.00  0.00     0.053 C 
HETATM    2  C4  UNL     1      16.959   1.228  49.400  1.00  0.00     0.041 C 
HETATM    3  N1  UNL     1      17.592   3.579  49.565  1.00  0.00    -0.401 N 
HETATM    4  C5  UNL     1      18.807   3.901  48.850  1.00  0.00     0.132 C 
HETATM    5  C6  UNL     1      18.512   3.724  47.395  1.00  0.00     0.039 C 
HETATM    6  C7  UNL     1      19.928   3.085  49.412  1.00  0.00     0.090 C 
HETATM    7  C8  UNL     1      20.658   2.043  49.065  1.00  0.00     0.033 C 
HETATM    8  C9  UNL     1      21.721   1.243  48.428  1.00  0.00     0.070 C 
HETATM    9  N2  UNL     1      19.679   1.319  49.911  1.00  0.00    -0.374 N 
HETATM   10  C10 UNL     1      18.707   1.817  50.954  1.00  0.00     0.096 C 
HETATM   11  C20 UNL     1      19.412   2.944  51.689  1.00  0.00     0.213 C 
HETATM   12  O2  UNL     1      20.319   3.578  50.731  1.00  0.00    -0.348 OA
HETATM   13  H9  UNL     1      17.115   4.394  49.956  1.00  0.00     0.154 HD
HETATM   14  H17 UNL     1      19.647   0.222  49.769  1.00  0.00     0.160 HD
ENDROOT
BRANCH  10  15
HETATM   15  C11 UNL     1      18.405   0.652  51.763  1.00  0.00     0.026 C 
HETATM   16  C12 UNL     1      18.947  -0.189  52.606  1.00  0.00     0.043 A 
HETATM   17  C13 UNL     1      18.338  -1.347  53.313  1.00  0.00     0.256 A 
HETATM   18  C19 UNL     1      20.333  -0.237  53.069  1.00  0.00     0.006 A 
HETATM   19  O1  UNL     1      17.116  -1.714  53.221  1.00  0.00    -0.267 OA
HETATM   20  N3  UNL     1      19.354  -1.944  54.089  1.00  0.00    -0.322 N 
HETATM   21  C14 UNL     1      20.583  -1.271  53.946  1.00  0.00     0.046 A 
HETATM   22  H19 UNL     1      19.127  -2.778  54.664  1.00  0.00     0.169 HD
HETATM   23  C15 UNL     1      21.779  -1.582  54.545  1.00  0.00     0.030 A 
HETATM   24  C16 UNL     1      22.869  -0.791  54.257  1.00  0.00     0.002 A 
HETATM   25  C17 UNL     1      22.710   0.267  53.387  1.00  0.00     0.001 A 
HETATM   26  C18 UNL     1      21.472   0.502  52.834  1.00  0.00     0.014 A 
ENDBRANCH  10  15
BRANCH   1  27
HETATM   27  C2  UNL     1      16.422   2.620  51.325  1.00  0.00     0.029 C 
HETATM   28  C1  UNL     1      15.853   4.023  51.142  1.00  0.00     0.007 C 
ENDBRANCH   1  27
TORSDOF 2
ENDMDL
