MODEL 1
REMARK VINA RESULT:      -8.4      0.000      0.000
REMARK  3 active torsions:
REMARK  status: ('A' for Active; 'I' for Inactive)
REMARK    1  A    between atoms: C8_9  and  C9_10 
REMARK    2  A    between atoms: C9_10  and  N3_12 
REMARK    3  A    between atoms: N3_12  and  C10_13 
ROOT
HETATM    1  N1  UNL     1      22.676  -1.564  55.342  1.00  0.00    -0.196 NA
HETATM    2  C1  UNL     1      23.457  -1.040  54.677  1.00  0.00     0.072 C 
HETATM    3  C2  UNL     1      24.494  -0.359  53.827  1.00  0.00     0.094 C 
HETATM    4  C3  UNL     1      25.928  -0.435  53.829  1.00  0.00     0.093 A 
HETATM    5  C4  UNL     1      26.785   0.563  54.644  1.00  0.00     0.061 A 
HETATM    6  C5  UNL     1      26.310   1.900  53.997  1.00  0.00     0.027 A 
HETATM    7  C6  UNL     1      26.662   0.899  53.094  1.00  0.00     0.050 A 
HETATM    8  C7  UNL     1      25.653   1.798  52.072  1.00  0.00     0.014 C 
HETATM    9  C8  UNL     1      24.234   1.385  51.991  1.00  0.00    -0.012 C 
HETATM   10  C16 UNL     1      23.530   0.434  52.929  1.00  0.00     0.070 C 
HETATM   11  N4  UNL     1      27.009  -0.234  52.168  1.00  0.00    -0.349 N 
HETATM   12  C17 UNL     1      26.452  -1.437  52.812  1.00  0.00     0.232 A 
HETATM   13  O1  UNL     1      26.722  -2.518  52.180  1.00  0.00    -0.273 OA
HETATM   14  H13 UNL     1      27.622  -0.406  51.262  1.00  0.00     0.163 HD
ENDROOT
BRANCH   9  15
HETATM   15  C9  UNL     1      23.136   1.741  51.047  1.00  0.00     0.126 C 
HETATM   16  N2  UNL     1      21.918   1.357  51.055  1.00  0.00    -0.283 NA
HETATM   17  H5  UNL     1      21.462   0.722  51.722  1.00  0.00     0.188 HD
BRANCH  15  18
HETATM   18  N3  UNL     1      23.428   2.634  49.981  1.00  0.00    -0.341 N 
HETATM   19  H6  UNL     1      23.237   2.300  48.989  1.00  0.00     0.167 HD
BRANCH  18  20
HETATM   20  C10 UNL     1      23.956   3.942  50.157  1.00  0.00     0.034 A 
HETATM   21  C11 UNL     1      23.445   4.872  51.006  1.00  0.00     0.029 A 
HETATM   22  C12 UNL     1      23.967   6.138  51.170  1.00  0.00     0.004 A 
HETATM   23  C13 UNL     1      25.080   6.524  50.444  1.00  0.00     0.019 A 
HETATM   24  C14 UNL     1      25.626   5.592  49.564  1.00  0.00     0.013 A 
HETATM   25 BR1  UNL     1      27.157   6.075  48.542  1.00  0.00    -0.051 Br
HETATM   26  C15 UNL     1      25.063   4.345  49.443  1.00  0.00     0.048 A 
ENDBRANCH  18  20
ENDBRANCH  15  18
ENDBRANCH   9  15
TORSDOF 3
ENDMDL
MODEL 2
REMARK VINA RESULT:      -8.3      2.116      3.387
REMARK  3 active torsions:
REMARK  status: ('A' for Active; 'I' for Inactive)
REMARK    1  A    between atoms: C8_9  and  C9_10 
REMARK    2  A    between atoms: C9_10  and  N3_12 
REMARK    3  A    between atoms: N3_12  and  C10_13 
ROOT
HETATM    1  N1  UNL     1      29.512   2.330  54.713  1.00  0.00    -0.196 NA
HETATM    2  C1  UNL     1      28.559   1.783  54.369  1.00  0.00     0.072 C 
HETATM    3  C2  UNL     1      27.327   1.047  53.919  1.00  0.00     0.094 C 
HETATM    4  C3  UNL     1      26.938  -0.330  54.050  1.00  0.00     0.093 A 
HETATM    5  C4  UNL     1      27.250  -1.362  52.939  1.00  0.00     0.061 A 
HETATM    6  C5  UNL     1      26.499  -0.693  51.747  1.00  0.00     0.027 A 
HETATM    7  C6  UNL     1      25.763  -0.794  52.926  1.00  0.00     0.050 A 
HETATM    8  C7  UNL     1      24.905   0.483  52.219  1.00  0.00     0.014 C 
HETATM    9  C8  UNL     1      25.318   1.857  52.583  1.00  0.00    -0.012 C 
HETATM   10  C16 UNL     1      26.594   2.244  53.291  1.00  0.00     0.070 C 
HETATM   11  N4  UNL     1      25.036  -0.887  54.238  1.00  0.00    -0.349 N 
HETATM   12  C17 UNL     1      26.047  -0.564  55.260  1.00  0.00     0.232 A 
HETATM   13  O1  UNL     1      25.606  -0.665  56.458  1.00  0.00    -0.273 OA
HETATM   14  H13 UNL     1      24.050  -1.220  54.619  1.00  0.00     0.163 HD
ENDROOT
BRANCH   9  15
HETATM   15  C9  UNL     1      24.670   3.186  52.387  1.00  0.00     0.126 C 
HETATM   16  N2  UNL     1      24.305   4.036  53.268  1.00  0.00    -0.283 NA
HETATM   17  H5  UNL     1      24.390   3.961  54.290  1.00  0.00     0.188 HD
BRANCH  15  18
HETATM   18  N3  UNL     1      24.412   3.620  51.059  1.00  0.00    -0.341 N 
HETATM   19  H6  UNL     1      23.457   3.400  50.644  1.00  0.00     0.167 HD
BRANCH  18  20
HETATM   20  C10 UNL     1      25.346   4.328  50.254  1.00  0.00     0.034 A 
HETATM   21  C11 UNL     1      26.407   3.760  49.624  1.00  0.00     0.029 A 
HETATM   22  C12 UNL     1      27.305   4.457  48.843  1.00  0.00     0.004 A 
HETATM   23  C13 UNL     1      27.150   5.822  48.665  1.00  0.00     0.019 A 
HETATM   24  C14 UNL     1      26.071   6.432  49.300  1.00  0.00     0.013 A 
HETATM   25 BR1  UNL     1      25.815   8.306  49.087  1.00  0.00    -0.051 Br
HETATM   26  C15 UNL     1      25.208   5.686  50.066  1.00  0.00     0.048 A 
ENDBRANCH  18  20
ENDBRANCH  15  18
ENDBRANCH   9  15
TORSDOF 3
ENDMDL
MODEL 3
REMARK VINA RESULT:      -8.2      3.415      5.925
REMARK  3 active torsions:
REMARK  status: ('A' for Active; 'I' for Inactive)
REMARK    1  A    between atoms: C8_9  and  C9_10 
REMARK    2  A    between atoms: C9_10  and  N3_12 
REMARK    3  A    between atoms: N3_12  and  C10_13 
ROOT
HETATM    1  N1  UNL     1      22.576  -1.021  53.429  1.00  0.00    -0.196 NA
HETATM    2  C1  UNL     1      22.569  -0.109  52.726  1.00  0.00     0.072 C 
HETATM    3  C2  UNL     1      22.538   1.075  51.799  1.00  0.00     0.094 C 
HETATM    4  C3  UNL     1      21.455   1.711  51.102  1.00  0.00     0.093 A 
HETATM    5  C4  UNL     1      21.080   1.307  49.656  1.00  0.00     0.061 A 
HETATM    6  C5  UNL     1      22.437   1.604  48.946  1.00  0.00     0.027 A 
HETATM    7  C6  UNL     1      21.969   2.622  49.774  1.00  0.00     0.050 A 
HETATM    8  C7  UNL     1      23.609   3.042  49.785  1.00  0.00     0.014 C 
HETATM    9  C8  UNL     1      24.434   2.509  50.892  1.00  0.00    -0.012 C 
HETATM   10  C16 UNL     1      24.038   1.409  51.846  1.00  0.00     0.070 C 
HETATM   11  N4  UNL     1      21.437   3.665  50.717  1.00  0.00    -0.349 N 
HETATM   12  C17 UNL     1      20.906   2.908  51.865  1.00  0.00     0.232 A 
HETATM   13  O1  UNL     1      20.345   3.651  52.744  1.00  0.00    -0.273 OA
HETATM   14  H13 UNL     1      21.250   4.757  50.727  1.00  0.00     0.163 HD
ENDROOT
BRANCH   9  15
HETATM   15  C9  UNL     1      25.802   2.849  51.379  1.00  0.00     0.126 C 
HETATM   16  N2  UNL     1      26.754   3.428  50.753  1.00  0.00    -0.283 NA
HETATM   17  H5  UNL     1      26.754   3.770  49.783  1.00  0.00     0.188 HD
BRANCH  15  18
HETATM   18  N3  UNL     1      26.142   2.517  52.717  1.00  0.00    -0.341 N 
HETATM   19  H6  UNL     1      25.519   2.893  53.494  1.00  0.00     0.167 HD
BRANCH  18  20
HETATM   20  C10 UNL     1      27.258   1.715  53.083  1.00  0.00     0.034 A 
HETATM   21  C11 UNL     1      28.399   2.192  53.644  1.00  0.00     0.029 A 
HETATM   22  C12 UNL     1      29.475   1.403  53.997  1.00  0.00     0.004 A 
HETATM   23  C13 UNL     1      29.427   0.036  53.782  1.00  0.00     0.019 A 
HETATM   24  C14 UNL     1      28.269  -0.481  53.207  1.00  0.00     0.013 A 
HETATM   25 BR1  UNL     1      28.154  -2.355  52.892  1.00  0.00    -0.051 Br
HETATM   26  C15 UNL     1      27.229   0.353  52.877  1.00  0.00     0.048 A 
ENDBRANCH  18  20
ENDBRANCH  15  18
ENDBRANCH   9  15
TORSDOF 3
ENDMDL
MODEL 4
REMARK VINA RESULT:      -8.2      3.654      4.939
REMARK  3 active torsions:
REMARK  status: ('A' for Active; 'I' for Inactive)
REMARK    1  A    between atoms: C8_9  and  C9_10 
REMARK    2  A    between atoms: C9_10  and  N3_12 
REMARK    3  A    between atoms: N3_12  and  C10_13 
ROOT
HETATM    1  N1  UNL     1      23.001  -1.661  55.704  1.00  0.00    -0.196 NA
HETATM    2  C1  UNL     1      23.635  -1.101  54.922  1.00  0.00     0.072 C 
HETATM    3  C2  UNL     1      24.481  -0.370  53.917  1.00  0.00     0.094 C 
HETATM    4  C3  UNL     1      25.905  -0.308  53.736  1.00  0.00     0.093 A 
HETATM    5  C4  UNL     1      26.750   0.812  54.391  1.00  0.00     0.061 A 
HETATM    6  C5  UNL     1      26.063   2.059  53.756  1.00  0.00     0.027 A 
HETATM    7  C6  UNL     1      26.400   1.049  52.857  1.00  0.00     0.050 A 
HETATM    8  C7  UNL     1      25.185   1.790  51.938  1.00  0.00     0.014 C 
HETATM    9  C8  UNL     1      23.817   1.238  52.059  1.00  0.00    -0.012 C 
HETATM   10  C16 UNL     1      23.337   0.277  53.119  1.00  0.00     0.070 C 
HETATM   11  N4  UNL     1      26.744  -0.093  51.942  1.00  0.00    -0.349 N 
HETATM   12  C17 UNL     1      26.398  -1.308  52.702  1.00  0.00     0.232 A 
HETATM   13  O1  UNL     1      26.696  -2.391  52.086  1.00  0.00    -0.273 OA
HETATM   14  H13 UNL     1      27.254  -0.255  50.972  1.00  0.00     0.163 HD
ENDROOT
BRANCH   9  15
HETATM   15  C9  UNL     1      22.579   1.435  51.251  1.00  0.00     0.126 C 
HETATM   16  N2  UNL     1      22.438   1.396  49.982  1.00  0.00    -0.283 NA
HETATM   17  H5  UNL     1      23.161   1.221  49.272  1.00  0.00     0.188 HD
BRANCH  15  18
HETATM   18  N3  UNL     1      21.362   1.693  51.936  1.00  0.00    -0.341 N 
HETATM   19  H6  UNL     1      21.377   2.414  52.719  1.00  0.00     0.167 HD
BRANCH  18  20
HETATM   20  C10 UNL     1      20.128   1.052  51.640  1.00  0.00     0.034 A 
HETATM   21  C11 UNL     1      19.348   1.340  50.565  1.00  0.00     0.029 A 
HETATM   22  C12 UNL     1      18.153   0.709  50.287  1.00  0.00     0.004 A 
HETATM   23  C13 UNL     1      17.685  -0.284  51.131  1.00  0.00     0.019 A 
HETATM   24  C14 UNL     1      18.463  -0.600  52.242  1.00  0.00     0.013 A 
HETATM   25 BR1  UNL     1      17.863  -1.958  53.432  1.00  0.00    -0.051 Br
HETATM   26  C15 UNL     1      19.645   0.062  52.468  1.00  0.00     0.048 A 
ENDBRANCH  18  20
ENDBRANCH  15  18
ENDBRANCH   9  15
TORSDOF 3
ENDMDL
MODEL 5
REMARK VINA RESULT:      -7.8      3.167      6.063
REMARK  3 active torsions:
REMARK  status: ('A' for Active; 'I' for Inactive)
REMARK    1  A    between atoms: C8_9  and  C9_10 
REMARK    2  A    between atoms: C9_10  and  N3_12 
REMARK    3  A    between atoms: N3_12  and  C10_13 
ROOT
HETATM    1  N1  UNL     1      22.302   2.532  47.140  1.00  0.00    -0.196 NA
HETATM    2  C1  UNL     1      22.454   2.649  48.276  1.00  0.00     0.072 C 
HETATM    3  C2  UNL     1      22.628   2.805  49.762  1.00  0.00     0.094 C 
HETATM    4  C3  UNL     1      21.698   2.680  50.849  1.00  0.00     0.093 A 
HETATM    5  C4  UNL     1      20.933   3.909  51.398  1.00  0.00     0.061 A 
HETATM    6  C5  UNL     1      22.143   4.801  51.813  1.00  0.00     0.027 A 
HETATM    7  C6  UNL     1      22.207   3.479  52.249  1.00  0.00     0.050 A 
HETATM    8  C7  UNL     1      23.862   3.831  52.311  1.00  0.00     0.014 C 
HETATM    9  C8  UNL     1      24.670   3.487  51.119  1.00  0.00    -0.012 C 
HETATM   10  C16 UNL     1      24.133   3.121  49.757  1.00  0.00     0.070 C 
HETATM   11  N4  UNL     1      22.244   2.031  52.650  1.00  0.00    -0.349 N 
HETATM   12  C17 UNL     1      21.733   1.296  51.479  1.00  0.00     0.232 A 
HETATM   13  O1  UNL     1      21.632   0.035  51.678  1.00  0.00    -0.273 OA
HETATM   14  H13 UNL     1      22.430   1.426  53.560  1.00  0.00     0.163 HD
ENDROOT
BRANCH   9  15
HETATM   15  C9  UNL     1      26.142   3.402  50.894  1.00  0.00     0.126 C 
HETATM   16  N2  UNL     1      26.816   3.762  49.870  1.00  0.00    -0.283 NA
HETATM   17  H5  UNL     1      26.466   4.183  49.000  1.00  0.00     0.188 HD
BRANCH  15  18
HETATM   18  N3  UNL     1      26.952   2.864  51.929  1.00  0.00    -0.341 N 
HETATM   19  H6  UNL     1      27.562   3.539  52.481  1.00  0.00     0.167 HD
BRANCH  18  20
HETATM   20  C10 UNL     1      26.996   1.486  52.275  1.00  0.00     0.034 A 
HETATM   21  C11 UNL     1      25.951   0.627  52.155  1.00  0.00     0.029 A 
HETATM   22  C12 UNL     1      26.006  -0.710  52.492  1.00  0.00     0.004 A 
HETATM   23  C13 UNL     1      27.183  -1.248  52.985  1.00  0.00     0.019 A 
HETATM   24  C14 UNL     1      28.272  -0.390  53.120  1.00  0.00     0.013 A 
HETATM   25 BR1  UNL     1      29.912  -1.082  53.795  1.00  0.00    -0.051 Br
HETATM   26  C15 UNL     1      28.157   0.932  52.768  1.00  0.00     0.048 A 
ENDBRANCH  18  20
ENDBRANCH  15  18
ENDBRANCH   9  15
TORSDOF 3
ENDMDL
MODEL 6
REMARK VINA RESULT:      -7.7      2.051      2.724
REMARK  3 active torsions:
REMARK  status: ('A' for Active; 'I' for Inactive)
REMARK    1  A    between atoms: C8_9  and  C9_10 
REMARK    2  A    between atoms: C9_10  and  N3_12 
REMARK    3  A    between atoms: N3_12  and  C10_13 
ROOT
HETATM    1  N1  UNL     1      22.241  -0.533  53.283  1.00  0.00    -0.196 NA
HETATM    2  C1  UNL     1      23.354  -0.259  53.166  1.00  0.00     0.072 C 
HETATM    3  C2  UNL     1      24.811   0.089  53.037  1.00  0.00     0.094 C 
HETATM    4  C3  UNL     1      25.987  -0.502  53.614  1.00  0.00     0.093 A 
HETATM    5  C4  UNL     1      26.580   0.023  54.944  1.00  0.00     0.061 A 
HETATM    6  C5  UNL     1      26.856   1.503  54.537  1.00  0.00     0.027 A 
HETATM    7  C6  UNL     1      27.312   0.547  53.632  1.00  0.00     0.050 A 
HETATM    8  C7  UNL     1      27.204   1.856  52.562  1.00  0.00     0.014 C 
HETATM    9  C8  UNL     1      25.947   1.996  51.794  1.00  0.00    -0.012 C 
HETATM   10  C16 UNL     1      24.653   1.270  52.065  1.00  0.00     0.070 C 
HETATM   11  N4  UNL     1      27.741  -0.527  52.670  1.00  0.00    -0.349 N 
HETATM   12  C17 UNL     1      26.642  -1.509  52.681  1.00  0.00     0.232 A 
HETATM   13  O1  UNL     1      26.878  -2.538  51.957  1.00  0.00    -0.273 OA
HETATM   14  H13 UNL     1      28.641  -0.810  52.091  1.00  0.00     0.163 HD
ENDROOT
BRANCH   9  15
HETATM   15  C9  UNL     1      25.581   2.827  50.610  1.00  0.00     0.126 C 
HETATM   16  N2  UNL     1      26.301   3.148  49.604  1.00  0.00    -0.283 NA
HETATM   17  H5  UNL     1      27.279   2.890  49.421  1.00  0.00     0.188 HD
BRANCH  15  18
HETATM   18  N3  UNL     1      24.262   3.349  50.536  1.00  0.00    -0.341 N 
HETATM   19  H6  UNL     1      23.821   3.709  51.434  1.00  0.00     0.167 HD
BRANCH  18  20
HETATM   20  C10 UNL     1      23.498   3.421  49.339  1.00  0.00     0.034 A 
HETATM   21  C11 UNL     1      22.891   2.360  48.746  1.00  0.00     0.029 A 
HETATM   22  C12 UNL     1      22.150   2.442  47.586  1.00  0.00     0.004 A 
HETATM   23  C13 UNL     1      21.991   3.665  46.955  1.00  0.00     0.019 A 
HETATM   24  C14 UNL     1      22.603   4.771  47.540  1.00  0.00     0.013 A 
HETATM   25 BR1  UNL     1      22.414   6.475  46.711  1.00  0.00    -0.051 Br
HETATM   26  C15 UNL     1      23.329   4.628  48.697  1.00  0.00     0.048 A 
ENDBRANCH  18  20
ENDBRANCH  15  18
ENDBRANCH   9  15
TORSDOF 3
ENDMDL
MODEL 7
REMARK VINA RESULT:      -7.6      3.376      6.493
REMARK  3 active torsions:
REMARK  status: ('A' for Active; 'I' for Inactive)
REMARK    1  A    between atoms: C8_9  and  C9_10 
REMARK    2  A    between atoms: C9_10  and  N3_12 
REMARK    3  A    between atoms: N3_12  and  C10_13 
ROOT
HETATM    1  N1  UNL     1      21.779   1.136  48.180  1.00  0.00    -0.196 NA
HETATM    2  C1  UNL     1      22.012   2.027  48.872  1.00  0.00     0.072 C 
HETATM    3  C2  UNL     1      22.296   3.202  49.767  1.00  0.00     0.094 C 
HETATM    4  C3  UNL     1      21.430   4.196  50.338  1.00  0.00     0.093 A 
HETATM    5  C4  UNL     1      21.174   5.546  49.625  1.00  0.00     0.061 A 
HETATM    6  C5  UNL     1      22.639   6.077  49.545  1.00  0.00     0.027 A 
HETATM    7  C6  UNL     1      22.250   5.602  50.796  1.00  0.00     0.050 A 
HETATM    8  C7  UNL     1      23.924   5.425  50.984  1.00  0.00     0.014 C 
HETATM    9  C8  UNL     1      24.504   4.105  50.653  1.00  0.00    -0.012 C 
HETATM   10  C16 UNL     1      23.813   2.993  49.901  1.00  0.00     0.070 C 
HETATM   11  N4  UNL     1      21.790   5.032  52.109  1.00  0.00    -0.349 N 
HETATM   12  C17 UNL     1      21.001   3.839  51.753  1.00  0.00     0.232 A 
HETATM   13  O1  UNL     1      20.469   3.265  52.766  1.00  0.00    -0.273 OA
HETATM   14  H13 UNL     1      21.790   5.313  53.181  1.00  0.00     0.163 HD
ENDROOT
BRANCH   9  15
HETATM   15  C9  UNL     1      25.839   3.497  50.924  1.00  0.00     0.126 C 
HETATM   16  N2  UNL     1      26.842   3.387  50.141  1.00  0.00    -0.283 NA
HETATM   17  H5  UNL     1      26.917   3.700  49.165  1.00  0.00     0.188 HD
BRANCH  15  18
HETATM   18  N3  UNL     1      26.085   2.963  52.217  1.00  0.00    -0.341 N 
HETATM   19  H6  UNL     1      26.075   3.636  53.041  1.00  0.00     0.167 HD
BRANCH  18  20
HETATM   20  C10 UNL     1      26.341   1.589  52.478  1.00  0.00     0.034 A 
HETATM   21  C11 UNL     1      25.415   0.600  52.381  1.00  0.00     0.029 A 
HETATM   22  C12 UNL     1      25.676  -0.730  52.635  1.00  0.00     0.004 A 
HETATM   23  C13 UNL     1      26.948  -1.123  53.014  1.00  0.00     0.019 A 
HETATM   24  C14 UNL     1      27.919  -0.131  53.122  1.00  0.00     0.013 A 
HETATM   25 BR1  UNL     1      29.684  -0.620  53.640  1.00  0.00    -0.051 Br
HETATM   26  C15 UNL     1      27.601   1.179  52.857  1.00  0.00     0.048 A 
ENDBRANCH  18  20
ENDBRANCH  15  18
ENDBRANCH   9  15
TORSDOF 3
ENDMDL
MODEL 8
REMARK VINA RESULT:      -7.6      3.447      6.584
REMARK  3 active torsions:
REMARK  status: ('A' for Active; 'I' for Inactive)
REMARK    1  A    between atoms: C8_9  and  C9_10 
REMARK    2  A    between atoms: C9_10  and  N3_12 
REMARK    3  A    between atoms: N3_12  and  C10_13 
ROOT
HETATM    1  N1  UNL     1      21.584   0.977  48.238  1.00  0.00    -0.196 NA
HETATM    2  C1  UNL     1      21.865   1.929  48.823  1.00  0.00     0.072 C 
HETATM    3  C2  UNL     1      22.211   3.182  49.579  1.00  0.00     0.094 C 
HETATM    4  C3  UNL     1      21.390   4.243  50.091  1.00  0.00     0.093 A 
HETATM    5  C4  UNL     1      21.113   5.519  49.260  1.00  0.00     0.061 A 
HETATM    6  C5  UNL     1      22.577   6.014  49.051  1.00  0.00     0.027 A 
HETATM    7  C6  UNL     1      22.251   5.673  50.362  1.00  0.00     0.050 A 
HETATM    8  C7  UNL     1      23.930   5.487  50.479  1.00  0.00     0.014 C 
HETATM    9  C8  UNL     1      24.475   4.129  50.252  1.00  0.00    -0.012 C 
HETATM   10  C16 UNL     1      23.731   2.960  49.654  1.00  0.00     0.070 C 
HETATM   11  N4  UNL     1      21.855   5.246  51.748  1.00  0.00    -0.349 N 
HETATM   12  C17 UNL     1      21.033   4.038  51.556  1.00  0.00     0.232 A 
HETATM   13  O1  UNL     1      20.549   3.577  52.648  1.00  0.00    -0.273 OA
HETATM   14  H13 UNL     1      21.916   5.633  52.784  1.00  0.00     0.163 HD
ENDROOT
BRANCH   9  15
HETATM   15  C9  UNL     1      25.815   3.528  50.514  1.00  0.00     0.126 C 
HETATM   16  N2  UNL     1      26.791   3.367  49.705  1.00  0.00    -0.283 NA
HETATM   17  H5  UNL     1      26.834   3.623  48.711  1.00  0.00     0.188 HD
BRANCH  15  18
HETATM   18  N3  UNL     1      26.102   3.067  51.826  1.00  0.00    -0.341 N 
HETATM   19  H6  UNL     1      26.433   3.782  52.541  1.00  0.00     0.167 HD
BRANCH  18  20
HETATM   20  C10 UNL     1      25.972   1.714  52.243  1.00  0.00     0.034 A 
HETATM   21  C11 UNL     1      26.963   0.787  52.174  1.00  0.00     0.029 A 
HETATM   22  C12 UNL     1      26.826  -0.523  52.584  1.00  0.00     0.004 A 
HETATM   23  C13 UNL     1      25.620  -0.960  53.105  1.00  0.00     0.019 A 
HETATM   24  C14 UNL     1      24.585  -0.031  53.187  1.00  0.00     0.013 A 
HETATM   25 BR1  UNL     1      22.906  -0.583  53.896  1.00  0.00    -0.051 Br
HETATM   26  C15 UNL     1      24.779   1.260  52.763  1.00  0.00     0.048 A 
ENDBRANCH  18  20
ENDBRANCH  15  18
ENDBRANCH   9  15
TORSDOF 3
ENDMDL
MODEL 9
REMARK VINA RESULT:      -7.6      4.117      6.399
REMARK  3 active torsions:
REMARK  status: ('A' for Active; 'I' for Inactive)
REMARK    1  A    between atoms: C8_9  and  C9_10 
REMARK    2  A    between atoms: C9_10  and  N3_12 
REMARK    3  A    between atoms: N3_12  and  C10_13 
ROOT
HETATM    1  N1  UNL     1      21.680   1.419  49.284  1.00  0.00    -0.196 NA
HETATM    2  C1  UNL     1      22.325   1.375  50.237  1.00  0.00     0.072 C 
HETATM    3  C2  UNL     1      23.188   1.326  51.468  1.00  0.00     0.094 C 
HETATM    4  C3  UNL     1      24.384   2.038  51.822  1.00  0.00     0.093 A 
HETATM    5  C4  UNL     1      25.786   1.451  51.528  1.00  0.00     0.061 A 
HETATM    6  C5  UNL     1      25.683   0.120  52.333  1.00  0.00     0.027 A 
HETATM    7  C6  UNL     1      25.283   1.261  53.026  1.00  0.00     0.050 A 
HETATM    8  C7  UNL     1      24.426   0.118  53.935  1.00  0.00     0.014 C 
HETATM    9  C8  UNL     1      23.024  -0.144  53.539  1.00  0.00    -0.012 C 
HETATM   10  C16 UNL     1      22.369   0.283  52.248  1.00  0.00     0.070 C 
HETATM   11  N4  UNL     1      24.820   2.520  53.705  1.00  0.00    -0.349 N 
HETATM   12  C17 UNL     1      24.092   3.270  52.666  1.00  0.00     0.232 A 
HETATM   13  O1  UNL     1      23.683   4.416  53.063  1.00  0.00    -0.273 OA
HETATM   14  H13 UNL     1      24.967   3.044  54.670  1.00  0.00     0.163 HD
ENDROOT
BRANCH   9  15
HETATM   15  C9  UNL     1      21.904  -0.855  54.221  1.00  0.00     0.126 C 
HETATM   16  N2  UNL     1      21.905  -2.007  54.773  1.00  0.00    -0.283 NA
HETATM   17  H5  UNL     1      22.689  -2.668  54.850  1.00  0.00     0.188 HD
BRANCH  15  18
HETATM   18  N3  UNL     1      20.645  -0.202  54.306  1.00  0.00    -0.341 N 
HETATM   19  H6  UNL     1      20.554   0.611  54.987  1.00  0.00     0.167 HD
BRANCH  18  20
HETATM   20  C10 UNL     1      19.503  -0.565  53.541  1.00  0.00     0.034 A 
HETATM   21  C11 UNL     1      18.668  -1.593  53.842  1.00  0.00     0.029 A 
HETATM   22  C12 UNL     1      17.562  -1.935  53.093  1.00  0.00     0.004 A 
HETATM   23  C13 UNL     1      17.248  -1.209  51.956  1.00  0.00     0.019 A 
HETATM   24  C14 UNL     1      18.087  -0.149  51.622  1.00  0.00     0.013 A 
HETATM   25 BR1  UNL     1      17.699   0.880  50.067  1.00  0.00    -0.051 Br
HETATM   26  C15 UNL     1      19.175   0.145  52.406  1.00  0.00     0.048 A 
ENDBRANCH  18  20
ENDBRANCH  15  18
ENDBRANCH   9  15
TORSDOF 3
ENDMDL
