MODEL 1
REMARK VINA RESULT:      -8.6      0.000      0.000
REMARK  0 active torsions:
REMARK  status: ('A' for Active; 'I' for Inactive)
ROOT
HETATM    1  C1  UNL     1      22.794   1.408  51.151  1.00  0.00     0.020 C 
HETATM    2  C2  UNL     1      23.804   2.428  51.679  1.00  0.00     0.009 C 
HETATM    3  C3  UNL     1      23.930   3.734  51.682  1.00  0.00     0.030 C 
HETATM    4  C4  UNL     1      23.346   5.002  51.284  1.00  0.00    -0.004 C 
HETATM    5  C5  UNL     1      23.943   6.126  51.556  1.00  0.00     0.081 C 
HETATM    6  N1  UNL     1      24.192   7.508  51.618  1.00  0.00    -0.381 N 
HETATM    7  C6  UNL     1      24.504   7.960  50.254  1.00  0.00     0.277 C 
HETATM    8  N2  UNL     1      25.514   7.114  49.779  1.00  0.00    -0.187 N 
HETATM    9  C7  UNL     1      26.364   7.298  48.873  1.00  0.00     0.327 A 
HETATM   10  N3  UNL     1      26.341   6.061  49.587  1.00  0.00     0.001 NA
HETATM   11  C8  UNL     1      26.399   4.923  48.955  1.00  0.00     0.689 C 
HETATM   12  C9  UNL     1      26.369   3.676  49.714  1.00  0.00     0.010 C 
HETATM   13  C10 UNL     1      26.314   2.960  50.823  1.00  0.00    -0.012 C 
HETATM   14  C11 UNL     1      26.269   1.842  51.821  1.00  0.00     0.032 C 
HETATM   15  C12 UNL     1      27.081   2.286  53.064  1.00  0.00     0.024 C 
HETATM   16  C13 UNL     1      26.276   1.781  53.969  1.00  0.00     0.073 C 
HETATM   17  C14 UNL     1      25.765   0.945  55.099  1.00  0.00     0.336 C 
HETATM   18  N4  UNL     1      25.030  -0.025  54.249  1.00  0.00     0.097 N 
HETATM   19  C15 UNL     1      25.781  -1.219  54.010  1.00  0.00     0.273 C 
HETATM   20  C16 UNL     1      26.985  -1.055  53.116  1.00  0.00     0.030 C 
HETATM   21  C17 UNL     1      26.706  -0.696  51.707  1.00  0.00     0.003 C 
HETATM   22  C18 UNL     1      27.038   0.695  51.331  1.00  0.00     0.021 C 
HETATM   23  C19 UNL     1      24.428   0.541  53.106  1.00  0.00     0.313 C 
HETATM   24  C20 UNL     1      24.932   1.723  52.410  1.00  0.00     0.117 C 
HETATM   25  O1  UNL     1      25.113   2.590  53.596  1.00  0.00    -0.339 OA
HETATM   26  H7  UNL     1      24.158   8.127  52.450  1.00  0.00     0.160 HD
ENDROOT
TORSDOF 0
ENDMDL
MODEL 2
REMARK VINA RESULT:      -8.5      3.482      6.330
REMARK  0 active torsions:
REMARK  status: ('A' for Active; 'I' for Inactive)
ROOT
HETATM    1  C1  UNL     1      21.438   0.234  54.418  1.00  0.00     0.020 C 
HETATM    2  C2  UNL     1      22.487   0.336  53.309  1.00  0.00     0.009 C 
HETATM    3  C3  UNL     1      23.688  -0.140  53.083  1.00  0.00     0.030 C 
HETATM    4  C4  UNL     1      24.767  -0.974  53.581  1.00  0.00    -0.004 C 
HETATM    5  C5  UNL     1      25.864  -1.124  52.898  1.00  0.00     0.081 C 
HETATM    6  N1  UNL     1      27.152  -1.564  52.548  1.00  0.00    -0.381 N 
HETATM    7  C6  UNL     1      28.103  -0.909  53.457  1.00  0.00     0.277 C 
HETATM    8  N2  UNL     1      27.822   0.462  53.402  1.00  0.00    -0.187 N 
HETATM    9  C7  UNL     1      28.550   1.449  53.669  1.00  0.00     0.327 A 
HETATM   10  N3  UNL     1      27.205   1.654  53.236  1.00  0.00     0.001 NA
HETATM   11  C8  UNL     1      26.419   2.482  53.864  1.00  0.00     0.689 C 
HETATM   12  C9  UNL     1      25.048   2.667  53.397  1.00  0.00     0.010 C 
HETATM   13  C10 UNL     1      24.026   2.441  52.591  1.00  0.00    -0.012 C 
HETATM   14  C11 UNL     1      22.686   2.450  51.919  1.00  0.00     0.032 C 
HETATM   15  C12 UNL     1      22.922   2.330  50.392  1.00  0.00     0.024 C 
HETATM   16  C13 UNL     1      21.922   1.520  50.138  1.00  0.00     0.073 C 
HETATM   17  C14 UNL     1      20.644   0.982  49.577  1.00  0.00     0.336 C 
HETATM   18  N4  UNL     1      19.833   1.217  50.798  1.00  0.00     0.097 N 
HETATM   19  C15 UNL     1      19.083   2.433  50.729  1.00  0.00     0.273 C 
HETATM   20  C16 UNL     1      19.900   3.699  50.796  1.00  0.00     0.030 C 
HETATM   21  C17 UNL     1      20.599   3.955  52.076  1.00  0.00     0.003 C 
HETATM   22  C18 UNL     1      22.066   3.772  52.043  1.00  0.00     0.021 C 
HETATM   23  C19 UNL     1      20.528   1.012  52.008  1.00  0.00     0.313 C 
HETATM   24  C20 UNL     1      21.968   1.197  52.172  1.00  0.00     0.117 C 
HETATM   25  O1  UNL     1      22.404   0.426  50.986  1.00  0.00    -0.339 OA
HETATM   26  H7  UNL     1      27.417  -2.236  51.802  1.00  0.00     0.160 HD
ENDROOT
TORSDOF 0
ENDMDL
MODEL 3
REMARK VINA RESULT:      -8.2      3.464      6.981
REMARK  0 active torsions:
REMARK  status: ('A' for Active; 'I' for Inactive)
ROOT
HETATM    1  C1  UNL     1      21.919   1.340  48.465  1.00  0.00     0.020 C 
HETATM    2  C2  UNL     1      21.986   1.775  49.930  1.00  0.00     0.009 C 
HETATM    3  C3  UNL     1      22.926   2.045  50.804  1.00  0.00     0.030 C 
HETATM    4  C4  UNL     1      24.355   2.138  51.048  1.00  0.00    -0.004 C 
HETATM    5  C5  UNL     1      24.810   2.478  52.218  1.00  0.00     0.081 C 
HETATM    6  N1  UNL     1      25.723   2.784  53.242  1.00  0.00    -0.381 N 
HETATM    7  C6  UNL     1      26.394   1.532  53.622  1.00  0.00     0.277 C 
HETATM    8  N2  UNL     1      25.378   0.603  53.881  1.00  0.00    -0.187 N 
HETATM    9  C7  UNL     1      25.394  -0.440  54.579  1.00  0.00     0.327 A 
HETATM   10  N3  UNL     1      24.198  -0.057  53.899  1.00  0.00     0.001 NA
HETATM   11  C8  UNL     1      23.514  -0.925  53.208  1.00  0.00     0.689 C 
HETATM   12  C9  UNL     1      22.297  -0.501  52.522  1.00  0.00     0.010 C 
HETATM   13  C10 UNL     1      21.379   0.380  52.166  1.00  0.00    -0.012 C 
HETATM   14  C11 UNL     1      20.185   1.061  51.567  1.00  0.00     0.032 C 
HETATM   15  C12 UNL     1      19.657   2.084  52.605  1.00  0.00     0.024 C 
HETATM   16  C13 UNL     1      19.368   3.040  51.753  1.00  0.00     0.073 C 
HETATM   17  C14 UNL     1      18.591   4.043  50.962  1.00  0.00     0.336 C 
HETATM   18  N4  UNL     1      18.532   3.240  49.715  1.00  0.00     0.097 N 
HETATM   19  C15 UNL     1      17.300   2.525  49.585  1.00  0.00     0.273 C 
HETATM   20  C16 UNL     1      17.110   1.386  50.554  1.00  0.00     0.030 C 
HETATM   21  C17 UNL     1      18.037   0.240  50.402  1.00  0.00     0.003 C 
HETATM   22  C18 UNL     1      19.069   0.117  51.454  1.00  0.00     0.021 C 
HETATM   23  C19 UNL     1      19.693   2.483  49.454  1.00  0.00     0.313 C 
HETATM   24  C20 UNL     1      20.587   1.965  50.487  1.00  0.00     0.117 C 
HETATM   25  O1  UNL     1      20.739   3.216  51.264  1.00  0.00    -0.339 OA
HETATM   26  H7  UNL     1      25.923   3.711  53.664  1.00  0.00     0.160 HD
ENDROOT
TORSDOF 0
ENDMDL
MODEL 4
REMARK VINA RESULT:      -8.1      7.542      9.456
REMARK  0 active torsions:
REMARK  status: ('A' for Active; 'I' for Inactive)
ROOT
HETATM    1  C1  UNL     1      29.809   5.441  48.036  1.00  0.00     0.020 C 
HETATM    2  C2  UNL     1      30.804   6.602  48.083  1.00  0.00     0.009 C 
HETATM    3  C3  UNL     1      30.800   7.848  48.493  1.00  0.00     0.030 C 
HETATM    4  C4  UNL     1      30.025   8.912  49.107  1.00  0.00    -0.004 C 
HETATM    5  C5  UNL     1      30.547  10.087  49.305  1.00  0.00     0.081 C 
HETATM    6  N1  UNL     1      30.662  11.432  49.698  1.00  0.00    -0.381 N 
HETATM    7  C6  UNL     1      29.829  12.230  48.787  1.00  0.00     0.277 C 
HETATM    8  N2  UNL     1      30.213  11.873  47.488  1.00  0.00    -0.187 N 
HETATM    9  C7  UNL     1      30.098  12.504  46.409  1.00  0.00     0.327 A 
HETATM   10  N3  UNL     1      30.698  11.207  46.415  1.00  0.00     0.001 NA
HETATM   11  C8  UNL     1      30.348  10.305  45.543  1.00  0.00     0.689 C 
HETATM   12  C9  UNL     1      30.978   8.988  45.578  1.00  0.00     0.010 C 
HETATM   13  C10 UNL     1      31.812   8.082  46.056  1.00  0.00    -0.012 C 
HETATM   14  C11 UNL     1      32.599   6.830  46.304  1.00  0.00     0.032 C 
HETATM   15  C12 UNL     1      34.031   7.248  46.724  1.00  0.00     0.024 C 
HETATM   16  C13 UNL     1      34.198   6.335  47.651  1.00  0.00     0.073 C 
HETATM   17  C14 UNL     1      34.750   5.166  48.402  1.00  0.00     0.336 C 
HETATM   18  N4  UNL     1      33.698   4.206  47.984  1.00  0.00     0.097 N 
HETATM   19  C15 UNL     1      34.107   3.396  46.878  1.00  0.00     0.273 C 
HETATM   20  C16 UNL     1      34.239   4.120  45.562  1.00  0.00     0.030 C 
HETATM   21  C17 UNL     1      32.984   4.651  44.981  1.00  0.00     0.003 C 
HETATM   22  C18 UNL     1      32.830   6.120  45.042  1.00  0.00     0.021 C 
HETATM   23  C19 UNL     1      32.410   4.768  47.868  1.00  0.00     0.313 C 
HETATM   24  C20 UNL     1      32.149   6.166  47.530  1.00  0.00     0.117 C 
HETATM   25  O1  UNL     1      33.087   6.782  48.496  1.00  0.00    -0.339 OA
HETATM   26  H7  UNL     1      31.212  11.821  50.488  1.00  0.00     0.160 HD
ENDROOT
TORSDOF 0
ENDMDL
MODEL 5
REMARK VINA RESULT:      -8.0      2.671      3.658
REMARK  0 active torsions:
REMARK  status: ('A' for Active; 'I' for Inactive)
ROOT
HETATM    1  C1  UNL     1      22.283   2.057  48.042  1.00  0.00     0.020 C 
HETATM    2  C2  UNL     1      22.681   3.294  48.850  1.00  0.00     0.009 C 
HETATM    3  C3  UNL     1      23.067   4.520  48.592  1.00  0.00     0.030 C 
HETATM    4  C4  UNL     1      23.363   5.498  47.560  1.00  0.00    -0.004 C 
HETATM    5  C5  UNL     1      23.758   6.698  47.872  1.00  0.00     0.081 C 
HETATM    6  N1  UNL     1      24.185   8.029  47.722  1.00  0.00    -0.381 N 
HETATM    7  C6  UNL     1      25.549   7.993  47.174  1.00  0.00     0.277 C 
HETATM    8  N2  UNL     1      26.285   7.138  48.004  1.00  0.00    -0.187 N 
HETATM    9  C7  UNL     1      27.523   7.071  48.202  1.00  0.00     0.327 A 
HETATM   10  N3  UNL     1      26.644   6.174  48.882  1.00  0.00     0.001 NA
HETATM   11  C8  UNL     1      26.899   4.897  48.933  1.00  0.00     0.689 C 
HETATM   12  C9  UNL     1      25.978   4.007  49.634  1.00  0.00     0.010 C 
HETATM   13  C10 UNL     1      24.896   3.733  50.340  1.00  0.00    -0.012 C 
HETATM   14  C11 UNL     1      23.808   3.045  51.110  1.00  0.00     0.032 C 
HETATM   15  C12 UNL     1      23.389   3.982  52.271  1.00  0.00     0.024 C 
HETATM   16  C13 UNL     1      22.098   3.756  52.201  1.00  0.00     0.073 C 
HETATM   17  C14 UNL     1      20.714   3.332  52.574  1.00  0.00     0.336 C 
HETATM   18  N4  UNL     1      20.738   2.054  51.819  1.00  0.00     0.097 N 
HETATM   19  C15 UNL     1      21.058   0.935  52.651  1.00  0.00     0.273 C 
HETATM   20  C16 UNL     1      22.480   0.888  53.150  1.00  0.00     0.030 C 
HETATM   21  C17 UNL     1      23.526   0.691  52.120  1.00  0.00     0.003 C 
HETATM   22  C18 UNL     1      24.348   1.882  51.818  1.00  0.00     0.021 C 
HETATM   23  C19 UNL     1      21.442   2.112  50.599  1.00  0.00     0.313 C 
HETATM   24  C20 UNL     1      22.564   3.012  50.337  1.00  0.00     0.117 C 
HETATM   25  O1  UNL     1      21.938   4.258  50.833  1.00  0.00    -0.339 OA
HETATM   26  H7  UNL     1      23.657   8.897  47.934  1.00  0.00     0.160 HD
ENDROOT
TORSDOF 0
ENDMDL
MODEL 6
REMARK VINA RESULT:      -7.9      2.602      6.455
REMARK  0 active torsions:
REMARK  status: ('A' for Active; 'I' for Inactive)
ROOT
HETATM    1  C1  UNL     1      23.358   2.487  48.376  1.00  0.00     0.020 C 
HETATM    2  C2  UNL     1      23.698   2.921  49.804  1.00  0.00     0.009 C 
HETATM    3  C3  UNL     1      24.728   2.829  50.610  1.00  0.00     0.030 C 
HETATM    4  C4  UNL     1      26.090   2.354  50.776  1.00  0.00    -0.004 C 
HETATM    5  C5  UNL     1      26.727   2.533  51.897  1.00  0.00     0.081 C 
HETATM    6  N1  UNL     1      27.758   2.492  52.851  1.00  0.00    -0.381 N 
HETATM    7  C6  UNL     1      27.904   1.093  53.280  1.00  0.00     0.277 C 
HETATM    8  N2  UNL     1      26.625   0.659  53.651  1.00  0.00    -0.187 N 
HETATM    9  C7  UNL     1      26.277  -0.274  54.416  1.00  0.00     0.327 A 
HETATM   10  N3  UNL     1      25.284   0.526  53.772  1.00  0.00     0.001 NA
HETATM   11  C8  UNL     1      24.265  -0.025  53.176  1.00  0.00     0.689 C 
HETATM   12  C9  UNL     1      23.269   0.821  52.525  1.00  0.00     0.010 C 
HETATM   13  C10 UNL     1      22.751   1.979  52.156  1.00  0.00    -0.012 C 
HETATM   14  C11 UNL     1      21.884   3.054  51.573  1.00  0.00     0.032 C 
HETATM   15  C12 UNL     1      21.881   4.246  52.564  1.00  0.00     0.024 C 
HETATM   16  C13 UNL     1      21.934   5.201  51.665  1.00  0.00     0.073 C 
HETATM   17  C14 UNL     1      21.562   6.397  50.848  1.00  0.00     0.336 C 
HETATM   18  N4  UNL     1      21.100   5.633  49.662  1.00  0.00     0.097 N 
HETATM   19  C15 UNL     1      19.679   5.464  49.642  1.00  0.00     0.273 C 
HETATM   20  C16 UNL     1      19.125   4.537  50.694  1.00  0.00     0.030 C 
HETATM   21  C17 UNL     1      19.508   3.111  50.574  1.00  0.00     0.003 C 
HETATM   22  C18 UNL     1      20.481   2.631  51.579  1.00  0.00     0.021 C 
HETATM   23  C19 UNL     1      21.844   4.465  49.396  1.00  0.00     0.313 C 
HETATM   24  C20 UNL     1      22.533   3.677  50.416  1.00  0.00     0.117 C 
HETATM   25  O1  UNL     1      23.223   4.795  51.098  1.00  0.00    -0.339 OA
HETATM   26  H7  UNL     1      28.338   3.279  53.199  1.00  0.00     0.160 HD
ENDROOT
TORSDOF 0
ENDMDL
MODEL 7
REMARK VINA RESULT:      -7.7      2.876      6.533
REMARK  0 active torsions:
REMARK  status: ('A' for Active; 'I' for Inactive)
ROOT
HETATM    1  C1  UNL     1      21.854   4.801  52.334  1.00  0.00     0.020 C 
HETATM    2  C2  UNL     1      22.351   3.516  51.669  1.00  0.00     0.009 C 
HETATM    3  C3  UNL     1      22.853   2.369  52.062  1.00  0.00     0.030 C 
HETATM    4  C4  UNL     1      23.254   1.555  53.195  1.00  0.00    -0.004 C 
HETATM    5  C5  UNL     1      23.753   0.366  53.019  1.00  0.00     0.081 C 
HETATM    6  N1  UNL     1      24.304  -0.892  53.316  1.00  0.00    -0.381 N 
HETATM    7  C6  UNL     1      25.667  -0.668  53.819  1.00  0.00     0.277 C 
HETATM    8  N2  UNL     1      26.308   0.142  52.873  1.00  0.00    -0.187 N 
HETATM    9  C7  UNL     1      27.531   0.296  52.635  1.00  0.00     0.327 A 
HETATM   10  N3  UNL     1      26.562   1.020  51.876  1.00  0.00     0.001 NA
HETATM   11  C8  UNL     1      26.698   2.299  51.666  1.00  0.00     0.689 C 
HETATM   12  C9  UNL     1      25.688   3.011  50.888  1.00  0.00     0.010 C 
HETATM   13  C10 UNL     1      24.573   3.100  50.184  1.00  0.00    -0.012 C 
HETATM   14  C11 UNL     1      23.415   3.587  49.366  1.00  0.00     0.032 C 
HETATM   15  C12 UNL     1      23.066   2.482  48.337  1.00  0.00     0.024 C 
HETATM   16  C13 UNL     1      21.761   2.599  48.415  1.00  0.00     0.073 C 
HETATM   17  C14 UNL     1      20.338   2.849  48.030  1.00  0.00     0.336 C 
HETATM   18  N4  UNL     1      20.255   4.206  48.627  1.00  0.00     0.097 N 
HETATM   19  C15 UNL     1      20.457   5.240  47.658  1.00  0.00     0.273 C 
HETATM   20  C16 UNL     1      21.861   5.353  47.119  1.00  0.00     0.030 C 
HETATM   21  C17 UNL     1      22.900   5.767  48.090  1.00  0.00     0.003 C 
HETATM   22  C18 UNL     1      23.834   4.700  48.510  1.00  0.00     0.021 C 
HETATM   23  C19 UNL     1      20.981   4.360  49.825  1.00  0.00     0.313 C 
HETATM   24  C20 UNL     1      22.185   3.603  50.163  1.00  0.00     0.117 C 
HETATM   25  O1  UNL     1      21.669   2.254  49.837  1.00  0.00    -0.339 OA
HETATM   26  H7  UNL     1      23.855  -1.824  53.223  1.00  0.00     0.160 HD
ENDROOT
TORSDOF 0
ENDMDL
MODEL 8
REMARK VINA RESULT:      -7.7      2.543      7.112
REMARK  0 active torsions:
REMARK  status: ('A' for Active; 'I' for Inactive)
ROOT
HETATM    1  C1  UNL     1      27.534   4.744  48.591  1.00  0.00     0.020 C 
HETATM    2  C2  UNL     1      26.285   4.899  49.462  1.00  0.00     0.009 C 
HETATM    3  C3  UNL     1      25.651   4.183  50.359  1.00  0.00     0.030 C 
HETATM    4  C4  UNL     1      25.619   2.936  51.103  1.00  0.00    -0.004 C 
HETATM    5  C5  UNL     1      24.668   2.693  51.956  1.00  0.00     0.081 C 
HETATM    6  N1  UNL     1      23.900   2.019  52.921  1.00  0.00    -0.381 N 
HETATM    7  C6  UNL     1      23.246   0.886  52.250  1.00  0.00     0.277 C 
HETATM    8  N2  UNL     1      22.601   1.413  51.124  1.00  0.00    -0.187 N 
HETATM    9  C7  UNL     1      21.631   0.967  50.465  1.00  0.00     0.327 A 
HETATM   10  N3  UNL     1      22.245   2.198  50.082  1.00  0.00     0.001 NA
HETATM   11  C8  UNL     1      22.558   2.432  48.839  1.00  0.00     0.689 C 
HETATM   12  C9  UNL     1      23.188   3.699  48.481  1.00  0.00     0.010 C 
HETATM   13  C10 UNL     1      23.678   4.898  48.741  1.00  0.00    -0.012 C 
HETATM   14  C11 UNL     1      24.305   6.256  48.639  1.00  0.00     0.032 C 
HETATM   15  C12 UNL     1      23.566   7.192  49.630  1.00  0.00     0.024 C 
HETATM   16  C13 UNL     1      24.624   7.843  50.054  1.00  0.00     0.073 C 
HETATM   17  C14 UNL     1      25.579   8.958  50.336  1.00  0.00     0.336 C 
HETATM   18  N4  UNL     1      26.513   8.643  49.226  1.00  0.00     0.097 N 
HETATM   19  C15 UNL     1      26.274   9.449  48.068  1.00  0.00     0.273 C 
HETATM   20  C16 UNL     1      24.993   9.154  47.330  1.00  0.00     0.030 C 
HETATM   21  C17 UNL     1      24.905   7.824  46.683  1.00  0.00     0.003 C 
HETATM   22  C18 UNL     1      23.997   6.860  47.340  1.00  0.00     0.021 C 
HETATM   23  C19 UNL     1      26.672   7.265  48.972  1.00  0.00     0.313 C 
HETATM   24  C20 UNL     1      25.646   6.256  49.229  1.00  0.00     0.117 C 
HETATM   25  O1  UNL     1      25.303   6.669  50.609  1.00  0.00    -0.339 OA
HETATM   26  H7  UNL     1      23.801   2.243  53.930  1.00  0.00     0.160 HD
ENDROOT
TORSDOF 0
ENDMDL
MODEL 9
REMARK VINA RESULT:      -7.7      4.155      7.412
REMARK  0 active torsions:
REMARK  status: ('A' for Active; 'I' for Inactive)
ROOT
HETATM    1  C1  UNL     1      27.454   4.796  48.647  1.00  0.00     0.020 C 
HETATM    2  C2  UNL     1      26.414   5.755  49.231  1.00  0.00     0.009 C 
HETATM    3  C3  UNL     1      25.369   5.667  50.019  1.00  0.00     0.030 C 
HETATM    4  C4  UNL     1      24.530   4.788  50.814  1.00  0.00    -0.004 C 
HETATM    5  C5  UNL     1      23.505   5.255  51.466  1.00  0.00     0.081 C 
HETATM    6  N1  UNL     1      22.368   5.287  52.290  1.00  0.00    -0.381 N 
HETATM    7  C6  UNL     1      21.282   4.607  51.568  1.00  0.00     0.277 C 
HETATM    8  N2  UNL     1      21.215   5.205  50.304  1.00  0.00    -0.187 N 
HETATM    9  C7  UNL     1      20.264   5.264  49.486  1.00  0.00     0.327 A 
HETATM   10  N3  UNL     1      21.517   5.870  49.165  1.00  0.00     0.001 NA
HETATM   11  C8  UNL     1      22.072   5.682  48.001  1.00  0.00     0.689 C 
HETATM   12  C9  UNL     1      23.355   6.313  47.705  1.00  0.00     0.010 C 
HETATM   13  C10 UNL     1      24.402   7.067  47.989  1.00  0.00    -0.012 C 
HETATM   14  C11 UNL     1      25.699   7.818  47.937  1.00  0.00     0.032 C 
HETATM   15  C12 UNL     1      25.501   9.155  48.695  1.00  0.00     0.024 C 
HETATM   16  C13 UNL     1      26.671   9.177  49.288  1.00  0.00     0.073 C 
HETATM   17  C14 UNL     1      28.043   9.611  49.694  1.00  0.00     0.336 C 
HETATM   18  N4  UNL     1      28.770   8.655  48.821  1.00  0.00     0.097 N 
HETATM   19  C15 UNL     1      29.194   9.252  47.592  1.00  0.00     0.273 C 
HETATM   20  C16 UNL     1      28.089   9.592  46.625  1.00  0.00     0.030 C 
HETATM   21  C17 UNL     1      27.346   8.444  46.056  1.00  0.00     0.003 C 
HETATM   22  C18 UNL     1      25.970   8.264  46.568  1.00  0.00     0.021 C 
HETATM   23  C19 UNL     1      28.146   7.397  48.690  1.00  0.00     0.313 C 
HETATM   24  C20 UNL     1      26.704   7.178  48.790  1.00  0.00     0.117 C 
HETATM   25  O1  UNL     1      26.475   7.935  50.042  1.00  0.00    -0.339 OA
HETATM   26  H7  UNL     1      22.279   5.693  53.242  1.00  0.00     0.160 HD
ENDROOT
TORSDOF 0
ENDMDL
