MODEL 1
REMARK VINA RESULT:      -6.8      0.000      0.000
REMARK  2 active torsions:
REMARK  status: ('A' for Active; 'I' for Inactive)
REMARK    1  A    between atoms: C3_5  and  C5_7 
REMARK       I    between atoms: C5_7  and  N2_9 
REMARK    2  A    between atoms: N2_9  and  C6_10 
ROOT
HETATM    1  C1  UNL     1      26.495   3.232  49.471  1.00  0.00     0.157 C 
HETATM    2  N1  UNL     1      25.580   3.041  50.596  1.00  0.00    -0.346 N 
HETATM    3  C2  UNL     1      24.399   3.819  50.878  1.00  0.00     0.100 C 
HETATM    4  S1  UNL     1      23.821   5.017  49.924  1.00  0.00    -0.064 SA
HETATM    5  C3  UNL     1      23.809   3.351  52.164  1.00  0.00     0.118 C 
HETATM    6  C4  UNL     1      23.572   4.499  53.123  1.00  0.00     0.036 C 
HETATM    7  C12 UNL     1      24.894   2.501  52.739  1.00  0.00     0.182 C 
HETATM    8  N3  UNL     1      24.462   1.314  53.407  1.00  0.00    -0.274 NA
HETATM    9  C13 UNL     1      25.329   0.414  53.635  1.00  0.00     0.080 C 
HETATM   10  C14 UNL     1      26.311   0.159  52.816  1.00  0.00     0.035 C 
HETATM   11  C15 UNL     1      26.418   0.932  51.584  1.00  0.00     0.030 C 
HETATM   12  C16 UNL     1      25.722   2.057  51.580  1.00  0.00     0.038 C 
ENDROOT
BRANCH   5  13
HETATM   13  C5  UNL     1      22.520   2.636  51.977  1.00  0.00     0.240 C 
HETATM   14  O1  UNL     1      21.390   3.074  52.362  1.00  0.00    -0.272 OA
HETATM   15  N2  UNL     1      22.430   1.370  51.339  1.00  0.00    -0.326 N 
HETATM   16  H7  UNL     1      23.315   0.924  50.985  1.00  0.00     0.169 HD
BRANCH  15  17
HETATM   17  C6  UNL     1      21.062   0.925  51.302  1.00  0.00     0.034 A 
HETATM   18  C7  UNL     1      20.147   1.115  50.299  1.00  0.00     0.029 A 
HETATM   19  C8  UNL     1      18.876   0.607  50.454  1.00  0.00     0.002 A 
HETATM   20  C9  UNL     1      18.497  -0.087  51.590  1.00  0.00     0.000 A 
HETATM   21  C10 UNL     1      19.431  -0.276  52.602  1.00  0.00     0.002 A 
HETATM   22  C11 UNL     1      20.689   0.233  52.437  1.00  0.00     0.029 A 
ENDBRANCH  15  17
ENDBRANCH   5  13
TORSDOF 2
ENDMDL
MODEL 2
REMARK VINA RESULT:      -6.7      2.950      5.103
REMARK  2 active torsions:
REMARK  status: ('A' for Active; 'I' for Inactive)
REMARK    1  A    between atoms: C3_5  and  C5_7 
REMARK       I    between atoms: C5_7  and  N2_9 
REMARK    2  A    between atoms: N2_9  and  C6_10 
ROOT
HETATM    1  C1  UNL     1      20.657   4.857  49.129  1.00  0.00     0.157 C 
HETATM    2  N1  UNL     1      21.843   4.745  49.980  1.00  0.00    -0.346 N 
HETATM    3  C2  UNL     1      21.893   4.175  51.304  1.00  0.00     0.100 C 
HETATM    4  S1  UNL     1      20.628   3.464  52.062  1.00  0.00    -0.064 SA
HETATM    5  C3  UNL     1      23.270   4.342  51.848  1.00  0.00     0.118 C 
HETATM    6  C4  UNL     1      23.255   4.988  53.218  1.00  0.00     0.036 C 
HETATM    7  C12 UNL     1      23.889   5.314  50.899  1.00  0.00     0.182 C 
HETATM    8  N3  UNL     1      25.259   5.074  50.574  1.00  0.00    -0.274 NA
HETATM    9  C13 UNL     1      25.738   5.664  49.555  1.00  0.00     0.080 C 
HETATM   10  C14 UNL     1      25.036   5.896  48.482  1.00  0.00     0.035 C 
HETATM   11  C15 UNL     1      23.646   5.457  48.441  1.00  0.00     0.030 C 
HETATM   12  C16 UNL     1      23.122   5.184  49.626  1.00  0.00     0.038 C 
ENDROOT
BRANCH   5  13
HETATM   13  C5  UNL     1      24.004   3.055  51.956  1.00  0.00     0.240 C 
HETATM   14  O1  UNL     1      23.767   2.027  51.245  1.00  0.00    -0.272 OA
HETATM   15  N2  UNL     1      25.059   2.849  52.884  1.00  0.00    -0.326 N 
HETATM   16  H7  UNL     1      25.330   3.643  53.519  1.00  0.00     0.169 HD
BRANCH  15  17
HETATM   17  C6  UNL     1      25.580   1.512  52.760  1.00  0.00     0.034 A 
HETATM   18  C7  UNL     1      26.554   1.069  51.905  1.00  0.00     0.029 A 
HETATM   19  C8  UNL     1      26.916  -0.259  51.939  1.00  0.00     0.002 A 
HETATM   20  C9  UNL     1      26.326  -1.157  52.812  1.00  0.00     0.000 A 
HETATM   21  C10 UNL     1      25.339  -0.700  53.677  1.00  0.00     0.002 A 
HETATM   22  C11 UNL     1      24.988   0.621  53.632  1.00  0.00     0.029 A 
ENDBRANCH  15  17
ENDBRANCH   5  13
TORSDOF 2
ENDMDL
MODEL 3
REMARK VINA RESULT:      -6.6      2.381      3.735
REMARK  2 active torsions:
REMARK  status: ('A' for Active; 'I' for Inactive)
REMARK    1  A    between atoms: C3_5  and  C5_7 
REMARK       I    between atoms: C5_7  and  N2_9 
REMARK    2  A    between atoms: N2_9  and  C6_10 
ROOT
HETATM    1  C1  UNL     1      25.979  -0.849  52.816  1.00  0.00     0.157 C 
HETATM    2  N1  UNL     1      24.949   0.187  52.727  1.00  0.00    -0.346 N 
HETATM    3  C2  UNL     1      25.126   1.525  52.219  1.00  0.00     0.100 C 
HETATM    4  S1  UNL     1      26.511   2.099  51.564  1.00  0.00    -0.064 SA
HETATM    5  C3  UNL     1      23.851   2.278  52.391  1.00  0.00     0.118 C 
HETATM    6  C4  UNL     1      24.072   3.597  53.102  1.00  0.00     0.036 C 
HETATM    7  C12 UNL     1      23.066   1.399  53.309  1.00  0.00     0.182 C 
HETATM    8  N3  UNL     1      21.667   1.312  53.033  1.00  0.00    -0.274 NA
HETATM    9  C13 UNL     1      21.017   0.359  53.567  1.00  0.00     0.080 C 
HETATM   10  C14 UNL     1      21.531  -0.823  53.758  1.00  0.00     0.035 C 
HETATM   11  C15 UNL     1      22.906  -1.069  53.338  1.00  0.00     0.030 C 
HETATM   12  C16 UNL     1      23.620   0.026  53.130  1.00  0.00     0.038 C 
ENDROOT
BRANCH   5  13
HETATM   13  C5  UNL     1      23.173   2.560  51.101  1.00  0.00     0.240 C 
HETATM   14  O1  UNL     1      22.973   3.724  50.629  1.00  0.00    -0.272 OA
HETATM   15  N2  UNL     1      22.673   1.534  50.256  1.00  0.00    -0.326 N 
HETATM   16  H7  UNL     1      22.791   0.533  50.560  1.00  0.00     0.169 HD
BRANCH  15  17
HETATM   17  C6  UNL     1      22.070   2.103  49.080  1.00  0.00     0.034 A 
HETATM   18  C7  UNL     1      22.695   2.505  47.929  1.00  0.00     0.029 A 
HETATM   19  C8  UNL     1      21.936   3.030  46.907  1.00  0.00     0.002 A 
HETATM   20  C9  UNL     1      20.561   3.162  47.009  1.00  0.00     0.000 A 
HETATM   21  C10 UNL     1      19.934   2.752  48.179  1.00  0.00     0.002 A 
HETATM   22  C11 UNL     1      20.699   2.233  49.186  1.00  0.00     0.029 A 
ENDBRANCH  15  17
ENDBRANCH   5  13
TORSDOF 2
ENDMDL
MODEL 4
REMARK VINA RESULT:      -6.6      2.623      5.547
REMARK  2 active torsions:
REMARK  status: ('A' for Active; 'I' for Inactive)
REMARK    1  A    between atoms: C3_5  and  C5_7 
REMARK       I    between atoms: C5_7  and  N2_9 
REMARK    2  A    between atoms: N2_9  and  C6_10 
ROOT
HETATM    1  C1  UNL     1      21.922   2.437  47.744  1.00  0.00     0.157 C 
HETATM    2  N1  UNL     1      22.423   2.808  49.067  1.00  0.00    -0.346 N 
HETATM    3  C2  UNL     1      22.261   2.052  50.285  1.00  0.00     0.100 C 
HETATM    4  S1  UNL     1      21.550   0.581  50.382  1.00  0.00    -0.064 SA
HETATM    5  C3  UNL     1      22.843   2.828  51.416  1.00  0.00     0.118 C 
HETATM    6  C4  UNL     1      21.861   2.972  52.560  1.00  0.00     0.036 C 
HETATM    7  C12 UNL     1      23.042   4.184  50.822  1.00  0.00     0.182 C 
HETATM    8  N3  UNL     1      24.235   4.863  51.218  1.00  0.00    -0.274 NA
HETATM    9  C13 UNL     1      24.609   5.858  50.522  1.00  0.00     0.080 C 
HETATM   10  C14 UNL     1      24.446   5.914  49.230  1.00  0.00     0.035 C 
HETATM   11  C15 UNL     1      23.815   4.789  48.551  1.00  0.00     0.030 C 
HETATM   12  C16 UNL     1      23.145   3.972  49.349  1.00  0.00     0.038 C 
ENDROOT
BRANCH   5  13
HETATM   13  C5  UNL     1      24.086   2.217  51.952  1.00  0.00     0.240 C 
HETATM   14  O1  UNL     1      24.267   1.897  53.169  1.00  0.00    -0.272 OA
HETATM   15  N2  UNL     1      25.213   1.928  51.136  1.00  0.00    -0.326 N 
HETATM   16  H7  UNL     1      25.160   2.158  50.110  1.00  0.00     0.169 HD
BRANCH  15  17
HETATM   17  C6  UNL     1      26.264   1.342  51.925  1.00  0.00     0.034 A 
HETATM   18  C7  UNL     1      26.477   0.014  52.182  1.00  0.00     0.029 A 
HETATM   19  C8  UNL     1      27.548  -0.349  52.967  1.00  0.00     0.002 A 
HETATM   20  C9  UNL     1      28.415   0.588  53.503  1.00  0.00     0.000 A 
HETATM   21  C10 UNL     1      28.194   1.934  53.237  1.00  0.00     0.002 A 
HETATM   22  C11 UNL     1      27.126   2.281  52.456  1.00  0.00     0.029 A 
ENDBRANCH  15  17
ENDBRANCH   5  13
TORSDOF 2
ENDMDL
MODEL 5
REMARK VINA RESULT:      -6.3      8.021     10.722
REMARK  2 active torsions:
REMARK  status: ('A' for Active; 'I' for Inactive)
REMARK    1  A    between atoms: C3_5  and  C5_7 
REMARK       I    between atoms: C5_7  and  N2_9 
REMARK    2  A    between atoms: N2_9  and  C6_10 
ROOT
HETATM    1  C1  UNL     1      34.047   7.167  43.911  1.00  0.00     0.157 C 
HETATM    2  N1  UNL     1      33.653   6.900  45.294  1.00  0.00    -0.346 N 
HETATM    3  C2  UNL     1      33.068   7.845  46.213  1.00  0.00     0.100 C 
HETATM    4  S1  UNL     1      32.659   9.384  45.835  1.00  0.00    -0.064 SA
HETATM    5  C3  UNL     1      32.905   7.188  47.541  1.00  0.00     0.118 C 
HETATM    6  C4  UNL     1      33.518   8.013  48.653  1.00  0.00     0.036 C 
HETATM    7  C12 UNL     1      33.721   5.945  47.401  1.00  0.00     0.182 C 
HETATM    8  N3  UNL     1      33.175   4.775  48.012  1.00  0.00    -0.274 NA
HETATM    9  C13 UNL     1      33.651   3.649  47.666  1.00  0.00     0.080 C 
HETATM   10  C14 UNL     1      34.054   3.398  46.452  1.00  0.00     0.035 C 
HETATM   11  C15 UNL     1      33.949   4.447  45.445  1.00  0.00     0.030 C 
HETATM   12  C16 UNL     1      33.789   5.665  45.937  1.00  0.00     0.038 C 
ENDROOT
BRANCH   5  13
HETATM   13  C5  UNL     1      31.482   6.939  47.886  1.00  0.00     0.240 C 
HETATM   14  O1  UNL     1      30.971   7.140  49.033  1.00  0.00    -0.272 OA
HETATM   15  N2  UNL     1      30.540   6.439  46.947  1.00  0.00    -0.326 N 
HETATM   16  H7  UNL     1      30.869   6.240  45.966  1.00  0.00     0.169 HD
BRANCH  15  17
HETATM   17  C6  UNL     1      29.247   6.299  47.562  1.00  0.00     0.034 A 
HETATM   18  C7  UNL     1      28.770   5.229  48.274  1.00  0.00     0.029 A 
HETATM   19  C8  UNL     1      27.493   5.287  48.786  1.00  0.00     0.002 A 
HETATM   20  C9  UNL     1      26.679   6.392  48.603  1.00  0.00     0.000 A 
HETATM   21  C10 UNL     1      27.170   7.473  47.880  1.00  0.00     0.002 A 
HETATM   22  C11 UNL     1      28.439   7.403  47.376  1.00  0.00     0.029 A 
ENDBRANCH  15  17
ENDBRANCH   5  13
TORSDOF 2
ENDMDL
MODEL 6
REMARK VINA RESULT:      -6.2      2.709      5.151
REMARK  2 active torsions:
REMARK  status: ('A' for Active; 'I' for Inactive)
REMARK    1  A    between atoms: C3_5  and  C5_7 
REMARK       I    between atoms: C5_7  and  N2_9 
REMARK    2  A    between atoms: N2_9  and  C6_10 
ROOT
HETATM    1  C1  UNL     1      21.086   6.371  50.489  1.00  0.00     0.157 C 
HETATM    2  N1  UNL     1      22.100   5.374  50.146  1.00  0.00    -0.346 N 
HETATM    3  C2  UNL     1      23.507   5.445  50.454  1.00  0.00     0.100 C 
HETATM    4  S1  UNL     1      24.211   6.634  51.332  1.00  0.00    -0.064 SA
HETATM    5  C3  UNL     1      24.194   4.270  49.848  1.00  0.00     0.118 C 
HETATM    6  C4  UNL     1      25.383   4.688  49.008  1.00  0.00     0.036 C 
HETATM    7  C12 UNL     1      23.160   3.721  48.921  1.00  0.00     0.182 C 
HETATM    8  N3  UNL     1      23.088   2.296  48.848  1.00  0.00    -0.274 NA
HETATM    9  C13 UNL     1      22.047   1.781  48.333  1.00  0.00     0.080 C 
HETATM   10  C14 UNL     1      20.861   2.303  48.474  1.00  0.00     0.035 C 
HETATM   11  C15 UNL     1      20.717   3.523  49.258  1.00  0.00     0.030 C 
HETATM   12  C16 UNL     1      21.846   4.185  49.456  1.00  0.00     0.038 C 
ENDROOT
BRANCH   5  13
HETATM   13  C5  UNL     1      24.669   3.296  50.864  1.00  0.00     0.240 C 
HETATM   14  O1  UNL     1      25.802   2.719  50.836  1.00  0.00    -0.272 OA
HETATM   15  N2  UNL     1      23.885   2.911  51.983  1.00  0.00    -0.326 N 
HETATM   16  H7  UNL     1      22.928   3.335  52.095  1.00  0.00     0.169 HD
BRANCH  15  17
HETATM   17  C6  UNL     1      24.601   1.959  52.792  1.00  0.00     0.034 A 
HETATM   18  C7  UNL     1      25.691   2.189  53.589  1.00  0.00     0.029 A 
HETATM   19  C8  UNL     1      26.238   1.138  54.289  1.00  0.00     0.002 A 
HETATM   20  C9  UNL     1      25.718  -0.144  54.212  1.00  0.00     0.000 A 
HETATM   21  C10 UNL     1      24.612  -0.370  53.402  1.00  0.00     0.002 A 
HETATM   22  C11 UNL     1      24.079   0.683  52.711  1.00  0.00     0.029 A 
ENDBRANCH  15  17
ENDBRANCH   5  13
TORSDOF 2
ENDMDL
MODEL 7
REMARK VINA RESULT:      -6.1      5.508      8.186
REMARK  2 active torsions:
REMARK  status: ('A' for Active; 'I' for Inactive)
REMARK    1  A    between atoms: C3_5  and  C5_7 
REMARK       I    between atoms: C5_7  and  N2_9 
REMARK    2  A    between atoms: N2_9  and  C6_10 
ROOT
HETATM    1  C1  UNL     1      17.703  -3.119  53.702  1.00  0.00     0.157 C 
HETATM    2  N1  UNL     1      17.419  -1.923  52.909  1.00  0.00    -0.346 N 
HETATM    3  C2  UNL     1      16.182  -1.621  52.232  1.00  0.00     0.100 C 
HETATM    4  S1  UNL     1      14.829  -2.540  52.307  1.00  0.00    -0.064 SA
HETATM    5  C3  UNL     1      16.347  -0.352  51.469  1.00  0.00     0.118 C 
HETATM    6  C4  UNL     1      15.934  -0.512  50.020  1.00  0.00     0.036 C 
HETATM    7  C12 UNL     1      17.825  -0.138  51.493  1.00  0.00     0.182 C 
HETATM    8  N3  UNL     1      18.250   1.217  51.651  1.00  0.00    -0.274 NA
HETATM    9  C13 UNL     1      19.458   1.423  51.989  1.00  0.00     0.080 C 
HETATM   10  C14 UNL     1      20.107   0.631  52.795  1.00  0.00     0.035 C 
HETATM   11  C15 UNL     1      19.423  -0.535  53.339  1.00  0.00     0.030 C 
HETATM   12  C16 UNL     1      18.324  -0.880  52.687  1.00  0.00     0.038 C 
ENDROOT
BRANCH   5  13
HETATM   13  C5  UNL     1      15.566   0.771  52.048  1.00  0.00     0.240 C 
HETATM   14  O1  UNL     1      15.040   0.763  53.205  1.00  0.00    -0.272 OA
HETATM   15  N2  UNL     1      15.328   1.983  51.346  1.00  0.00    -0.326 N 
HETATM   16  H7  UNL     1      15.725   2.086  50.376  1.00  0.00     0.169 HD
BRANCH  15  17
HETATM   17  C6  UNL     1      14.546   2.883  52.152  1.00  0.00     0.034 A 
HETATM   18  C7  UNL     1      14.998   3.779  53.084  1.00  0.00     0.029 A 
HETATM   19  C8  UNL     1      14.084   4.558  53.757  1.00  0.00     0.002 A 
HETATM   20  C9  UNL     1      12.723   4.462  53.518  1.00  0.00     0.000 A 
HETATM   21  C10 UNL     1      12.272   3.551  52.571  1.00  0.00     0.002 A 
HETATM   22  C11 UNL     1      13.191   2.783  51.910  1.00  0.00     0.029 A 
ENDBRANCH  15  17
ENDBRANCH   5  13
TORSDOF 2
ENDMDL
MODEL 8
REMARK VINA RESULT:      -6.1      2.625      5.212
REMARK  2 active torsions:
REMARK  status: ('A' for Active; 'I' for Inactive)
REMARK    1  A    between atoms: C3_5  and  C5_7 
REMARK       I    between atoms: C5_7  and  N2_9 
REMARK    2  A    between atoms: N2_9  and  C6_10 
ROOT
HETATM    1  C1  UNL     1      20.043   0.003  53.819  1.00  0.00     0.157 C 
HETATM    2  N1  UNL     1      20.888   0.552  52.758  1.00  0.00    -0.346 N 
HETATM    3  C2  UNL     1      20.433   1.200  51.552  1.00  0.00     0.100 C 
HETATM    4  S1  UNL     1      18.866   1.517  51.198  1.00  0.00    -0.064 SA
HETATM    5  C3  UNL     1      21.614   1.526  50.705  1.00  0.00     0.118 C 
HETATM    6  C4  UNL     1      21.448   1.009  49.291  1.00  0.00     0.036 C 
HETATM    7  C12 UNL     1      22.711   0.741  51.344  1.00  0.00     0.182 C 
HETATM    8  N3  UNL     1      23.984   1.387  51.398  1.00  0.00    -0.274 NA
HETATM    9  C13 UNL     1      24.856   0.913  52.190  1.00  0.00     0.080 C 
HETATM   10  C14 UNL     1      24.548   0.391  53.344  1.00  0.00     0.035 C 
HETATM   11  C15 UNL     1      23.148   0.353  53.748  1.00  0.00     0.030 C 
HETATM   12  C16 UNL     1      22.286   0.525  52.759  1.00  0.00     0.038 C 
ENDROOT
BRANCH   5  13
HETATM   13  C5  UNL     1      21.882   2.985  50.631  1.00  0.00     0.240 C 
HETATM   14  O1  UNL     1      21.958   3.651  49.550  1.00  0.00    -0.272 OA
HETATM   15  N2  UNL     1      22.084   3.788  51.785  1.00  0.00    -0.326 N 
HETATM   16  H7  UNL     1      22.040   3.326  52.730  1.00  0.00     0.169 HD
BRANCH  15  17
HETATM   17  C6  UNL     1      22.321   5.156  51.408  1.00  0.00     0.034 A 
HETATM   18  C7  UNL     1      21.393   6.101  51.055  1.00  0.00     0.029 A 
HETATM   19  C8  UNL     1      21.823   7.366  50.724  1.00  0.00     0.002 A 
HETATM   20  C9  UNL     1      23.165   7.711  50.737  1.00  0.00     0.000 A 
HETATM   21  C10 UNL     1      24.100   6.748  51.096  1.00  0.00     0.002 A 
HETATM   22  C11 UNL     1      23.660   5.495  51.423  1.00  0.00     0.029 A 
ENDBRANCH  15  17
ENDBRANCH   5  13
TORSDOF 2
ENDMDL
MODEL 9
REMARK VINA RESULT:      -6.1      2.443      3.659
REMARK  2 active torsions:
REMARK  status: ('A' for Active; 'I' for Inactive)
REMARK    1  A    between atoms: C3_5  and  C5_7 
REMARK       I    between atoms: C5_7  and  N2_9 
REMARK    2  A    between atoms: N2_9  and  C6_10 
ROOT
HETATM    1  C1  UNL     1      22.001   2.901  47.071  1.00  0.00     0.157 C 
HETATM    2  N1  UNL     1      21.963   3.144  48.513  1.00  0.00    -0.346 N 
HETATM    3  C2  UNL     1      20.799   3.070  49.361  1.00  0.00     0.100 C 
HETATM    4  S1  UNL     1      19.310   2.610  48.864  1.00  0.00    -0.064 SA
HETATM    5  C3  UNL     1      21.183   3.477  50.742  1.00  0.00     0.118 C 
HETATM    6  C4  UNL     1      20.268   4.557  51.283  1.00  0.00     0.036 C 
HETATM    7  C12 UNL     1      22.532   4.088  50.548  1.00  0.00     0.182 C 
HETATM    8  N3  UNL     1      23.489   3.812  51.572  1.00  0.00    -0.274 NA
HETATM    9  C13 UNL     1      24.713   4.034  51.313  1.00  0.00     0.080 C 
HETATM   10  C14 UNL     1      25.227   3.848  50.130  1.00  0.00     0.035 C 
HETATM   11  C15 UNL     1      24.368   3.360  49.058  1.00  0.00     0.030 C 
HETATM   12  C16 UNL     1      23.072   3.491  49.291  1.00  0.00     0.038 C 
ENDROOT
BRANCH   5  13
HETATM   13  C5  UNL     1      21.169   2.342  51.700  1.00  0.00     0.240 C 
HETATM   14  O1  UNL     1      20.602   2.364  52.838  1.00  0.00    -0.272 OA
HETATM   15  N2  UNL     1      21.802   1.100  51.427  1.00  0.00    -0.326 N 
HETATM   16  H7  UNL     1      22.300   0.983  50.507  1.00  0.00     0.169 HD
BRANCH  15  17
HETATM   17  C6  UNL     1      21.623   0.194  52.531  1.00  0.00     0.034 A 
HETATM   18  C7  UNL     1      20.476  -0.457  52.903  1.00  0.00     0.029 A 
HETATM   19  C8  UNL     1      20.508  -1.289  53.999  1.00  0.00     0.002 A 
HETATM   20  C9  UNL     1      21.665  -1.487  54.735  1.00  0.00     0.000 A 
HETATM   21  C10 UNL     1      22.824  -0.824  54.352  1.00  0.00     0.002 A 
HETATM   22  C11 UNL     1      22.779   0.000  53.261  1.00  0.00     0.029 A 
ENDBRANCH  15  17
ENDBRANCH   5  13
TORSDOF 2
ENDMDL
