MODEL 1
REMARK VINA RESULT:      -8.9      0.000      0.000
REMARK  6 active torsions:
REMARK  status: ('A' for Active; 'I' for Inactive)
REMARK    1  A    between atoms: C5_7  and  N3_8 
REMARK    2  A    between atoms: N3_8  and  C6_9 
REMARK    3  A    between atoms: C6_9  and  C7_10 
REMARK    4  A    between atoms: C11_17  and  C12_18 
REMARK    5  A    between atoms: C12_18  and  N7_19 
REMARK    6  A    between atoms: C15_22  and  N8_23 
ROOT
HETATM    1  C7  UNL     1      22.116   0.043  52.798  1.00  0.00     0.082 A 
HETATM    2  N4  UNL     1      20.832  -0.372  53.031  1.00  0.00    -0.241 NA
HETATM    3  C8  UNL     1      20.542  -1.136  54.077  1.00  0.00     0.255 A 
HETATM    4  N5  UNL     1      21.451  -1.544  54.953  1.00  0.00    -0.161 NA
HETATM    5  N6  UNL     1      22.702  -1.162  54.761  1.00  0.00    -0.241 N 
HETATM    6  C9  UNL     1      23.766  -1.455  55.520  1.00  0.00     0.119 A 
HETATM    7  C10 UNL     1      24.831  -0.828  54.917  1.00  0.00     0.030 A 
HETATM    8  C11 UNL     1      24.452  -0.131  53.767  1.00  0.00    -0.009 A 
HETATM    9  C18 UNL     1      23.076  -0.378  53.709  1.00  0.00     0.092 A 
ENDROOT
BRANCH   1  10
HETATM   10  C6  UNL     1      22.463   0.878  51.600  1.00  0.00     0.181 C 
BRANCH  10  11
HETATM   11  N3  UNL     1      22.260   2.277  52.004  1.00  0.00    -0.384 N 
HETATM   12  H6  UNL     1      21.505   2.505  52.723  1.00  0.00     0.160 HD
BRANCH  11  13
HETATM   13  C5  UNL     1      22.984   3.371  51.513  1.00  0.00     0.029 A 
HETATM   14  C4  UNL     1      24.219   3.218  50.928  1.00  0.00     0.046 A 
HETATM   15  C3  UNL     1      24.937   4.302  50.478  1.00  0.00     0.038 A 
HETATM   16  C2  UNL     1      26.148   4.828  49.846  1.00  0.00     0.135 A 
HETATM   17  C21 UNL     1      24.513   5.615  50.562  1.00  0.00     0.049 A 
HETATM   18  N1  UNL     1      25.677   6.176  49.950  1.00  0.00    -0.335 N 
HETATM   19  N2  UNL     1      27.255   4.355  49.353  1.00  0.00    -0.283 NA
HETATM   20  C1  UNL     1      26.178   7.482  49.600  1.00  0.00     0.158 C 
HETATM   21  H4  UNL     1      27.424   3.324  49.367  1.00  0.00     0.188 HD
HETATM   22  C20 UNL     1      23.278   5.774  51.146  1.00  0.00     0.033 A 
HETATM   23  C19 UNL     1      22.546   4.674  51.603  1.00  0.00     0.031 A 
ENDBRANCH  11  13
ENDBRANCH  10  11
ENDBRANCH   1  10
BRANCH   8  24
HETATM   24  C12 UNL     1      25.268   0.677  52.875  1.00  0.00     0.158 C 
BRANCH  24  25
HETATM   25  N7  UNL     1      26.647   0.330  53.045  1.00  0.00    -0.408 N 
HETATM   26  C13 UNL     1      27.172  -0.748  52.336  1.00  0.00     0.119 C 
HETATM   27  C14 UNL     1      28.299  -1.391  53.093  1.00  0.00     0.044 C 
HETATM   28  C15 UNL     1      29.062  -0.539  54.026  1.00  0.00     0.077 C 
HETATM   29  C16 UNL     1      28.306   0.590  54.664  1.00  0.00     0.044 C 
HETATM   30  C17 UNL     1      27.505   1.319  53.570  1.00  0.00     0.119 C 
BRANCH  28  31
HETATM   31  N8  UNL     1      30.281   0.020  53.469  1.00  0.00    -0.426 N 
HETATM   32  H19 UNL     1      30.869   0.517  54.169  1.00  0.00     0.150 HD
HETATM   33  H20 UNL     1      30.776  -0.591  52.810  1.00  0.00     0.150 HD
ENDBRANCH  28  31
ENDBRANCH  24  25
ENDBRANCH   8  24
TORSDOF 6
ENDMDL
MODEL 2
REMARK VINA RESULT:      -8.7      1.931      3.194
REMARK  6 active torsions:
REMARK  status: ('A' for Active; 'I' for Inactive)
REMARK    1  A    between atoms: C5_7  and  N3_8 
REMARK    2  A    between atoms: N3_8  and  C6_9 
REMARK    3  A    between atoms: C6_9  and  C7_10 
REMARK    4  A    between atoms: C11_17  and  C12_18 
REMARK    5  A    between atoms: C12_18  and  N7_19 
REMARK    6  A    between atoms: C15_22  and  N8_23 
ROOT
HETATM    1  C7  UNL     1      23.616   2.321  51.011  1.00  0.00     0.082 A 
HETATM    2  N4  UNL     1      22.639   2.309  50.051  1.00  0.00    -0.241 NA
HETATM    3  C8  UNL     1      21.679   1.393  50.067  1.00  0.00     0.255 A 
HETATM    4  N5  UNL     1      21.597   0.443  50.991  1.00  0.00    -0.161 NA
HETATM    5  N6  UNL     1      22.523   0.423  51.934  1.00  0.00    -0.241 N 
HETATM    6  C9  UNL     1      22.624  -0.439  52.955  1.00  0.00     0.119 A 
HETATM    7  C10 UNL     1      23.739  -0.046  53.657  1.00  0.00     0.030 A 
HETATM    8  C11 UNL     1      24.357   1.070  53.088  1.00  0.00    -0.009 A 
HETATM    9  C18 UNL     1      23.539   1.332  51.983  1.00  0.00     0.092 A 
ENDROOT
BRANCH   1  10
HETATM   10  C6  UNL     1      24.725   3.332  50.985  1.00  0.00     0.181 C 
BRANCH  10  11
HETATM   11  N3  UNL     1      24.893   3.720  49.577  1.00  0.00    -0.384 N 
HETATM   12  H6  UNL     1      24.280   3.259  48.835  1.00  0.00     0.160 HD
BRANCH  11  13
HETATM   13  C5  UNL     1      25.813   4.666  49.105  1.00  0.00     0.029 A 
HETATM   14  C4  UNL     1      27.143   4.361  48.940  1.00  0.00     0.046 A 
HETATM   15  C3  UNL     1      28.045   5.305  48.507  1.00  0.00     0.038 A 
HETATM   16  C2  UNL     1      29.423   5.653  48.154  1.00  0.00     0.135 A 
HETATM   17  C21 UNL     1      27.725   6.615  48.201  1.00  0.00     0.049 A 
HETATM   18  N1  UNL     1      29.056   7.003  47.847  1.00  0.00    -0.335 N 
HETATM   19  N2  UNL     1      30.579   5.060  48.103  1.00  0.00    -0.283 NA
HETATM   20  C1  UNL     1      29.741   8.191  47.402  1.00  0.00     0.158 C 
HETATM   21  H4  UNL     1      30.651   4.052  48.371  1.00  0.00     0.188 HD
HETATM   22  C20 UNL     1      26.396   6.925  48.364  1.00  0.00     0.033 A 
HETATM   23  C19 UNL     1      25.477   5.967  48.804  1.00  0.00     0.031 A 
ENDBRANCH  11  13
ENDBRANCH  10  11
ENDBRANCH   1  10
BRANCH   8  24
HETATM   24  C12 UNL     1      25.529   1.801  53.542  1.00  0.00     0.158 C 
BRANCH  24  25
HETATM   25  N7  UNL     1      26.687   0.967  53.419  1.00  0.00    -0.408 N 
HETATM   26  C13 UNL     1      26.776   0.075  52.352  1.00  0.00     0.119 C 
HETATM   27  C14 UNL     1      27.595  -1.128  52.725  1.00  0.00     0.044 C 
HETATM   28  C15 UNL     1      28.624  -0.951  53.768  1.00  0.00     0.077 C 
HETATM   29  C16 UNL     1      28.339   0.088  54.813  1.00  0.00     0.044 C 
HETATM   30  C17 UNL     1      27.852   1.366  54.108  1.00  0.00     0.119 C 
BRANCH  28  31
HETATM   31  N8  UNL     1      29.959  -0.693  53.257  1.00  0.00    -0.426 N 
HETATM   32  H19 UNL     1      30.435   0.107  53.722  1.00  0.00     0.150 HD
HETATM   33  H20 UNL     1      30.529  -1.531  53.093  1.00  0.00     0.150 HD
ENDBRANCH  28  31
ENDBRANCH  24  25
ENDBRANCH   8  24
TORSDOF 6
ENDMDL
MODEL 3
REMARK VINA RESULT:      -8.6      2.218      6.693
REMARK  6 active torsions:
REMARK  status: ('A' for Active; 'I' for Inactive)
REMARK    1  A    between atoms: C5_7  and  N3_8 
REMARK    2  A    between atoms: N3_8  and  C6_9 
REMARK    3  A    between atoms: C6_9  and  C7_10 
REMARK    4  A    between atoms: C11_17  and  C12_18 
REMARK    5  A    between atoms: C12_18  and  N7_19 
REMARK    6  A    between atoms: C15_22  and  N8_23 
ROOT
HETATM    1  C7  UNL     1      22.161   3.615  51.756  1.00  0.00     0.082 A 
HETATM    2  N4  UNL     1      20.905   3.591  52.300  1.00  0.00    -0.241 NA
HETATM    3  C8  UNL     1      19.831   3.776  51.542  1.00  0.00     0.255 A 
HETATM    4  N5  UNL     1      19.893   3.992  50.235  1.00  0.00    -0.161 NA
HETATM    5  N6  UNL     1      21.090   4.021  49.674  1.00  0.00    -0.241 N 
HETATM    6  C9  UNL     1      21.376   4.219  48.380  1.00  0.00     0.119 A 
HETATM    7  C10 UNL     1      22.747   4.154  48.294  1.00  0.00     0.030 A 
HETATM    8  C11 UNL     1      23.344   3.916  49.534  1.00  0.00    -0.009 A 
HETATM    9  C18 UNL     1      22.239   3.840  50.388  1.00  0.00     0.092 A 
ENDROOT
BRANCH   1  10
HETATM   10  C6  UNL     1      23.386   3.442  52.607  1.00  0.00     0.181 C 
BRANCH  10  11
HETATM   11  N3  UNL     1      23.568   1.992  52.772  1.00  0.00    -0.384 N 
HETATM   12  H6  UNL     1      22.712   1.355  52.747  1.00  0.00     0.160 HD
BRANCH  11  13
HETATM   13  C5  UNL     1      24.798   1.351  52.971  1.00  0.00     0.029 A 
HETATM   14  C4  UNL     1      25.915   2.040  53.379  1.00  0.00     0.046 A 
HETATM   15  C3  UNL     1      27.127   1.408  53.540  1.00  0.00     0.038 A 
HETATM   16  C2  UNL     1      28.545   1.489  53.892  1.00  0.00     0.135 A 
HETATM   17  C21 UNL     1      27.345   0.062  53.317  1.00  0.00     0.049 A 
HETATM   18  N1  UNL     1      28.736   0.090  53.651  1.00  0.00    -0.335 N 
HETATM   19  N2  UNL     1      29.386   2.401  54.281  1.00  0.00    -0.283 NA
HETATM   20  C1  UNL     1      29.841  -0.834  53.712  1.00  0.00     0.158 C 
HETATM   21  H4  UNL     1      29.056   3.386  54.402  1.00  0.00     0.188 HD
HETATM   22  C20 UNL     1      26.231  -0.632  52.909  1.00  0.00     0.033 A 
HETATM   23  C19 UNL     1      24.999   0.007  52.745  1.00  0.00     0.031 A 
ENDBRANCH  11  13
ENDBRANCH  10  11
ENDBRANCH   1  10
BRANCH   8  24
HETATM   24  C12 UNL     1      24.753   3.751  49.857  1.00  0.00     0.158 C 
BRANCH  24  25
HETATM   25  N7  UNL     1      25.403   5.026  49.815  1.00  0.00    -0.408 N 
HETATM   26  C13 UNL     1      24.937   6.057  50.628  1.00  0.00     0.119 C 
HETATM   27  C14 UNL     1      25.201   7.397  50.001  1.00  0.00     0.044 C 
HETATM   28  C15 UNL     1      26.347   7.500  49.078  1.00  0.00     0.077 C 
HETATM   29  C16 UNL     1      26.699   6.256  48.315  1.00  0.00     0.044 C 
HETATM   30  C17 UNL     1      26.714   5.071  49.296  1.00  0.00     0.119 C 
BRANCH  28  31
HETATM   31  N8  UNL     1      27.570   7.989  49.691  1.00  0.00    -0.426 N 
HETATM   32  H19 UNL     1      27.421   8.437  50.618  1.00  0.00     0.150 HD
HETATM   33  H20 UNL     1      28.376   7.358  49.613  1.00  0.00     0.150 HD
ENDBRANCH  28  31
ENDBRANCH  24  25
ENDBRANCH   8  24
TORSDOF 6
ENDMDL
MODEL 4
REMARK VINA RESULT:      -8.6      2.053      3.564
REMARK  6 active torsions:
REMARK  status: ('A' for Active; 'I' for Inactive)
REMARK    1  A    between atoms: C5_7  and  N3_8 
REMARK    2  A    between atoms: N3_8  and  C6_9 
REMARK    3  A    between atoms: C6_9  and  C7_10 
REMARK    4  A    between atoms: C11_17  and  C12_18 
REMARK    5  A    between atoms: C12_18  and  N7_19 
REMARK    6  A    between atoms: C15_22  and  N8_23 
ROOT
HETATM    1  C7  UNL     1      22.106   4.018  52.032  1.00  0.00     0.082 A 
HETATM    2  N4  UNL     1      20.805   4.350  51.767  1.00  0.00    -0.241 NA
HETATM    3  C8  UNL     1      19.848   3.431  51.789  1.00  0.00     0.255 A 
HETATM    4  N5  UNL     1      20.076   2.152  52.063  1.00  0.00    -0.161 NA
HETATM    5  N6  UNL     1      21.321   1.793  52.325  1.00  0.00    -0.241 N 
HETATM    6  C9  UNL     1      21.766   0.567  52.627  1.00  0.00     0.119 A 
HETATM    7  C10 UNL     1      23.121   0.705  52.819  1.00  0.00     0.030 A 
HETATM    8  C11 UNL     1      23.549   2.023  52.638  1.00  0.00    -0.009 A 
HETATM    9  C18 UNL     1      22.356   2.682  52.321  1.00  0.00     0.092 A 
ENDROOT
BRANCH   1  10
HETATM   10  C6  UNL     1      23.202   5.042  51.977  1.00  0.00     0.181 C 
BRANCH  10  11
HETATM   11  N3  UNL     1      23.577   5.164  50.561  1.00  0.00    -0.384 N 
HETATM   12  H6  UNL     1      22.947   4.729  49.817  1.00  0.00     0.160 HD
BRANCH  11  13
HETATM   13  C5  UNL     1      24.722   5.815  50.083  1.00  0.00     0.029 A 
HETATM   14  C4  UNL     1      25.109   7.045  50.561  1.00  0.00     0.046 A 
HETATM   15  C3  UNL     1      26.216   7.692  50.064  1.00  0.00     0.038 A 
HETATM   16  C2  UNL     1      27.101   8.857  50.082  1.00  0.00     0.135 A 
HETATM   17  C21 UNL     1      27.032   7.194  49.064  1.00  0.00     0.049 A 
HETATM   18  N1  UNL     1      27.924   8.313  49.045  1.00  0.00    -0.335 N 
HETATM   19  N2  UNL     1      27.195   9.980  50.734  1.00  0.00    -0.283 NA
HETATM   20  C1  UNL     1      29.099   8.732  48.323  1.00  0.00     0.158 C 
HETATM   21  H4  UNL     1      26.486  10.208  51.468  1.00  0.00     0.188 HD
HETATM   22  C20 UNL     1      26.651   5.965  48.583  1.00  0.00     0.033 A 
HETATM   23  C19 UNL     1      25.526   5.306  49.087  1.00  0.00     0.031 A 
ENDBRANCH  11  13
ENDBRANCH  10  11
ENDBRANCH   1  10
BRANCH   8  24
HETATM   24  C12 UNL     1      24.884   2.580  52.778  1.00  0.00     0.158 C 
BRANCH  24  25
HETATM   25  N7  UNL     1      25.829   1.517  52.946  1.00  0.00    -0.408 N 
HETATM   26  C13 UNL     1      26.438   0.961  51.823  1.00  0.00     0.119 C 
HETATM   27  C14 UNL     1      26.792  -0.479  52.062  1.00  0.00     0.044 C 
HETATM   28  C15 UNL     1      27.048  -0.893  53.455  1.00  0.00     0.077 C 
HETATM   29  C16 UNL     1      26.304  -0.140  54.519  1.00  0.00     0.044 C 
HETATM   30  C17 UNL     1      26.418   1.366  54.220  1.00  0.00     0.119 C 
BRANCH  28  31
HETATM   31  N8  UNL     1      28.451  -0.897  53.832  1.00  0.00    -0.426 N 
HETATM   32  H19 UNL     1      28.907  -1.826  53.727  1.00  0.00     0.150 HD
HETATM   33  H20 UNL     1      28.989  -0.085  53.511  1.00  0.00     0.150 HD
ENDBRANCH  28  31
ENDBRANCH  24  25
ENDBRANCH   8  24
TORSDOF 6
ENDMDL
MODEL 5
REMARK VINA RESULT:      -8.6      1.709      6.491
REMARK  6 active torsions:
REMARK  status: ('A' for Active; 'I' for Inactive)
REMARK    1  A    between atoms: C5_7  and  N3_8 
REMARK    2  A    between atoms: N3_8  and  C6_9 
REMARK    3  A    between atoms: C6_9  and  C7_10 
REMARK    4  A    between atoms: C11_17  and  C12_18 
REMARK    5  A    between atoms: C12_18  and  N7_19 
REMARK    6  A    between atoms: C15_22  and  N8_23 
ROOT
HETATM    1  C7  UNL     1      23.754   4.758  51.454  1.00  0.00     0.082 A 
HETATM    2  N4  UNL     1      23.529   6.091  51.238  1.00  0.00    -0.241 NA
HETATM    3  C8  UNL     1      24.314   6.794  50.431  1.00  0.00     0.255 A 
HETATM    4  N5  UNL     1      25.351   6.269  49.790  1.00  0.00    -0.161 NA
HETATM    5  N6  UNL     1      25.600   4.984  49.974  1.00  0.00    -0.241 N 
HETATM    6  C9  UNL     1      26.585   4.261  49.425  1.00  0.00     0.119 A 
HETATM    7  C10 UNL     1      26.422   2.986  49.915  1.00  0.00     0.030 A 
HETATM    8  C11 UNL     1      25.331   2.889  50.781  1.00  0.00    -0.009 A 
HETATM    9  C18 UNL     1      24.837   4.198  50.787  1.00  0.00     0.092 A 
ENDROOT
BRANCH   1  10
HETATM   10  C6  UNL     1      22.894   3.960  52.390  1.00  0.00     0.181 C 
BRANCH  10  11
HETATM   11  N3  UNL     1      21.765   3.466  51.588  1.00  0.00    -0.384 N 
HETATM   12  H6  UNL     1      21.537   3.945  50.662  1.00  0.00     0.160 HD
BRANCH  11  13
HETATM   13  C5  UNL     1      20.934   2.394  51.939  1.00  0.00     0.029 A 
HETATM   14  C4  UNL     1      21.333   1.433  52.839  1.00  0.00     0.046 A 
HETATM   15  C3  UNL     1      20.523   0.367  53.154  1.00  0.00     0.038 A 
HETATM   16  C2  UNL     1      20.315  -0.868  53.912  1.00  0.00     0.135 A 
HETATM   17  C21 UNL     1      19.266   0.152  52.621  1.00  0.00     0.049 A 
HETATM   18  N1  UNL     1      19.017  -1.060  53.339  1.00  0.00    -0.335 N 
HETATM   19  N2  UNL     1      20.970  -1.583  54.778  1.00  0.00    -0.283 NA
HETATM   20  C1  UNL     1      17.968  -2.044  53.446  1.00  0.00     0.158 C 
HETATM   21  H4  UNL     1      21.923  -1.277  55.081  1.00  0.00     0.188 HD
HETATM   22  C20 UNL     1      18.862   1.109  51.721  1.00  0.00     0.033 A 
HETATM   23  C19 UNL     1      19.683   2.194  51.399  1.00  0.00     0.031 A 
ENDBRANCH  11  13
ENDBRANCH  10  11
ENDBRANCH   1  10
BRANCH   8  24
HETATM   24  C12 UNL     1      24.811   1.721  51.475  1.00  0.00     0.158 C 
BRANCH  24  25
HETATM   25  N7  UNL     1      25.772   1.274  52.439  1.00  0.00    -0.408 N 
HETATM   26  C13 UNL     1      26.262   2.175  53.382  1.00  0.00     0.119 C 
HETATM   27  C14 UNL     1      27.658   1.808  53.799  1.00  0.00     0.044 C 
HETATM   28  C15 UNL     1      28.043   0.387  53.706  1.00  0.00     0.077 C 
HETATM   29  C16 UNL     1      27.370  -0.415  52.630  1.00  0.00     0.044 C 
HETATM   30  C17 UNL     1      25.861  -0.115  52.671  1.00  0.00     0.119 C 
BRANCH  28  31
HETATM   31  N8  UNL     1      27.903  -0.355  54.947  1.00  0.00    -0.426 N 
HETATM   32  H19 UNL     1      28.757  -0.338  55.541  1.00  0.00     0.150 HD
HETATM   33  H20 UNL     1      27.008  -0.225  55.431  1.00  0.00     0.150 HD
ENDBRANCH  28  31
ENDBRANCH  24  25
ENDBRANCH   8  24
TORSDOF 6
ENDMDL
MODEL 6
REMARK VINA RESULT:      -8.5      1.920      6.332
REMARK  6 active torsions:
REMARK  status: ('A' for Active; 'I' for Inactive)
REMARK    1  A    between atoms: C5_7  and  N3_8 
REMARK    2  A    between atoms: N3_8  and  C6_9 
REMARK    3  A    between atoms: C6_9  and  C7_10 
REMARK    4  A    between atoms: C11_17  and  C12_18 
REMARK    5  A    between atoms: C12_18  and  N7_19 
REMARK    6  A    between atoms: C15_22  and  N8_23 
ROOT
HETATM    1  C7  UNL     1      21.561   1.247  51.965  1.00  0.00     0.082 A 
HETATM    2  N4  UNL     1      20.308   0.743  52.189  1.00  0.00    -0.241 NA
HETATM    3  C8  UNL     1      19.424   0.653  51.204  1.00  0.00     0.255 A 
HETATM    4  N5  UNL     1      19.681   1.034  49.959  1.00  0.00    -0.161 NA
HETATM    5  N6  UNL     1      20.882   1.526  49.705  1.00  0.00    -0.241 N 
HETATM    6  C9  UNL     1      21.348   1.962  48.527  1.00  0.00     0.119 A 
HETATM    7  C10 UNL     1      22.640   2.366  48.770  1.00  0.00     0.030 A 
HETATM    8  C11 UNL     1      23.006   2.190  50.107  1.00  0.00    -0.009 A 
HETATM    9  C18 UNL     1      21.843   1.649  50.666  1.00  0.00     0.092 A 
ENDROOT
BRANCH   1  10
HETATM   10  C6  UNL     1      22.559   1.386  53.078  1.00  0.00     0.181 C 
BRANCH  10  11
HETATM   11  N3  UNL     1      23.335   0.137  53.091  1.00  0.00    -0.384 N 
HETATM   12  H6  UNL     1      22.820  -0.795  53.022  1.00  0.00     0.160 HD
BRANCH  11  13
HETATM   13  C5  UNL     1      24.730   0.055  53.194  1.00  0.00     0.029 A 
HETATM   14  C4  UNL     1      25.402  -1.127  52.993  1.00  0.00     0.046 A 
HETATM   15  C3  UNL     1      26.769  -1.206  53.128  1.00  0.00     0.038 A 
HETATM   16  C2  UNL     1      27.989  -2.013  53.079  1.00  0.00     0.135 A 
HETATM   17  C21 UNL     1      27.586  -0.144  53.467  1.00  0.00     0.049 A 
HETATM   18  N1  UNL     1      28.805  -0.891  53.433  1.00  0.00    -0.335 N 
HETATM   19  N2  UNL     1      28.312  -3.247  52.827  1.00  0.00    -0.283 NA
HETATM   20  C1  UNL     1      30.210  -0.658  53.660  1.00  0.00     0.158 C 
HETATM   21  H4  UNL     1      27.563  -3.935  52.583  1.00  0.00     0.188 HD
HETATM   22  C20 UNL     1      26.920   1.042  53.668  1.00  0.00     0.033 A 
HETATM   23  C19 UNL     1      25.531   1.124  53.532  1.00  0.00     0.031 A 
ENDBRANCH  11  13
ENDBRANCH  10  11
ENDBRANCH   1  10
BRANCH   8  24
HETATM   24  C12 UNL     1      24.280   2.462  50.752  1.00  0.00     0.158 C 
BRANCH  24  25
HETATM   25  N7  UNL     1      24.493   3.877  50.808  1.00  0.00    -0.408 N 
HETATM   26  C13 UNL     1      23.831   4.630  51.776  1.00  0.00     0.119 C 
HETATM   27  C14 UNL     1      23.589   6.032  51.294  1.00  0.00     0.044 C 
HETATM   28  C15 UNL     1      24.527   6.577  50.295  1.00  0.00     0.077 C 
HETATM   29  C16 UNL     1      25.154   5.583  49.360  1.00  0.00     0.044 C 
HETATM   30  C17 UNL     1      25.653   4.385  50.187  1.00  0.00     0.119 C 
BRANCH  28  31
HETATM   31  N8  UNL     1      25.602   7.378  50.854  1.00  0.00    -0.426 N 
HETATM   32  H19 UNL     1      26.120   7.934  50.143  1.00  0.00     0.150 HD
HETATM   33  H20 UNL     1      25.373   7.860  51.731  1.00  0.00     0.150 HD
ENDBRANCH  28  31
ENDBRANCH  24  25
ENDBRANCH   8  24
TORSDOF 6
ENDMDL
MODEL 7
REMARK VINA RESULT:      -8.2      2.937      6.977
REMARK  6 active torsions:
REMARK  status: ('A' for Active; 'I' for Inactive)
REMARK    1  A    between atoms: C5_7  and  N3_8 
REMARK    2  A    between atoms: N3_8  and  C6_9 
REMARK    3  A    between atoms: C6_9  and  C7_10 
REMARK    4  A    between atoms: C11_17  and  C12_18 
REMARK    5  A    between atoms: C12_18  and  N7_19 
REMARK    6  A    between atoms: C15_22  and  N8_23 
ROOT
HETATM    1  C7  UNL     1      22.958  -0.246  53.623  1.00  0.00     0.082 A 
HETATM    2  N4  UNL     1      22.770  -1.038  54.724  1.00  0.00    -0.241 NA
HETATM    3  C8  UNL     1      23.795  -1.404  55.483  1.00  0.00     0.255 A 
HETATM    4  N5  UNL     1      25.047  -1.040  55.238  1.00  0.00    -0.161 NA
HETATM    5  N6  UNL     1      25.268  -0.275  54.182  1.00  0.00    -0.241 N 
HETATM    6  C9  UNL     1      26.445   0.205  53.759  1.00  0.00     0.119 A 
HETATM    7  C10 UNL     1      26.156   0.945  52.636  1.00  0.00     0.030 A 
HETATM    8  C11 UNL     1      24.792   0.940  52.335  1.00  0.00    -0.009 A 
HETATM    9  C18 UNL     1      24.265   0.142  53.356  1.00  0.00     0.092 A 
ENDROOT
BRANCH   1  10
HETATM   10  C6  UNL     1      21.812   0.148  52.737  1.00  0.00     0.181 C 
BRANCH  10  11
HETATM   11  N3  UNL     1      20.589  -0.257  53.446  1.00  0.00    -0.384 N 
HETATM   12  H6  UNL     1      20.626  -0.406  54.502  1.00  0.00     0.160 HD
BRANCH  11  13
HETATM   13  C5  UNL     1      19.343  -0.476  52.844  1.00  0.00     0.029 A 
HETATM   14  C4  UNL     1      19.015   0.086  51.633  1.00  0.00     0.046 A 
HETATM   15  C3  UNL     1      17.777  -0.108  51.065  1.00  0.00     0.038 A 
HETATM   16  C2  UNL     1      16.852   0.145  49.959  1.00  0.00     0.135 A 
HETATM   17  C21 UNL     1      16.765  -0.863  51.628  1.00  0.00     0.049 A 
HETATM   18  N1  UNL     1      15.825  -0.643  50.572  1.00  0.00    -0.335 N 
HETATM   19  N2  UNL     1      16.858   0.798  48.835  1.00  0.00    -0.283 NA
HETATM   20  C1  UNL     1      14.469  -1.014  50.252  1.00  0.00     0.158 C 
HETATM   21  H4  UNL     1      17.715   1.325  48.552  1.00  0.00     0.188 HD
HETATM   22  C20 UNL     1      17.087  -1.428  52.839  1.00  0.00     0.033 A 
HETATM   23  C19 UNL     1      18.344  -1.232  53.418  1.00  0.00     0.031 A 
ENDBRANCH  11  13
ENDBRANCH  10  11
ENDBRANCH   1  10
BRANCH   8  24
HETATM   24  C12 UNL     1      24.088   1.619  51.259  1.00  0.00     0.158 C 
BRANCH  24  25
HETATM   25  N7  UNL     1      24.053   3.025  51.526  1.00  0.00    -0.408 N 
HETATM   26  C13 UNL     1      23.516   3.479  52.729  1.00  0.00     0.119 C 
HETATM   27  C14 UNL     1      22.922   4.850  52.569  1.00  0.00     0.044 C 
HETATM   28  C15 UNL     1      23.487   5.714  51.515  1.00  0.00     0.077 C 
HETATM   29  C16 UNL     1      24.041   5.015  50.307  1.00  0.00     0.044 C 
HETATM   30  C17 UNL     1      24.926   3.849  50.784  1.00  0.00     0.119 C 
BRANCH  28  31
HETATM   31  N8  UNL     1      24.503   6.642  51.979  1.00  0.00    -0.426 N 
HETATM   32  H19 UNL     1      24.120   7.442  52.522  1.00  0.00     0.150 HD
HETATM   33  H20 UNL     1      25.353   6.203  52.351  1.00  0.00     0.150 HD
ENDBRANCH  28  31
ENDBRANCH  24  25
ENDBRANCH   8  24
TORSDOF 6
ENDMDL
MODEL 8
REMARK VINA RESULT:      -8.1      2.377      5.605
REMARK  6 active torsions:
REMARK  status: ('A' for Active; 'I' for Inactive)
REMARK    1  A    between atoms: C5_7  and  N3_8 
REMARK    2  A    between atoms: N3_8  and  C6_9 
REMARK    3  A    between atoms: C6_9  and  C7_10 
REMARK    4  A    between atoms: C11_17  and  C12_18 
REMARK    5  A    between atoms: C12_18  and  N7_19 
REMARK    6  A    between atoms: C15_22  and  N8_23 
ROOT
HETATM    1  C7  UNL     1      25.124   1.762  52.115  1.00  0.00     0.082 A 
HETATM    2  N4  UNL     1      26.359   1.184  51.990  1.00  0.00    -0.241 NA
HETATM    3  C8  UNL     1      26.569  -0.066  52.382  1.00  0.00     0.255 A 
HETATM    4  N5  UNL     1      25.622  -0.830  52.912  1.00  0.00    -0.161 NA
HETATM    5  N6  UNL     1      24.416  -0.306  53.049  1.00  0.00    -0.241 N 
HETATM    6  C9  UNL     1      23.325  -0.899  53.551  1.00  0.00     0.119 A 
HETATM    7  C10 UNL     1      22.327   0.044  53.476  1.00  0.00     0.030 A 
HETATM    8  C11 UNL     1      22.777   1.246  52.925  1.00  0.00    -0.009 A 
HETATM    9  C18 UNL     1      24.124   0.971  52.668  1.00  0.00     0.092 A 
ENDROOT
BRANCH   1  10
HETATM   10  C6  UNL     1      24.881   3.186  51.707  1.00  0.00     0.181 C 
BRANCH  10  11
HETATM   11  N3  UNL     1      25.076   3.233  50.250  1.00  0.00    -0.384 N 
HETATM   12  H6  UNL     1      24.649   2.466  49.644  1.00  0.00     0.160 HD
BRANCH  11  13
HETATM   13  C5  UNL     1      25.797   4.219  49.565  1.00  0.00     0.029 A 
HETATM   14  C4  UNL     1      27.133   4.070  49.275  1.00  0.00     0.046 A 
HETATM   15  C3  UNL     1      27.841   5.057  48.630  1.00  0.00     0.038 A 
HETATM   16  C2  UNL     1      29.110   5.531  48.076  1.00  0.00     0.135 A 
HETATM   17  C21 UNL     1      27.308   6.264  48.218  1.00  0.00     0.049 A 
HETATM   18  N1  UNL     1      28.525   6.771  47.663  1.00  0.00    -0.335 N 
HETATM   19  N2  UNL     1      30.327   5.089  47.952  1.00  0.00    -0.283 NA
HETATM   20  C1  UNL     1      28.983   7.968  47.004  1.00  0.00     0.158 C 
HETATM   21  H4  UNL     1      30.570   4.142  48.324  1.00  0.00     0.188 HD
HETATM   22  C20 UNL     1      25.972   6.419  48.504  1.00  0.00     0.033 A 
HETATM   23  C19 UNL     1      25.250   5.417  49.159  1.00  0.00     0.031 A 
ENDBRANCH  11  13
ENDBRANCH  10  11
ENDBRANCH   1  10
BRANCH   8  24
HETATM   24  C12 UNL     1      22.031   2.465  52.650  1.00  0.00     0.158 C 
BRANCH  24  25
HETATM   25  N7  UNL     1      21.019   2.194  51.674  1.00  0.00    -0.408 N 
HETATM   26  C13 UNL     1      19.683   2.160  52.067  1.00  0.00     0.119 C 
HETATM   27  C14 UNL     1      18.890   1.228  51.195  1.00  0.00     0.044 C 
HETATM   28  C15 UNL     1      19.372   1.013  49.818  1.00  0.00     0.077 C 
HETATM   29  C16 UNL     1      20.855   1.121  49.608  1.00  0.00     0.044 C 
HETATM   30  C17 UNL     1      21.355   2.393  50.318  1.00  0.00     0.119 C 
BRANCH  28  31
HETATM   31  N8  UNL     1      18.734   1.853  48.819  1.00  0.00    -0.426 N 
HETATM   32  H19 UNL     1      19.287   1.951  47.943  1.00  0.00     0.150 HD
HETATM   33  H20 UNL     1      17.725   1.702  48.707  1.00  0.00     0.150 HD
ENDBRANCH  28  31
ENDBRANCH  24  25
ENDBRANCH   8  24
TORSDOF 6
ENDMDL
MODEL 9
REMARK VINA RESULT:      -8.1      2.285      5.330
REMARK  6 active torsions:
REMARK  status: ('A' for Active; 'I' for Inactive)
REMARK    1  A    between atoms: C5_7  and  N3_8 
REMARK    2  A    between atoms: N3_8  and  C6_9 
REMARK    3  A    between atoms: C6_9  and  C7_10 
REMARK    4  A    between atoms: C11_17  and  C12_18 
REMARK    5  A    between atoms: C12_18  and  N7_19 
REMARK    6  A    between atoms: C15_22  and  N8_23 
ROOT
HETATM    1  C7  UNL     1      27.083   1.945  52.295  1.00  0.00     0.082 A 
HETATM    2  N4  UNL     1      28.322   2.438  52.604  1.00  0.00    -0.241 NA
HETATM    3  C8  UNL     1      28.903   2.146  53.761  1.00  0.00     0.255 A 
HETATM    4  N5  UNL     1      28.339   1.375  54.682  1.00  0.00    -0.161 NA
HETATM    5  N6  UNL     1      27.141   0.880  54.419  1.00  0.00    -0.241 N 
HETATM    6  C9  UNL     1      26.402   0.083  55.202  1.00  0.00     0.119 A 
HETATM    7  C10 UNL     1      25.251  -0.163  54.491  1.00  0.00     0.030 A 
HETATM    8  C11 UNL     1      25.248   0.478  53.250  1.00  0.00    -0.009 A 
HETATM    9  C18 UNL     1      26.483   1.136  53.252  1.00  0.00     0.092 A 
ENDROOT
BRANCH   1  10
HETATM   10  C6  UNL     1      26.401   2.294  51.004  1.00  0.00     0.181 C 
BRANCH  10  11
HETATM   11  N3  UNL     1      26.127   3.738  51.063  1.00  0.00    -0.384 N 
HETATM   12  H6  UNL     1      26.509   4.305  51.882  1.00  0.00     0.160 HD
BRANCH  11  13
HETATM   13  C5  UNL     1      25.386   4.457  50.117  1.00  0.00     0.029 A 
HETATM   14  C4  UNL     1      24.180   3.998  49.641  1.00  0.00     0.046 A 
HETATM   15  C3  UNL     1      23.475   4.695  48.688  1.00  0.00     0.038 A 
HETATM   16  C2  UNL     1      22.293   4.799  47.829  1.00  0.00     0.135 A 
HETATM   17  C21 UNL     1      23.884   5.890  48.125  1.00  0.00     0.049 A 
HETATM   18  N1  UNL     1      22.749   6.035  47.267  1.00  0.00    -0.335 N 
HETATM   19  N2  UNL     1      21.214   4.112  47.596  1.00  0.00    -0.283 NA
HETATM   20  C1  UNL     1      22.267   6.967  46.278  1.00  0.00     0.158 C 
HETATM   21  H4  UNL     1      21.053   3.218  48.113  1.00  0.00     0.188 HD
HETATM   22  C20 UNL     1      25.089   6.354  48.598  1.00  0.00     0.033 A 
HETATM   23  C19 UNL     1      25.808   5.647  49.566  1.00  0.00     0.031 A 
ENDBRANCH  11  13
ENDBRANCH  10  11
ENDBRANCH   1  10
BRANCH   8  24
HETATM   24  C12 UNL     1      24.240   0.444  52.203  1.00  0.00     0.158 C 
BRANCH  24  25
HETATM   25  N7  UNL     1      22.962   0.156  52.781  1.00  0.00    -0.408 N 
HETATM   26  C13 UNL     1      22.034   1.185  52.933  1.00  0.00     0.119 C 
HETATM   27  C14 UNL     1      21.132   0.926  54.107  1.00  0.00     0.044 C 
HETATM   28  C15 UNL     1      20.907  -0.480  54.491  1.00  0.00     0.077 C 
HETATM   29  C16 UNL     1      22.032  -1.434  54.213  1.00  0.00     0.044 C 
HETATM   30  C17 UNL     1      22.535  -1.188  52.779  1.00  0.00     0.119 C 
BRANCH  28  31
HETATM   31  N8  UNL     1      19.699  -1.068  53.939  1.00  0.00    -0.426 N 
HETATM   32  H19 UNL     1      18.827  -0.738  54.400  1.00  0.00     0.150 HD
HETATM   33  H20 UNL     1      19.677  -1.132  52.915  1.00  0.00     0.150 HD
ENDBRANCH  28  31
ENDBRANCH  24  25
ENDBRANCH   8  24
TORSDOF 6
ENDMDL
