MODEL 1
REMARK VINA RESULT:      -8.8      0.000      0.000
REMARK  5 active torsions:
REMARK  status: ('A' for Active; 'I' for Inactive)
REMARK    1  A    between atoms: N1_2  and  C3_4 
REMARK    2  A    between atoms: C3_4  and  C4_5 
REMARK    3  A    between atoms: C4_5  and  N2_6 
REMARK    4  A    between atoms: C8_11  and  C9_12 
REMARK    5  A    between atoms: C8_11  and  C13_18 
ROOT
HETATM    1  N2  UNL     1      22.657  -0.437  53.865  1.00  0.00    -0.341 N 
HETATM    2  C5  UNL     1      22.165  -1.198  54.949  1.00  0.00     0.203 A 
HETATM    3  N3  UNL     1      23.187  -1.562  55.617  1.00  0.00    -0.279 NA
HETATM    4  C6  UNL     1      24.434  -1.124  55.095  1.00  0.00     0.208 A 
HETATM    5  C7  UNL     1      24.065  -0.333  53.898  1.00  0.00     0.043 A 
HETATM    6  C8  UNL     1      24.937   0.338  53.184  1.00  0.00    -0.001 C 
ENDROOT
BRANCH   6   7
HETATM    7  C9  UNL     1      26.379   0.198  53.495  1.00  0.00     0.024 C 
HETATM    8  C10 UNL     1      27.153  -0.829  53.117  1.00  0.00    -0.019 C 
HETATM    9  C11 UNL     1      28.594  -0.979  53.426  1.00  0.00     0.147 C 
HETATM   10  C12 UNL     1      26.979  -2.085  52.302  1.00  0.00     0.181 C 
HETATM   11  N4  UNL     1      28.904  -2.228  53.363  1.00  0.00    -0.191 NA
HETATM   12  N5  UNL     1      27.807  -3.024  53.031  1.00  0.00    -0.310 N 
HETATM   13  H16 UNL     1      27.564  -4.030  53.215  1.00  0.00     0.182 HD
ENDBRANCH   6   7
BRANCH   6  14
HETATM   14  C13 UNL     1      24.991   1.329  52.123  1.00  0.00    -0.024 A 
HETATM   15  C14 UNL     1      23.917   1.816  51.405  1.00  0.00     0.015 A 
HETATM   16  C15 UNL     1      24.040   2.729  50.383  1.00  0.00     0.043 A 
HETATM   17  C16 UNL     1      25.303   3.176  50.063  1.00  0.00     0.116 A 
HETATM   18  F1  UNL     1      25.443   4.086  49.047  1.00  0.00    -0.206 F 
HETATM   19  C17 UNL     1      26.442   2.779  50.687  1.00  0.00     0.043 A 
HETATM   20  C18 UNL     1      26.212   1.868  51.691  1.00  0.00     0.015 A 
ENDBRANCH   6  14
BRANCH   1  21
HETATM   21  C4  UNL     1      21.744   0.088  52.887  1.00  0.00     0.149 C 
BRANCH  21  22
HETATM   22  C3  UNL     1      20.341   0.189  53.469  1.00  0.00     0.136 C 
BRANCH  22  23
HETATM   23  N1  UNL     1      19.290  -0.210  52.640  1.00  0.00    -0.419 N 
HETATM   24  C1  UNL     1      19.185   0.314  51.338  1.00  0.00     0.142 C 
HETATM   25  C2  UNL     1      18.277  -1.053  53.128  1.00  0.00     0.142 C 
ENDBRANCH  22  23
ENDBRANCH  21  22
ENDBRANCH   1  21
TORSDOF 5
ENDMDL
MODEL 2
REMARK VINA RESULT:      -8.5      1.483      1.828
REMARK  5 active torsions:
REMARK  status: ('A' for Active; 'I' for Inactive)
REMARK    1  A    between atoms: N1_2  and  C3_4 
REMARK    2  A    between atoms: C3_4  and  C4_5 
REMARK    3  A    between atoms: C4_5  and  N2_6 
REMARK    4  A    between atoms: C8_11  and  C9_12 
REMARK    5  A    between atoms: C8_11  and  C13_18 
ROOT
HETATM    1  N2  UNL     1      21.759  -0.605  53.649  1.00  0.00    -0.341 N 
HETATM    2  C5  UNL     1      21.282  -1.593  54.540  1.00  0.00     0.203 A 
HETATM    3  N3  UNL     1      22.272  -1.910  55.277  1.00  0.00    -0.279 NA
HETATM    4  C6  UNL     1      23.481  -1.219  54.991  1.00  0.00     0.208 A 
HETATM    5  C7  UNL     1      23.120  -0.307  53.881  1.00  0.00     0.043 A 
HETATM    6  C8  UNL     1      23.944   0.588  53.390  1.00  0.00    -0.001 C 
ENDROOT
BRANCH   6   7
HETATM    7  C9  UNL     1      25.347   0.608  53.864  1.00  0.00     0.024 C 
HETATM    8  C10 UNL     1      26.327  -0.182  53.404  1.00  0.00    -0.019 C 
HETATM    9  C11 UNL     1      27.732  -0.172  53.874  1.00  0.00     0.147 C 
HETATM   10  C12 UNL     1      26.466  -1.245  52.344  1.00  0.00     0.181 C 
HETATM   11  N4  UNL     1      28.265  -1.316  53.612  1.00  0.00    -0.191 NA
HETATM   12  N5  UNL     1      27.368  -2.180  52.983  1.00  0.00    -0.310 N 
HETATM   13  H16 UNL     1      27.292  -3.227  52.933  1.00  0.00     0.182 HD
ENDBRANCH   6   7
BRANCH   6  14
HETATM   14  C13 UNL     1      23.950   1.734  52.497  1.00  0.00    -0.024 A 
HETATM   15  C14 UNL     1      24.193   3.046  52.853  1.00  0.00     0.015 A 
HETATM   16  C15 UNL     1      24.147   4.094  51.962  1.00  0.00     0.043 A 
HETATM   17  C16 UNL     1      23.842   3.813  50.649  1.00  0.00     0.116 A 
HETATM   18  F1  UNL     1      23.793   4.846  49.749  1.00  0.00    -0.206 F 
HETATM   19  C17 UNL     1      23.583   2.571  50.166  1.00  0.00     0.043 A 
HETATM   20  C18 UNL     1      23.654   1.596  51.133  1.00  0.00     0.015 A 
ENDBRANCH   6  14
BRANCH   1  21
HETATM   21  C4  UNL     1      20.883  -0.065  52.645  1.00  0.00     0.149 C 
BRANCH  21  22
HETATM   22  C3  UNL     1      20.343   1.288  53.083  1.00  0.00     0.136 C 
BRANCH  22  23
HETATM   23  N1  UNL     1      20.043   2.200  52.067  1.00  0.00    -0.419 N 
HETATM   24  C1  UNL     1      20.470   3.536  52.174  1.00  0.00     0.142 C 
HETATM   25  C2  UNL     1      19.230   1.820  50.985  1.00  0.00     0.142 C 
ENDBRANCH  22  23
ENDBRANCH  21  22
ENDBRANCH   1  21
TORSDOF 5
ENDMDL
MODEL 3
REMARK VINA RESULT:      -8.3      3.342      5.224
REMARK  5 active torsions:
REMARK  status: ('A' for Active; 'I' for Inactive)
REMARK    1  A    between atoms: N1_2  and  C3_4 
REMARK    2  A    between atoms: C3_4  and  C4_5 
REMARK    3  A    between atoms: C4_5  and  N2_6 
REMARK    4  A    between atoms: C8_11  and  C9_12 
REMARK    5  A    between atoms: C8_11  and  C13_18 
ROOT
HETATM    1  N2  UNL     1      24.609   3.160  51.512  1.00  0.00    -0.341 N 
HETATM    2  C5  UNL     1      25.242   4.059  50.626  1.00  0.00     0.203 A 
HETATM    3  N3  UNL     1      26.362   3.530  50.325  1.00  0.00    -0.279 NA
HETATM    4  C6  UNL     1      26.618   2.275  50.942  1.00  0.00     0.208 A 
HETATM    5  C7  UNL     1      25.400   2.013  51.744  1.00  0.00     0.043 A 
HETATM    6  C8  UNL     1      25.195   0.891  52.391  1.00  0.00    -0.001 C 
ENDROOT
BRANCH   6   7
HETATM    7  C9  UNL     1      26.280  -0.116  52.445  1.00  0.00     0.024 C 
HETATM    8  C10 UNL     1      27.414   0.009  53.149  1.00  0.00    -0.019 C 
HETATM    9  C11 UNL     1      28.506  -0.991  53.205  1.00  0.00     0.147 C 
HETATM   10  C12 UNL     1      28.007   1.024  54.091  1.00  0.00     0.181 C 
HETATM   11  N4  UNL     1      29.599  -0.393  53.536  1.00  0.00    -0.191 NA
HETATM   12  N5  UNL     1      29.409   0.976  53.731  1.00  0.00    -0.310 N 
HETATM   13  H16 UNL     1      30.046   1.809  53.659  1.00  0.00     0.182 HD
ENDBRANCH   6   7
BRANCH   6  14
HETATM   14  C13 UNL     1      24.142   0.181  53.096  1.00  0.00    -0.024 A 
HETATM   15  C14 UNL     1      24.270  -0.492  54.295  1.00  0.00     0.015 A 
HETATM   16  C15 UNL     1      23.238  -1.178  54.893  1.00  0.00     0.043 A 
HETATM   17  C16 UNL     1      22.017  -1.192  54.258  1.00  0.00     0.116 A 
HETATM   18  F1  UNL     1      20.978  -1.872  54.842  1.00  0.00    -0.206 F 
HETATM   19  C17 UNL     1      21.754  -0.574  53.077  1.00  0.00     0.043 A 
HETATM   20  C18 UNL     1      22.847   0.082  52.564  1.00  0.00     0.015 A 
ENDBRANCH   6  14
BRANCH   1  21
HETATM   21  C4  UNL     1      23.329   3.492  52.075  1.00  0.00     0.149 C 
BRANCH  21  22
HETATM   22  C3  UNL     1      23.088   4.993  51.997  1.00  0.00     0.136 C 
BRANCH  22  23
HETATM   23  N1  UNL     1      21.864   5.402  51.461  1.00  0.00    -0.419 N 
HETATM   24  C1  UNL     1      20.798   4.489  51.365  1.00  0.00     0.142 C 
HETATM   25  C2  UNL     1      21.718   6.692  50.921  1.00  0.00     0.142 C 
ENDBRANCH  22  23
ENDBRANCH  21  22
ENDBRANCH   1  21
TORSDOF 5
ENDMDL
MODEL 4
REMARK VINA RESULT:      -7.8      2.268      3.416
REMARK  5 active torsions:
REMARK  status: ('A' for Active; 'I' for Inactive)
REMARK    1  A    between atoms: N1_2  and  C3_4 
REMARK    2  A    between atoms: C3_4  and  C4_5 
REMARK    3  A    between atoms: C4_5  and  N2_6 
REMARK    4  A    between atoms: C8_11  and  C9_12 
REMARK    5  A    between atoms: C8_11  and  C13_18 
ROOT
HETATM    1  N2  UNL     1      22.370   1.010  51.177  1.00  0.00    -0.341 N 
HETATM    2  C5  UNL     1      21.418   0.203  51.839  1.00  0.00     0.203 A 
HETATM    3  N3  UNL     1      21.945  -0.125  52.952  1.00  0.00    -0.279 NA
HETATM    4  C6  UNL     1      23.253   0.386  53.171  1.00  0.00     0.208 A 
HETATM    5  C7  UNL     1      23.537   1.183  51.955  1.00  0.00     0.043 A 
HETATM    6  C8  UNL     1      24.617   1.911  51.810  1.00  0.00    -0.001 C 
ENDROOT
BRANCH   6   7
HETATM    7  C9  UNL     1      25.678   1.836  52.842  1.00  0.00     0.024 C 
HETATM    8  C10 UNL     1      26.531   0.815  52.997  1.00  0.00    -0.019 C 
HETATM    9  C11 UNL     1      27.592   0.729  54.028  1.00  0.00     0.147 C 
HETATM   10  C12 UNL     1      26.810  -0.491  52.298  1.00  0.00     0.181 C 
HETATM   11  N4  UNL     1      27.884  -0.511  54.220  1.00  0.00    -0.191 NA
HETATM   12  N5  UNL     1      27.126  -1.359  53.413  1.00  0.00    -0.310 N 
HETATM   13  H16 UNL     1      26.820  -2.360  53.507  1.00  0.00     0.182 HD
ENDBRANCH   6   7
BRANCH   6  14
HETATM   14  C13 UNL     1      25.175   2.926  50.933  1.00  0.00    -0.024 A 
HETATM   15  C14 UNL     1      26.297   2.792  50.138  1.00  0.00     0.015 A 
HETATM   16  C15 UNL     1      26.796   3.808  49.355  1.00  0.00     0.043 A 
HETATM   17  C16 UNL     1      26.140   5.018  49.370  1.00  0.00     0.116 A 
HETATM   18  F1  UNL     1      26.625   6.041  48.595  1.00  0.00    -0.206 F 
HETATM   19  C17 UNL     1      25.029   5.285  50.105  1.00  0.00     0.043 A 
HETATM   20  C18 UNL     1      24.611   4.208  50.850  1.00  0.00     0.015 A 
ENDBRANCH   6  14
BRANCH   1  21
HETATM   21  C4  UNL     1      22.091   1.511  49.859  1.00  0.00     0.149 C 
BRANCH  21  22
HETATM   22  C3  UNL     1      21.307   2.813  49.940  1.00  0.00     0.136 C 
BRANCH  22  23
HETATM   23  N1  UNL     1      21.487   3.717  48.890  1.00  0.00    -0.419 N 
HETATM   24  C1  UNL     1      22.482   3.482  47.924  1.00  0.00     0.142 C 
HETATM   25  C2  UNL     1      20.751   4.913  48.845  1.00  0.00     0.142 C 
ENDBRANCH  22  23
ENDBRANCH  21  22
ENDBRANCH   1  21
TORSDOF 5
ENDMDL
MODEL 5
REMARK VINA RESULT:      -7.8      3.304      5.008
REMARK  5 active torsions:
REMARK  status: ('A' for Active; 'I' for Inactive)
REMARK    1  A    between atoms: N1_2  and  C3_4 
REMARK    2  A    between atoms: C3_4  and  C4_5 
REMARK    3  A    between atoms: C4_5  and  N2_6 
REMARK    4  A    between atoms: C8_11  and  C9_12 
REMARK    5  A    between atoms: C8_11  and  C13_18 
ROOT
HETATM    1  N2  UNL     1      24.207   3.373  51.461  1.00  0.00    -0.341 N 
HETATM    2  C5  UNL     1      24.910   4.326  50.691  1.00  0.00     0.203 A 
HETATM    3  N3  UNL     1      26.058   3.820  50.466  1.00  0.00    -0.279 NA
HETATM    4  C6  UNL     1      26.270   2.533  51.030  1.00  0.00     0.208 A 
HETATM    5  C7  UNL     1      24.986   2.218  51.700  1.00  0.00     0.043 A 
HETATM    6  C8  UNL     1      24.734   1.059  52.259  1.00  0.00    -0.001 C 
ENDROOT
BRANCH   6   7
HETATM    7  C9  UNL     1      25.819   0.057  52.355  1.00  0.00     0.024 C 
HETATM    8  C10 UNL     1      26.705  -0.027  53.358  1.00  0.00    -0.019 C 
HETATM    9  C11 UNL     1      27.797  -1.024  53.460  1.00  0.00     0.147 C 
HETATM   10  C12 UNL     1      26.953   0.693  54.659  1.00  0.00     0.181 C 
HETATM   11  N4  UNL     1      28.717  -0.552  54.229  1.00  0.00    -0.191 NA
HETATM   12  N5  UNL     1      28.399   0.719  54.709  1.00  0.00    -0.310 N 
HETATM   13  H16 UNL     1      28.981   1.531  55.037  1.00  0.00     0.182 HD
ENDBRANCH   6   7
BRANCH   6  14
HETATM   14  C13 UNL     1      23.627   0.304  52.821  1.00  0.00    -0.024 A 
HETATM   15  C14 UNL     1      22.348   0.223  52.306  1.00  0.00     0.015 A 
HETATM   16  C15 UNL     1      21.332  -0.482  52.909  1.00  0.00     0.043 A 
HETATM   17  C16 UNL     1      21.610  -1.137  54.087  1.00  0.00     0.116 A 
HETATM   18  F1  UNL     1      20.608  -1.844  54.701  1.00  0.00    -0.206 F 
HETATM   19  C17 UNL     1      22.821  -1.139  54.701  1.00  0.00     0.043 A 
HETATM   20  C18 UNL     1      23.766  -0.409  54.021  1.00  0.00     0.015 A 
ENDBRANCH   6  14
BRANCH   1  21
HETATM   21  C4  UNL     1      22.877   3.665  51.921  1.00  0.00     0.149 C 
BRANCH  21  22
HETATM   22  C3  UNL     1      22.318   4.879  51.193  1.00  0.00     0.136 C 
BRANCH  22  23
HETATM   23  N1  UNL     1      20.952   4.855  50.895  1.00  0.00    -0.419 N 
HETATM   24  C1  UNL     1      20.403   5.826  50.039  1.00  0.00     0.142 C 
HETATM   25  C2  UNL     1      20.102   3.928  51.523  1.00  0.00     0.142 C 
ENDBRANCH  22  23
ENDBRANCH  21  22
ENDBRANCH   1  21
TORSDOF 5
ENDMDL
MODEL 6
REMARK VINA RESULT:      -7.6      2.222      6.054
REMARK  5 active torsions:
REMARK  status: ('A' for Active; 'I' for Inactive)
REMARK    1  A    between atoms: N1_2  and  C3_4 
REMARK    2  A    between atoms: C3_4  and  C4_5 
REMARK    3  A    between atoms: C4_5  and  N2_6 
REMARK    4  A    between atoms: C8_11  and  C9_12 
REMARK    5  A    between atoms: C8_11  and  C13_18 
ROOT
HETATM    1  N2  UNL     1      25.182   0.648  53.084  1.00  0.00    -0.341 N 
HETATM    2  C5  UNL     1      24.793  -0.497  53.815  1.00  0.00     0.203 A 
HETATM    3  N3  UNL     1      23.520  -0.528  53.770  1.00  0.00    -0.279 NA
HETATM    4  C6  UNL     1      22.917   0.538  53.049  1.00  0.00     0.208 A 
HETATM    5  C7  UNL     1      24.066   1.338  52.561  1.00  0.00     0.043 A 
HETATM    6  C8  UNL     1      23.935   2.364  51.756  1.00  0.00    -0.001 C 
ENDROOT
BRANCH   6   7
HETATM    7  C9  UNL     1      22.575   2.845  51.419  1.00  0.00     0.024 C 
HETATM    8  C10 UNL     1      21.805   2.353  50.438  1.00  0.00    -0.019 C 
HETATM    9  C11 UNL     1      20.445   2.830  50.091  1.00  0.00     0.147 C 
HETATM   10  C12 UNL     1      21.907   1.245  49.421  1.00  0.00     0.181 C 
HETATM   11  N4  UNL     1      20.197   2.517  48.866  1.00  0.00    -0.191 NA
HETATM   12  N5  UNL     1      21.264   1.844  48.270  1.00  0.00    -0.310 N 
HETATM   13  H16 UNL     1      21.587   1.744  47.275  1.00  0.00     0.182 HD
ENDBRANCH   6   7
BRANCH   6  14
HETATM   14  C13 UNL     1      24.739   3.254  50.937  1.00  0.00    -0.024 A 
HETATM   15  C14 UNL     1      24.522   4.604  50.741  1.00  0.00     0.015 A 
HETATM   16  C15 UNL     1      25.302   5.386  49.919  1.00  0.00     0.043 A 
HETATM   17  C16 UNL     1      26.351   4.785  49.260  1.00  0.00     0.116 A 
HETATM   18  F1  UNL     1      27.137   5.550  48.437  1.00  0.00    -0.206 F 
HETATM   19  C17 UNL     1      26.674   3.470  49.361  1.00  0.00     0.043 A 
HETATM   20  C18 UNL     1      25.837   2.778  50.204  1.00  0.00     0.015 A 
ENDBRANCH   6  14
BRANCH   1  21
HETATM   21  C4  UNL     1      26.574   0.993  52.983  1.00  0.00     0.149 C 
BRANCH  21  22
HETATM   22  C3  UNL     1      27.419  -0.258  52.788  1.00  0.00     0.136 C 
BRANCH  22  23
HETATM   23  N1  UNL     1      28.478  -0.442  53.681  1.00  0.00    -0.419 N 
HETATM   24  C1  UNL     1      29.473  -1.397  53.403  1.00  0.00     0.142 C 
HETATM   25  C2  UNL     1      28.507   0.247  54.906  1.00  0.00     0.142 C 
ENDBRANCH  22  23
ENDBRANCH  21  22
ENDBRANCH   1  21
TORSDOF 5
ENDMDL
MODEL 7
REMARK VINA RESULT:      -7.4      1.894      6.214
REMARK  5 active torsions:
REMARK  status: ('A' for Active; 'I' for Inactive)
REMARK    1  A    between atoms: N1_2  and  C3_4 
REMARK    2  A    between atoms: C3_4  and  C4_5 
REMARK    3  A    between atoms: C4_5  and  N2_6 
REMARK    4  A    between atoms: C8_11  and  C9_12 
REMARK    5  A    between atoms: C8_11  and  C13_18 
ROOT
HETATM    1  N2  UNL     1      23.040  -0.107  53.776  1.00  0.00    -0.341 N 
HETATM    2  C5  UNL     1      22.792  -1.135  54.714  1.00  0.00     0.203 A 
HETATM    3  N3  UNL     1      21.542  -1.096  54.958  1.00  0.00    -0.279 NA
HETATM    4  C6  UNL     1      20.824  -0.087  54.260  1.00  0.00     0.208 A 
HETATM    5  C7  UNL     1      21.855   0.581  53.432  1.00  0.00     0.043 A 
HETATM    6  C8  UNL     1      21.576   1.513  52.554  1.00  0.00    -0.001 C 
ENDROOT
BRANCH   6   7
HETATM    7  C9  UNL     1      20.190   2.030  52.470  1.00  0.00     0.024 C 
HETATM    8  C10 UNL     1      19.230   1.536  51.676  1.00  0.00    -0.019 C 
HETATM    9  C11 UNL     1      17.843   2.050  51.583  1.00  0.00     0.147 C 
HETATM   10  C12 UNL     1      19.100   0.396  50.699  1.00  0.00     0.181 C 
HETATM   11  N4  UNL     1      17.351   1.709  50.441  1.00  0.00    -0.191 NA
HETATM   12  N5  UNL     1      18.262   0.982  49.674  1.00  0.00    -0.310 N 
HETATM   13  H16 UNL     1      18.382   0.841  48.639  1.00  0.00     0.182 HD
ENDBRANCH   6   7
BRANCH   6  14
HETATM   14  C13 UNL     1      22.199   2.254  51.470  1.00  0.00    -0.024 A 
HETATM   15  C14 UNL     1      22.528   1.757  50.224  1.00  0.00     0.015 A 
HETATM   16  C15 UNL     1      23.153   2.503  49.251  1.00  0.00     0.043 A 
HETATM   17  C16 UNL     1      23.465   3.812  49.542  1.00  0.00     0.116 A 
HETATM   18  F1  UNL     1      24.088   4.570  48.583  1.00  0.00    -0.206 F 
HETATM   19  C17 UNL     1      23.199   4.425  50.724  1.00  0.00     0.043 A 
HETATM   20  C18 UNL     1      22.575   3.596  51.626  1.00  0.00     0.015 A 
ENDBRANCH   6  14
BRANCH   1  21
HETATM   21  C4  UNL     1      24.382   0.141  53.325  1.00  0.00     0.149 C 
BRANCH  21  22
HETATM   22  C3  UNL     1      25.387  -0.531  54.248  1.00  0.00     0.136 C 
BRANCH  22  23
HETATM   23  N1  UNL     1      26.724  -0.499  53.846  1.00  0.00    -0.419 N 
HETATM   24  C1  UNL     1      27.149  -1.283  52.758  1.00  0.00     0.142 C 
HETATM   25  C2  UNL     1      27.673   0.232  54.582  1.00  0.00     0.142 C 
ENDBRANCH  22  23
ENDBRANCH  21  22
ENDBRANCH   1  21
TORSDOF 5
ENDMDL
MODEL 8
REMARK VINA RESULT:      -7.4      2.883      5.734
REMARK  5 active torsions:
REMARK  status: ('A' for Active; 'I' for Inactive)
REMARK    1  A    between atoms: N1_2  and  C3_4 
REMARK    2  A    between atoms: C3_4  and  C4_5 
REMARK    3  A    between atoms: C4_5  and  N2_6 
REMARK    4  A    between atoms: C8_11  and  C9_12 
REMARK    5  A    between atoms: C8_11  and  C13_18 
ROOT
HETATM    1  N2  UNL     1      22.846   3.841  51.977  1.00  0.00    -0.341 N 
HETATM    2  C5  UNL     1      21.674   4.627  51.902  1.00  0.00     0.203 A 
HETATM    3  N3  UNL     1      20.698   3.821  52.052  1.00  0.00    -0.279 NA
HETATM    4  C6  UNL     1      21.065   2.460  52.231  1.00  0.00     0.208 A 
HETATM    5  C7  UNL     1      22.546   2.478  52.198  1.00  0.00     0.043 A 
HETATM    6  C8  UNL     1      23.282   1.419  52.434  1.00  0.00    -0.001 C 
ENDROOT
BRANCH   6   7
HETATM    7  C9  UNL     1      22.618   0.107  52.608  1.00  0.00     0.024 C 
HETATM    8  C10 UNL     1      22.428  -0.511  53.782  1.00  0.00    -0.019 C 
HETATM    9  C11 UNL     1      21.769  -1.826  53.965  1.00  0.00     0.147 C 
HETATM   10  C12 UNL     1      22.702  -0.208  55.233  1.00  0.00     0.181 C 
HETATM   11  N4  UNL     1      22.170  -2.339  55.077  1.00  0.00    -0.191 NA
HETATM   12  N5  UNL     1      23.077  -1.511  55.740  1.00  0.00    -0.310 N 
HETATM   13  H16 UNL     1      23.849  -1.695  56.429  1.00  0.00     0.182 HD
ENDBRANCH   6   7
BRANCH   6  14
HETATM   14  C13 UNL     1      24.666   1.049  52.677  1.00  0.00    -0.024 A 
HETATM   15  C14 UNL     1      25.355   0.018  52.068  1.00  0.00     0.015 A 
HETATM   16  C15 UNL     1      26.658  -0.305  52.371  1.00  0.00     0.043 A 
HETATM   17  C16 UNL     1      27.302   0.440  53.333  1.00  0.00     0.116 A 
HETATM   18  F1  UNL     1      28.601   0.130  53.646  1.00  0.00    -0.206 F 
HETATM   19  C17 UNL     1      26.743   1.477  54.008  1.00  0.00     0.043 A 
HETATM   20  C18 UNL     1      25.443   1.720  53.633  1.00  0.00     0.015 A 
ENDBRANCH   6  14
BRANCH   1  21
HETATM   21  C4  UNL     1      24.132   4.457  51.800  1.00  0.00     0.149 C 
BRANCH  21  22
HETATM   22  C3  UNL     1      24.450   4.608  50.319  1.00  0.00     0.136 C 
BRANCH  22  23
HETATM   23  N1  UNL     1      25.775   4.382  49.938  1.00  0.00    -0.419 N 
HETATM   24  C1  UNL     1      26.407   5.261  49.040  1.00  0.00     0.142 C 
HETATM   25  C2  UNL     1      26.454   3.227  50.366  1.00  0.00     0.142 C 
ENDBRANCH  22  23
ENDBRANCH  21  22
ENDBRANCH   1  21
TORSDOF 5
ENDMDL
MODEL 9
REMARK VINA RESULT:      -7.4      3.404      7.148
REMARK  5 active torsions:
REMARK  status: ('A' for Active; 'I' for Inactive)
REMARK    1  A    between atoms: N1_2  and  C3_4 
REMARK    2  A    between atoms: C3_4  and  C4_5 
REMARK    3  A    between atoms: C4_5  and  N2_6 
REMARK    4  A    between atoms: C8_11  and  C9_12 
REMARK    5  A    between atoms: C8_11  and  C13_18 
ROOT
HETATM    1  N2  UNL     1      25.617   1.565  51.691  1.00  0.00    -0.341 N 
HETATM    2  C5  UNL     1      26.681   2.365  51.220  1.00  0.00     0.203 A 
HETATM    3  N3  UNL     1      26.142   3.369  50.649  1.00  0.00    -0.279 NA
HETATM    4  C6  UNL     1      24.721   3.372  50.653  1.00  0.00     0.208 A 
HETATM    5  C7  UNL     1      24.361   2.137  51.389  1.00  0.00     0.043 A 
HETATM    6  C8  UNL     1      23.127   1.823  51.703  1.00  0.00    -0.001 C 
ENDROOT
BRANCH   6   7
HETATM    7  C9  UNL     1      22.019   2.660  51.188  1.00  0.00     0.024 C 
HETATM    8  C10 UNL     1      21.349   2.435  50.049  1.00  0.00    -0.019 C 
HETATM    9  C11 UNL     1      20.242   3.269  49.524  1.00  0.00     0.147 C 
HETATM   10  C12 UNL     1      21.359   1.389  48.964  1.00  0.00     0.181 C 
HETATM   11  N4  UNL     1      20.158   3.091  48.250  1.00  0.00    -0.191 NA
HETATM   12  N5  UNL     1      21.114   2.189  47.782  1.00  0.00    -0.310 N 
HETATM   13  H16 UNL     1      21.583   2.055  46.851  1.00  0.00     0.182 HD
ENDBRANCH   6   7
BRANCH   6  14
HETATM   14  C13 UNL     1      22.386   0.878  52.521  1.00  0.00    -0.024 A 
HETATM   15  C14 UNL     1      21.318   1.174  53.346  1.00  0.00     0.015 A 
HETATM   16  C15 UNL     1      20.681   0.236  54.126  1.00  0.00     0.043 A 
HETATM   17  C16 UNL     1      21.136  -1.062  54.078  1.00  0.00     0.116 A 
HETATM   18  F1  UNL     1      20.512  -2.009  54.850  1.00  0.00    -0.206 F 
HETATM   19  C17 UNL     1      22.174  -1.488  53.312  1.00  0.00     0.043 A 
HETATM   20  C18 UNL     1      22.741  -0.478  52.572  1.00  0.00     0.015 A 
ENDBRANCH   6  14
BRANCH   1  21
HETATM   21  C4  UNL     1      25.897   0.320  52.353  1.00  0.00     0.149 C 
BRANCH  21  22
HETATM   22  C3  UNL     1      27.337   0.291  52.844  1.00  0.00     0.136 C 
BRANCH  22  23
HETATM   23  N1  UNL     1      27.524   0.240  54.228  1.00  0.00    -0.419 N 
HETATM   24  C1  UNL     1      28.826   0.174  54.758  1.00  0.00     0.142 C 
HETATM   25  C2  UNL     1      26.421   0.152  55.094  1.00  0.00     0.142 C 
ENDBRANCH  22  23
ENDBRANCH  21  22
ENDBRANCH   1  21
TORSDOF 5
ENDMDL
