MODEL 1
REMARK VINA RESULT:      -8.3      0.000      0.000
REMARK  3 active torsions:
REMARK  status: ('A' for Active; 'I' for Inactive)
REMARK    1  A    between atoms: C3_3  and  C4_4 
REMARK    2  A    between atoms: C8_8  and  O1_9 
REMARK    3  A    between atoms: O1_9  and  C9_10 
ROOT
HETATM    1  C9  UNL     1      26.131   2.089  52.482  1.00  0.00     0.191 C 
HETATM    2  C10 UNL     1      26.956   2.480  53.515  1.00  0.00     0.060 C 
HETATM    3  C11 UNL     1      28.282   2.081  53.493  1.00  0.00     0.004 C 
HETATM    4  C12 UNL     1      28.838   0.825  53.680  1.00  0.00     0.002 C 
HETATM    5  C13 UNL     1      28.525   0.145  54.853  1.00  0.00     0.019 C 
HETATM    6  C14 UNL     1      27.158   0.043  54.981  1.00  0.00     0.118 C 
HETATM    7  N1  UNL     1      26.534  -0.882  54.213  1.00  0.00    -0.252 NA
HETATM    8  C15 UNL     1      26.324  -0.672  52.901  1.00  0.00     0.256 C 
HETATM    9  N2  UNL     1      26.644  -0.074  51.746  1.00  0.00    -0.141 NA
HETATM   10  N3  UNL     1      26.553   1.221  51.540  1.00  0.00    -0.123 NA
ENDROOT
BRANCH   1  11
HETATM   11  O1  UNL     1      24.840   2.623  52.439  1.00  0.00    -0.291 OA
BRANCH  11  12
HETATM   12  C8  UNL     1      23.743   1.892  52.041  1.00  0.00     0.078 A 
HETATM   13  C7  UNL     1      23.238   2.007  50.766  1.00  0.00     0.037 A 
HETATM   14  C6  UNL     1      22.140   1.268  50.381  1.00  0.00     0.004 A 
HETATM   15  C5  UNL     1      21.601   0.434  51.333  1.00  0.00     0.011 A 
HETATM   16  C4  UNL     1      22.039   0.255  52.627  1.00  0.00    -0.034 A 
HETATM   17  C16 UNL     1      23.139   1.031  52.926  1.00  0.00     0.048 A 
BRANCH  16  18
HETATM   18  C3  UNL     1      21.472  -0.624  53.626  1.00  0.00     0.007 C 
HETATM   19  C2  UNL     1      21.988  -1.208  54.681  1.00  0.00    -0.030 C 
HETATM   20  C1  UNL     1      23.160  -1.443  55.527  1.00  0.00     0.036 C 
ENDBRANCH  16  18
ENDBRANCH  11  12
ENDBRANCH   1  11
TORSDOF 3
ENDMDL
MODEL 2
REMARK VINA RESULT:      -8.2      2.271      4.473
REMARK  3 active torsions:
REMARK  status: ('A' for Active; 'I' for Inactive)
REMARK    1  A    between atoms: C3_3  and  C4_4 
REMARK    2  A    between atoms: C8_8  and  O1_9 
REMARK    3  A    between atoms: O1_9  and  C9_10 
ROOT
HETATM    1  C9  UNL     1      25.315   0.566  52.910  1.00  0.00     0.191 C 
HETATM    2  C10 UNL     1      26.334   0.299  52.020  1.00  0.00     0.060 C 
HETATM    3  C11 UNL     1      26.904  -0.963  52.023  1.00  0.00     0.004 C 
HETATM    4  C12 UNL     1      27.723  -1.569  52.962  1.00  0.00     0.002 C 
HETATM    5  C13 UNL     1      28.892  -0.907  53.328  1.00  0.00     0.019 C 
HETATM    6  C14 UNL     1      28.589   0.363  53.765  1.00  0.00     0.118 C 
HETATM    7  N1  UNL     1      28.067   0.480  55.010  1.00  0.00    -0.252 NA
HETATM    8  C15 UNL     1      26.783   0.164  55.260  1.00  0.00     0.256 C 
HETATM    9  N2  UNL     1      25.664  -0.509  54.961  1.00  0.00    -0.141 NA
HETATM   10  N3  UNL     1      24.967  -0.323  53.862  1.00  0.00    -0.123 NA
ENDROOT
BRANCH   1  11
HETATM   11  O1  UNL     1      24.650   1.790  52.793  1.00  0.00    -0.291 OA
BRANCH  11  12
HETATM   12  C8  UNL     1      24.236   2.302  51.582  1.00  0.00     0.078 A 
HETATM   13  C7  UNL     1      23.218   1.709  50.872  1.00  0.00     0.037 A 
HETATM   14  C6  UNL     1      22.814   2.231  49.663  1.00  0.00     0.004 A 
HETATM   15  C5  UNL     1      23.482   3.354  49.229  1.00  0.00     0.011 A 
HETATM   16  C4  UNL     1      24.507   4.011  49.872  1.00  0.00    -0.034 A 
HETATM   17  C16 UNL     1      24.846   3.422  51.071  1.00  0.00     0.048 A 
BRANCH  16  18
HETATM   18  C3  UNL     1      25.207   5.192  49.415  1.00  0.00     0.007 C 
HETATM   19  C2  UNL     1      26.427   5.374  48.965  1.00  0.00    -0.030 C 
HETATM   20  C1  UNL     1      27.730   4.798  48.627  1.00  0.00     0.036 C 
ENDBRANCH  16  18
ENDBRANCH  11  12
ENDBRANCH   1  11
TORSDOF 3
ENDMDL
MODEL 3
REMARK VINA RESULT:      -8.0      1.783      3.570
REMARK  3 active torsions:
REMARK  status: ('A' for Active; 'I' for Inactive)
REMARK    1  A    between atoms: C3_3  and  C4_4 
REMARK    2  A    between atoms: C8_8  and  O1_9 
REMARK    3  A    between atoms: O1_9  and  C9_10 
ROOT
HETATM    1  C9  UNL     1      25.362  -0.011  53.263  1.00  0.00     0.191 C 
HETATM    2  C10 UNL     1      26.286  -0.208  52.258  1.00  0.00     0.060 C 
HETATM    3  C11 UNL     1      27.125  -1.307  52.336  1.00  0.00     0.004 C 
HETATM    4  C12 UNL     1      28.180  -1.564  53.197  1.00  0.00     0.002 C 
HETATM    5  C13 UNL     1      29.204  -0.624  53.268  1.00  0.00     0.019 C 
HETATM    6  C14 UNL     1      28.679   0.612  53.573  1.00  0.00     0.118 C 
HETATM    7  N1  UNL     1      28.317   0.827  54.861  1.00  0.00    -0.252 NA
HETATM    8  C15 UNL     1      27.186   0.301  55.364  1.00  0.00     0.256 C 
HETATM    9  N2  UNL     1      26.221  -0.628  55.352  1.00  0.00    -0.141 NA
HETATM   10  N3  UNL     1      25.359  -0.779  54.372  1.00  0.00    -0.123 NA
ENDROOT
BRANCH   1  11
HETATM   11  O1  UNL     1      24.424   1.012  53.096  1.00  0.00    -0.291 OA
BRANCH  11  12
HETATM   12  C8  UNL     1      23.123   0.776  52.711  1.00  0.00     0.078 A 
HETATM   13  C7  UNL     1      22.161   0.434  53.635  1.00  0.00     0.037 A 
HETATM   14  C6  UNL     1      20.863   0.200  53.237  1.00  0.00     0.004 A 
HETATM   15  C5  UNL     1      20.604   0.328  51.891  1.00  0.00     0.011 A 
HETATM   16  C4  UNL     1      21.500   0.665  50.901  1.00  0.00    -0.034 A 
HETATM   17  C16 UNL     1      22.772   0.881  51.387  1.00  0.00     0.048 A 
BRANCH  16  18
HETATM   18  C3  UNL     1      21.226   0.801  49.487  1.00  0.00     0.007 C 
HETATM   19  C2  UNL     1      21.756   1.559  48.555  1.00  0.00    -0.030 C 
HETATM   20  C1  UNL     1      22.736   2.583  48.189  1.00  0.00     0.036 C 
ENDBRANCH  16  18
ENDBRANCH  11  12
ENDBRANCH   1  11
TORSDOF 3
ENDMDL
MODEL 4
REMARK VINA RESULT:      -7.9      0.941      2.957
REMARK  3 active torsions:
REMARK  status: ('A' for Active; 'I' for Inactive)
REMARK    1  A    between atoms: C3_3  and  C4_4 
REMARK    2  A    between atoms: C8_8  and  O1_9 
REMARK    3  A    between atoms: O1_9  and  C9_10 
ROOT
HETATM    1  C9  UNL     1      26.023   1.994  52.426  1.00  0.00     0.191 C 
HETATM    2  C10 UNL     1      26.832   2.451  53.444  1.00  0.00     0.060 C 
HETATM    3  C11 UNL     1      28.172   2.099  53.436  1.00  0.00     0.004 C 
HETATM    4  C12 UNL     1      28.773   0.872  53.667  1.00  0.00     0.002 C 
HETATM    5  C13 UNL     1      28.483   0.223  54.864  1.00  0.00     0.019 C 
HETATM    6  C14 UNL     1      27.121   0.076  54.996  1.00  0.00     0.118 C 
HETATM    7  N1  UNL     1      26.531  -0.897  54.261  1.00  0.00    -0.252 NA
HETATM    8  C15 UNL     1      26.315  -0.742  52.942  1.00  0.00     0.256 C 
HETATM    9  N2  UNL     1      26.615  -0.174  51.767  1.00  0.00    -0.141 NA
HETATM   10  N3  UNL     1      26.477   1.109  51.515  1.00  0.00    -0.123 NA
ENDROOT
BRANCH   1  11
HETATM   11  O1  UNL     1      24.714   2.480  52.364  1.00  0.00    -0.291 OA
BRANCH  11  12
HETATM   12  C8  UNL     1      23.623   1.661  52.164  1.00  0.00     0.078 A 
HETATM   13  C7  UNL     1      23.138   0.865  53.176  1.00  0.00     0.037 A 
HETATM   14  C6  UNL     1      22.047   0.052  52.963  1.00  0.00     0.004 A 
HETATM   15  C5  UNL     1      21.494   0.091  51.703  1.00  0.00     0.011 A 
HETATM   16  C4  UNL     1      21.911   0.854  50.635  1.00  0.00    -0.034 A 
HETATM   17  C16 UNL     1      23.006   1.636  50.937  1.00  0.00     0.048 A 
BRANCH  16  18
HETATM   18  C3  UNL     1      21.328   0.894  49.312  1.00  0.00     0.007 C 
HETATM   19  C2  UNL     1      21.560   1.657  48.269  1.00  0.00    -0.030 C 
HETATM   20  C1  UNL     1      22.321   2.758  47.675  1.00  0.00     0.036 C 
ENDBRANCH  16  18
ENDBRANCH  11  12
ENDBRANCH   1  11
TORSDOF 3
ENDMDL
MODEL 5
REMARK VINA RESULT:      -7.9      1.852      2.861
REMARK  3 active torsions:
REMARK  status: ('A' for Active; 'I' for Inactive)
REMARK    1  A    between atoms: C3_3  and  C4_4 
REMARK    2  A    between atoms: C8_8  and  O1_9 
REMARK    3  A    between atoms: O1_9  and  C9_10 
ROOT
HETATM    1  C9  UNL     1      25.346   0.167  53.025  1.00  0.00     0.191 C 
HETATM    2  C10 UNL     1      26.331  -0.091  52.095  1.00  0.00     0.060 C 
HETATM    3  C11 UNL     1      27.057  -1.265  52.207  1.00  0.00     0.004 C 
HETATM    4  C12 UNL     1      28.007  -1.640  53.144  1.00  0.00     0.002 C 
HETATM    5  C13 UNL     1      29.102  -0.801  53.329  1.00  0.00     0.019 C 
HETATM    6  C14 UNL     1      28.668   0.470  53.629  1.00  0.00     0.118 C 
HETATM    7  N1  UNL     1      28.218   0.687  54.889  1.00  0.00    -0.252 NA
HETATM    8  C15 UNL     1      27.004   0.257  55.280  1.00  0.00     0.256 C 
HETATM    9  N2  UNL     1      25.964  -0.577  55.158  1.00  0.00    -0.141 NA
HETATM   10  N3  UNL     1      25.178  -0.624  54.105  1.00  0.00    -0.123 NA
ENDROOT
BRANCH   1  11
HETATM   11  O1  UNL     1      24.523   1.277  52.813  1.00  0.00    -0.291 OA
BRANCH  11  12
HETATM   12  C8  UNL     1      23.395   1.229  52.024  1.00  0.00     0.078 A 
HETATM   13  C7  UNL     1      23.402   1.735  50.744  1.00  0.00     0.037 A 
HETATM   14  C6  UNL     1      22.267   1.680  49.965  1.00  0.00     0.004 A 
HETATM   15  C5  UNL     1      21.159   1.101  50.541  1.00  0.00     0.011 A 
HETATM   16  C4  UNL     1      21.062   0.570  51.809  1.00  0.00    -0.034 A 
HETATM   17  C16 UNL     1      22.241   0.667  52.516  1.00  0.00     0.048 A 
BRANCH  16  18
HETATM   18  C3  UNL     1      19.897  -0.040  52.411  1.00  0.00     0.007 C 
HETATM   19  C2  UNL     1      18.676  -0.235  51.970  1.00  0.00    -0.030 C 
HETATM   20  C1  UNL     1      17.706  -0.088  50.883  1.00  0.00     0.036 C 
ENDBRANCH  16  18
ENDBRANCH  11  12
ENDBRANCH   1  11
TORSDOF 3
ENDMDL
MODEL 6
REMARK VINA RESULT:      -7.4      3.772      6.086
REMARK  3 active torsions:
REMARK  status: ('A' for Active; 'I' for Inactive)
REMARK    1  A    between atoms: C3_3  and  C4_4 
REMARK    2  A    between atoms: C8_8  and  O1_9 
REMARK    3  A    between atoms: O1_9  and  C9_10 
ROOT
HETATM    1  C9  UNL     1      26.647   2.223  51.603  1.00  0.00     0.191 C 
HETATM    2  C10 UNL     1      25.454   1.668  52.015  1.00  0.00     0.060 C 
HETATM    3  C11 UNL     1      25.215   1.540  53.373  1.00  0.00     0.004 C 
HETATM    4  C12 UNL     1      25.796   0.693  54.304  1.00  0.00     0.002 C 
HETATM    5  C13 UNL     1      25.765  -0.674  54.045  1.00  0.00     0.019 C 
HETATM    6  C14 UNL     1      26.325  -0.927  52.813  1.00  0.00     0.118 C 
HETATM    7  N1  UNL     1      27.677  -0.885  52.729  1.00  0.00    -0.252 NA
HETATM    8  C15 UNL     1      28.338   0.286  52.711  1.00  0.00     0.256 C 
HETATM    9  N2  UNL     1      28.415   1.591  53.002  1.00  0.00    -0.141 NA
HETATM   10  N3  UNL     1      27.628   2.507  52.484  1.00  0.00    -0.123 NA
ENDROOT
BRANCH   1  11
HETATM   11  O1  UNL     1      26.809   2.484  50.239  1.00  0.00    -0.291 OA
BRANCH  11  12
HETATM   12  C8  UNL     1      26.440   3.678  49.660  1.00  0.00     0.078 A 
HETATM   13  C7  UNL     1      25.116   4.046  49.572  1.00  0.00     0.037 A 
HETATM   14  C6  UNL     1      24.761   5.243  48.990  1.00  0.00     0.004 A 
HETATM   15  C5  UNL     1      25.793   6.022  48.517  1.00  0.00     0.011 A 
HETATM   16  C4  UNL     1      27.139   5.735  48.562  1.00  0.00    -0.034 A 
HETATM   17  C16 UNL     1      27.404   4.521  49.159  1.00  0.00     0.048 A 
BRANCH  16  18
HETATM   18  C3  UNL     1      28.222   6.555  48.064  1.00  0.00     0.007 C 
HETATM   19  C2  UNL     1      29.487   6.296  47.826  1.00  0.00    -0.030 C 
HETATM   20  C1  UNL     1      30.582   5.324  47.832  1.00  0.00     0.036 C 
ENDBRANCH  16  18
ENDBRANCH  11  12
ENDBRANCH   1  11
TORSDOF 3
ENDMDL
MODEL 7
REMARK VINA RESULT:      -7.4      1.901      2.814
REMARK  3 active torsions:
REMARK  status: ('A' for Active; 'I' for Inactive)
REMARK    1  A    between atoms: C3_3  and  C4_4 
REMARK    2  A    between atoms: C8_8  and  O1_9 
REMARK    3  A    between atoms: O1_9  and  C9_10 
ROOT
HETATM    1  C9  UNL     1      26.309   1.997  52.408  1.00  0.00     0.191 C 
HETATM    2  C10 UNL     1      27.169   2.419  53.400  1.00  0.00     0.060 C 
HETATM    3  C11 UNL     1      28.474   1.955  53.388  1.00  0.00     0.004 C 
HETATM    4  C12 UNL     1      28.972   0.690  53.656  1.00  0.00     0.002 C 
HETATM    5  C13 UNL     1      28.648   0.110  54.879  1.00  0.00     0.019 C 
HETATM    6  C14 UNL     1      27.280   0.084  55.032  1.00  0.00     0.118 C 
HETATM    7  N1  UNL     1      26.599  -0.862  54.340  1.00  0.00    -0.252 NA
HETATM    8  C15 UNL     1      26.377  -0.734  53.019  1.00  0.00     0.256 C 
HETATM    9  N2  UNL     1      26.705  -0.235  51.821  1.00  0.00    -0.141 NA
HETATM   10  N3  UNL     1      26.672   1.045  51.524  1.00  0.00    -0.123 NA
ENDROOT
BRANCH   1  11
HETATM   11  O1  UNL     1      25.044   2.589  52.345  1.00  0.00    -0.291 OA
BRANCH  11  12
HETATM   12  C8  UNL     1      24.318   2.676  51.178  1.00  0.00     0.078 A 
HETATM   13  C7  UNL     1      24.642   3.596  50.207  1.00  0.00     0.037 A 
HETATM   14  C6  UNL     1      23.907   3.672  49.044  1.00  0.00     0.004 A 
HETATM   15  C5  UNL     1      22.859   2.788  48.925  1.00  0.00     0.011 A 
HETATM   16  C4  UNL     1      22.466   1.837  49.841  1.00  0.00    -0.034 A 
HETATM   17  C16 UNL     1      23.254   1.831  50.972  1.00  0.00     0.048 A 
BRANCH  16  18
HETATM   18  C3  UNL     1      21.364   0.908  49.714  1.00  0.00     0.007 C 
HETATM   19  C2  UNL     1      20.062   1.076  49.735  1.00  0.00    -0.030 C 
HETATM   20  C1  UNL     1      18.926   1.990  49.859  1.00  0.00     0.036 C 
ENDBRANCH  16  18
ENDBRANCH  11  12
ENDBRANCH   1  11
TORSDOF 3
ENDMDL
MODEL 8
REMARK VINA RESULT:      -7.3      2.428      5.040
REMARK  3 active torsions:
REMARK  status: ('A' for Active; 'I' for Inactive)
REMARK    1  A    between atoms: C3_3  and  C4_4 
REMARK    2  A    between atoms: C8_8  and  O1_9 
REMARK    3  A    between atoms: O1_9  and  C9_10 
ROOT
HETATM    1  C9  UNL     1      21.513   1.760  51.289  1.00  0.00     0.191 C 
HETATM    2  C10 UNL     1      21.247   2.684  52.277  1.00  0.00     0.060 C 
HETATM    3  C11 UNL     1      21.277   4.030  51.952  1.00  0.00     0.004 C 
HETATM    4  C12 UNL     1      22.352   4.848  51.640  1.00  0.00     0.002 C 
HETATM    5  C13 UNL     1      23.401   4.918  52.553  1.00  0.00     0.019 C 
HETATM    6  C14 UNL     1      23.874   3.653  52.816  1.00  0.00     0.118 C 
HETATM    7  N1  UNL     1      24.660   3.080  51.873  1.00  0.00    -0.252 NA
HETATM    8  C15 UNL     1      24.136   2.572  50.743  1.00  0.00     0.256 C 
HETATM    9  N2  UNL     1      23.167   2.528  49.819  1.00  0.00    -0.141 NA
HETATM   10  N3  UNL     1      21.934   2.144  50.066  1.00  0.00    -0.123 NA
ENDROOT
BRANCH   1  11
HETATM   11  O1  UNL     1      21.330   0.408  51.593  1.00  0.00    -0.291 OA
BRANCH  11  12
HETATM   12  C8  UNL     1      21.826  -0.172  52.740  1.00  0.00     0.078 A 
HETATM   13  C7  UNL     1      20.992  -0.806  53.632  1.00  0.00     0.037 A 
HETATM   14  C6  UNL     1      21.501  -1.383  54.775  1.00  0.00     0.004 A 
HETATM   15  C5  UNL     1      22.862  -1.282  54.955  1.00  0.00     0.011 A 
HETATM   16  C4  UNL     1      23.768  -0.670  54.118  1.00  0.00    -0.034 A 
HETATM   17  C16 UNL     1      23.174  -0.122  53.002  1.00  0.00     0.048 A 
BRANCH  16  18
HETATM   18  C3  UNL     1      25.199  -0.567  54.309  1.00  0.00     0.007 C 
HETATM   19  C2  UNL     1      26.191  -0.407  53.465  1.00  0.00    -0.030 C 
HETATM   20  C1  UNL     1      26.635  -0.244  52.080  1.00  0.00     0.036 C 
ENDBRANCH  16  18
ENDBRANCH  11  12
ENDBRANCH   1  11
TORSDOF 3
ENDMDL
MODEL 9
REMARK VINA RESULT:      -7.2      2.805      5.717
REMARK  3 active torsions:
REMARK  status: ('A' for Active; 'I' for Inactive)
REMARK    1  A    between atoms: C3_3  and  C4_4 
REMARK    2  A    between atoms: C8_8  and  O1_9 
REMARK    3  A    between atoms: O1_9  and  C9_10 
ROOT
HETATM    1  C9  UNL     1      23.683   3.503  51.582  1.00  0.00     0.191 C 
HETATM    2  C10 UNL     1      24.181   2.826  50.489  1.00  0.00     0.060 C 
HETATM    3  C11 UNL     1      23.752   3.197  49.226  1.00  0.00     0.004 C 
HETATM    4  C12 UNL     1      22.517   3.031  48.619  1.00  0.00     0.002 C 
HETATM    5  C13 UNL     1      21.996   1.742  48.551  1.00  0.00     0.019 C 
HETATM    6  C14 UNL     1      21.942   1.195  49.813  1.00  0.00     0.118 C 
HETATM    7  N1  UNL     1      20.942   1.616  50.626  1.00  0.00    -0.252 NA
HETATM    8  C15 UNL     1      20.992   2.819  51.226  1.00  0.00     0.256 C 
HETATM    9  N2  UNL     1      21.433   4.082  51.281  1.00  0.00    -0.141 NA
HETATM   10  N3  UNL     1      22.695   4.412  51.451  1.00  0.00    -0.123 NA
ENDROOT
BRANCH   1  11
HETATM   11  O1  UNL     1      24.237   3.221  52.834  1.00  0.00    -0.291 OA
BRANCH  11  12
HETATM   12  C8  UNL     1      24.667   1.962  53.192  1.00  0.00     0.078 A 
HETATM   13  C7  UNL     1      23.835   0.871  53.088  1.00  0.00     0.037 A 
HETATM   14  C6  UNL     1      24.279  -0.383  53.449  1.00  0.00     0.004 A 
HETATM   15  C5  UNL     1      25.574  -0.463  53.908  1.00  0.00     0.011 A 
HETATM   16  C4  UNL     1      26.474   0.571  54.044  1.00  0.00    -0.034 A 
HETATM   17  C16 UNL     1      25.947   1.786  53.660  1.00  0.00     0.048 A 
BRANCH  16  18
HETATM   18  C3  UNL     1      27.835   0.484  54.525  1.00  0.00     0.007 C 
HETATM   19  C2  UNL     1      28.832  -0.310  54.211  1.00  0.00    -0.030 C 
HETATM   20  C1  UNL     1      29.332  -1.422  53.400  1.00  0.00     0.036 C 
ENDBRANCH  16  18
ENDBRANCH  11  12
ENDBRANCH   1  11
TORSDOF 3
ENDMDL
