MODEL 1
REMARK VINA RESULT:      -8.1      0.000      0.000
REMARK  2 active torsions:
REMARK  status: ('A' for Active; 'I' for Inactive)
REMARK    1  A    between atoms: N1_9  and  C9_10 
REMARK    2  A    between atoms: C9_10  and  C10_11 
ROOT
HETATM    1  C1  UNL     1      22.087   4.787  52.699  1.00  0.00     0.050 C 
HETATM    2  C2  UNL     1      21.895   3.943  51.512  1.00  0.00    -0.037 C 
HETATM    3  C3  UNL     1      22.323   4.381  50.338  1.00  0.00    -0.009 C 
HETATM    4  C4  UNL     1      23.116   3.434  49.468  1.00  0.00     0.035 C 
HETATM    5  C5  UNL     1      24.202   2.760  50.172  1.00  0.00    -0.012 C 
HETATM    6  C6  UNL     1      25.128   2.115  50.869  1.00  0.00    -0.038 C 
HETATM    7  C7  UNL     1      26.610   2.003  50.756  1.00  0.00     0.067 C 
HETATM    8  C8  UNL     1      27.006   2.378  52.203  1.00  0.00     0.279 C 
HETATM    9  N1  UNL     1      25.932   1.841  53.014  1.00  0.00     0.111 N 
HETATM   10  C16 UNL     1      25.014   1.224  52.106  1.00  0.00     0.318 C 
HETATM   11  S1  UNL     1      23.319   1.514  52.683  1.00  0.00    -0.099 SA
HETATM   12  C17 UNL     1      22.208   0.241  52.047  1.00  0.00     0.081 C 
HETATM   13  C18 UNL     1      20.993   0.539  52.416  1.00  0.00     0.093 C 
HETATM   14  N2  UNL     1      20.632   1.756  52.471  1.00  0.00    -0.246 NA
HETATM   15  C19 UNL     1      21.253   2.628  51.542  1.00  0.00     0.059 C 
HETATM   16  C20 UNL     1      21.272   2.178  50.266  1.00  0.00     0.006 C 
HETATM   17  C21 UNL     1      22.092   2.403  49.014  1.00  0.00     0.042 C 
ENDROOT
BRANCH   9  18
HETATM   18  C9  UNL     1      26.341   1.043  54.118  1.00  0.00     0.313 C 
BRANCH  18  19
HETATM   19  C10 UNL     1      27.129  -0.137  53.695  1.00  0.00    -0.030 A 
HETATM   20  C11 UNL     1      28.490  -0.076  53.999  1.00  0.00     0.009 A 
HETATM   21  C12 UNL     1      29.391  -1.076  53.694  1.00  0.00     0.001 A 
HETATM   22  C13 UNL     1      28.970  -2.204  53.061  1.00  0.00     0.000 A 
HETATM   23  C14 UNL     1      27.613  -2.281  52.749  1.00  0.00     0.001 A 
HETATM   24  C15 UNL     1      26.734  -1.282  53.058  1.00  0.00     0.009 A 
ENDBRANCH  18  19
ENDBRANCH   9  18
TORSDOF 2
ENDMDL
MODEL 2
REMARK VINA RESULT:      -8.0      1.648      3.105
REMARK  2 active torsions:
REMARK  status: ('A' for Active; 'I' for Inactive)
REMARK    1  A    between atoms: N1_9  and  C9_10 
REMARK    2  A    between atoms: C9_10  and  C10_11 
ROOT
HETATM    1  C1  UNL     1      20.970  -0.153  51.676  1.00  0.00     0.050 C 
HETATM    2  C2  UNL     1      20.457   1.127  51.170  1.00  0.00    -0.037 C 
HETATM    3  C3  UNL     1      19.782   1.917  51.991  1.00  0.00    -0.009 C 
HETATM    4  C4  UNL     1      20.138   3.385  52.024  1.00  0.00     0.035 C 
HETATM    5  C5  UNL     1      21.569   3.639  52.157  1.00  0.00    -0.012 C 
HETATM    6  C6  UNL     1      22.882   3.823  52.201  1.00  0.00    -0.038 C 
HETATM    7  C7  UNL     1      23.792   4.520  53.154  1.00  0.00     0.067 C 
HETATM    8  C8  UNL     1      24.806   3.382  53.419  1.00  0.00     0.279 C 
HETATM    9  N1  UNL     1      24.884   2.677  52.156  1.00  0.00     0.111 N 
HETATM   10  C16 UNL     1      23.994   3.354  51.262  1.00  0.00     0.318 C 
HETATM   11  S1  UNL     1      23.168   2.133  50.205  1.00  0.00    -0.099 SA
HETATM   12  C17 UNL     1      22.618   2.900  48.666  1.00  0.00     0.081 C 
HETATM   13  C18 UNL     1      21.959   2.008  47.979  1.00  0.00     0.093 C 
HETATM   14  N2  UNL     1      21.234   1.158  48.584  1.00  0.00    -0.246 NA
HETATM   15  C19 UNL     1      20.648   1.596  49.798  1.00  0.00     0.059 C 
HETATM   16  C20 UNL     1      20.039   2.802  49.730  1.00  0.00     0.006 C 
HETATM   17  C21 UNL     1      19.654   3.914  50.682  1.00  0.00     0.042 C 
ENDROOT
BRANCH   9  18
HETATM   18  C9  UNL     1      26.200   2.451  51.663  1.00  0.00     0.313 C 
BRANCH  18  19
HETATM   19  C10 UNL     1      26.801   1.217  52.220  1.00  0.00    -0.030 A 
HETATM   20  C11 UNL     1      27.953   1.416  52.983  1.00  0.00     0.009 A 
HETATM   21  C12 UNL     1      28.655   0.395  53.591  1.00  0.00     0.001 A 
HETATM   22  C13 UNL     1      28.236  -0.892  53.466  1.00  0.00     0.000 A 
HETATM   23  C14 UNL     1      27.086  -1.108  52.707  1.00  0.00     0.001 A 
HETATM   24  C15 UNL     1      26.401  -0.088  52.112  1.00  0.00     0.009 A 
ENDBRANCH  18  19
ENDBRANCH   9  18
TORSDOF 2
ENDMDL
MODEL 3
REMARK VINA RESULT:      -8.0      1.631      3.208
REMARK  2 active torsions:
REMARK  status: ('A' for Active; 'I' for Inactive)
REMARK    1  A    between atoms: N1_9  and  C9_10 
REMARK    2  A    between atoms: C9_10  and  C10_11 
ROOT
HETATM    1  C1  UNL     1      21.975   1.352  48.661  1.00  0.00     0.050 C 
HETATM    2  C2  UNL     1      21.005   1.821  49.659  1.00  0.00    -0.037 C 
HETATM    3  C3  UNL     1      20.070   0.986  50.088  1.00  0.00    -0.009 C 
HETATM    4  C4  UNL     1      19.823   0.891  51.575  1.00  0.00     0.035 C 
HETATM    5  C5  UNL     1      21.040   0.718  52.362  1.00  0.00    -0.012 C 
HETATM    6  C6  UNL     1      22.176   0.640  53.042  1.00  0.00    -0.038 C 
HETATM    7  C7  UNL     1      22.736  -0.357  53.998  1.00  0.00     0.067 C 
HETATM    8  C8  UNL     1      24.113  -0.601  53.336  1.00  0.00     0.279 C 
HETATM    9  N1  UNL     1      24.467   0.686  52.773  1.00  0.00     0.111 N 
HETATM   10  C16 UNL     1      23.387   1.572  53.085  1.00  0.00     0.318 C 
HETATM   11  S1  UNL     1      23.111   2.691  51.685  1.00  0.00    -0.099 SA
HETATM   12  C17 UNL     1      22.312   4.212  52.241  1.00  0.00     0.081 C 
HETATM   13  C18 UNL     1      22.058   4.945  51.192  1.00  0.00     0.093 C 
HETATM   14  N2  UNL     1      21.720   4.388  50.101  1.00  0.00    -0.246 NA
HETATM   15  C19 UNL     1      21.003   3.171  50.224  1.00  0.00     0.059 C 
HETATM   16  C20 UNL     1      19.971   3.206  51.098  1.00  0.00     0.006 C 
HETATM   17  C21 UNL     1      19.177   2.222  51.929  1.00  0.00     0.042 C 
ENDROOT
BRANCH   9  18
HETATM   18  C9  UNL     1      25.769   1.158  53.099  1.00  0.00     0.313 C 
BRANCH  18  19
HETATM   19  C10 UNL     1      26.773   0.070  53.107  1.00  0.00    -0.030 A 
HETATM   20  C11 UNL     1      27.920   0.333  53.858  1.00  0.00     0.009 A 
HETATM   21  C12 UNL     1      28.968  -0.555  53.996  1.00  0.00     0.001 A 
HETATM   22  C13 UNL     1      28.921  -1.767  53.380  1.00  0.00     0.000 A 
HETATM   23  C14 UNL     1      27.782  -2.046  52.625  1.00  0.00     0.001 A 
HETATM   24  C15 UNL     1      26.753  -1.156  52.499  1.00  0.00     0.009 A 
ENDBRANCH  18  19
ENDBRANCH   9  18
TORSDOF 2
ENDMDL
MODEL 4
REMARK VINA RESULT:      -7.6      3.595      6.198
REMARK  2 active torsions:
REMARK  status: ('A' for Active; 'I' for Inactive)
REMARK    1  A    between atoms: N1_9  and  C9_10 
REMARK    2  A    between atoms: C9_10  and  C10_11 
ROOT
HETATM    1  C1  UNL     1      24.468   2.252  51.293  1.00  0.00     0.050 C 
HETATM    2  C2  UNL     1      23.027   2.528  51.228  1.00  0.00    -0.037 C 
HETATM    3  C3  UNL     1      22.413   2.990  52.307  1.00  0.00    -0.009 C 
HETATM    4  C4  UNL     1      21.481   4.169  52.150  1.00  0.00     0.035 C 
HETATM    5  C5  UNL     1      22.058   5.277  51.395  1.00  0.00    -0.012 C 
HETATM    6  C6  UNL     1      22.593   6.226  50.640  1.00  0.00    -0.038 C 
HETATM    7  C7  UNL     1      22.899   7.668  50.862  1.00  0.00     0.067 C 
HETATM    8  C8  UNL     1      24.385   7.684  50.435  1.00  0.00     0.279 C 
HETATM    9  N1  UNL     1      24.456   6.707  49.367  1.00  0.00     0.111 N 
HETATM   10  C16 UNL     1      23.132   6.188  49.209  1.00  0.00     0.318 C 
HETATM   11  S1  UNL     1      23.228   4.414  48.841  1.00  0.00    -0.099 SA
HETATM   12  C17 UNL     1      21.745   3.870  47.966  1.00  0.00     0.081 C 
HETATM   13  C18 UNL     1      21.822   2.578  47.799  1.00  0.00     0.093 C 
HETATM   14  N2  UNL     1      22.353   1.858  48.700  1.00  0.00    -0.246 NA
HETATM   15  C19 UNL     1      22.211   2.326  50.031  1.00  0.00     0.059 C 
HETATM   16  C20 UNL     1      20.955   2.694  50.372  1.00  0.00     0.006 C 
HETATM   17  C21 UNL     1      20.293   3.601  51.386  1.00  0.00     0.042 C 
ENDROOT
BRANCH   9  18
HETATM   18  C9  UNL     1      25.092   7.152  48.174  1.00  0.00     0.313 C 
BRANCH  18  19
HETATM   19  C10 UNL     1      26.517   6.755  48.118  1.00  0.00    -0.030 A 
HETATM   20  C11 UNL     1      26.794   5.482  48.621  1.00  0.00     0.009 A 
HETATM   21  C12 UNL     1      28.057   4.927  48.651  1.00  0.00     0.001 A 
HETATM   22  C13 UNL     1      29.121   5.625  48.173  1.00  0.00     0.000 A 
HETATM   23  C14 UNL     1      28.863   6.898  47.666  1.00  0.00     0.001 A 
HETATM   24  C15 UNL     1      27.606   7.434  47.643  1.00  0.00     0.009 A 
ENDBRANCH  18  19
ENDBRANCH   9  18
TORSDOF 2
ENDMDL
MODEL 5
REMARK VINA RESULT:      -7.6      3.008      5.229
REMARK  2 active torsions:
REMARK  status: ('A' for Active; 'I' for Inactive)
REMARK    1  A    between atoms: N1_9  and  C9_10 
REMARK    2  A    between atoms: C9_10  and  C10_11 
ROOT
HETATM    1  C1  UNL     1      22.680   4.787  47.583  1.00  0.00     0.050 C 
HETATM    2  C2  UNL     1      23.261   5.413  48.778  1.00  0.00    -0.037 C 
HETATM    3  C3  UNL     1      22.604   6.398  49.371  1.00  0.00    -0.009 C 
HETATM    4  C4  UNL     1      22.451   6.354  50.873  1.00  0.00     0.035 C 
HETATM    5  C5  UNL     1      21.979   5.068  51.378  1.00  0.00    -0.012 C 
HETATM    6  C6  UNL     1      21.622   3.862  51.798  1.00  0.00    -0.038 C 
HETATM    7  C7  UNL     1      20.464   3.346  52.583  1.00  0.00     0.067 C 
HETATM    8  C8  UNL     1      19.996   2.216  51.637  1.00  0.00     0.279 C 
HETATM    9  N1  UNL     1      21.222   1.717  51.049  1.00  0.00     0.111 N 
HETATM   10  C16 UNL     1      22.283   2.497  51.610  1.00  0.00     0.318 C 
HETATM   11  S1  UNL     1      23.535   2.805  50.334  1.00  0.00    -0.099 SA
HETATM   12  C17 UNL     1      25.141   3.132  51.091  1.00  0.00     0.081 C 
HETATM   13  C18 UNL     1      25.985   3.430  50.142  1.00  0.00     0.093 C 
HETATM   14  N2  UNL     1      25.590   4.092  49.133  1.00  0.00    -0.246 NA
HETATM   15  C19 UNL     1      24.538   5.012  49.369  1.00  0.00     0.059 C 
HETATM   16  C20 UNL     1      24.718   5.814  50.444  1.00  0.00     0.006 C 
HETATM   17  C21 UNL     1      23.856   6.615  51.396  1.00  0.00     0.042 C 
ENDROOT
BRANCH   9  18
HETATM   18  C9  UNL     1      21.396   0.306  51.104  1.00  0.00     0.313 C 
BRANCH  18  19
HETATM   19  C10 UNL     1      21.923  -0.142  52.414  1.00  0.00    -0.030 A 
HETATM   20  C11 UNL     1      20.955  -0.584  53.318  1.00  0.00     0.009 A 
HETATM   21  C12 UNL     1      21.244  -1.047  54.586  1.00  0.00     0.001 A 
HETATM   22  C13 UNL     1      22.533  -1.092  55.019  1.00  0.00     0.000 A 
HETATM   23  C14 UNL     1      23.512  -0.655  54.128  1.00  0.00     0.001 A 
HETATM   24  C15 UNL     1      23.210  -0.200  52.876  1.00  0.00     0.009 A 
ENDBRANCH  18  19
ENDBRANCH   9  18
TORSDOF 2
ENDMDL
MODEL 6
REMARK VINA RESULT:      -7.4      1.962      4.248
REMARK  2 active torsions:
REMARK  status: ('A' for Active; 'I' for Inactive)
REMARK    1  A    between atoms: N1_9  and  C9_10 
REMARK    2  A    between atoms: C9_10  and  C10_11 
ROOT
HETATM    1  C1  UNL     1      22.574   2.372  47.826  1.00  0.00     0.050 C 
HETATM    2  C2  UNL     1      21.369   3.106  48.234  1.00  0.00    -0.037 C 
HETATM    3  C3  UNL     1      20.180   2.603  47.938  1.00  0.00    -0.009 C 
HETATM    4  C4  UNL     1      19.129   2.562  49.022  1.00  0.00     0.035 C 
HETATM    5  C5  UNL     1      19.607   1.997  50.281  1.00  0.00    -0.012 C 
HETATM    6  C6  UNL     1      20.103   1.548  51.426  1.00  0.00    -0.038 C 
HETATM    7  C7  UNL     1      19.759   0.407  52.320  1.00  0.00     0.067 C 
HETATM    8  C8  UNL     1      21.154  -0.249  52.448  1.00  0.00     0.279 C 
HETATM    9  N1  UNL     1      22.074   0.869  52.415  1.00  0.00     0.111 N 
HETATM   10  C16 UNL     1      21.271   2.046  52.277  1.00  0.00     0.318 C 
HETATM   11  S1  UNL     1      22.119   3.222  51.188  1.00  0.00    -0.099 SA
HETATM   12  C17 UNL     1      21.562   4.907  51.522  1.00  0.00     0.081 C 
HETATM   13  C18 UNL     1      22.134   5.703  50.660  1.00  0.00     0.093 C 
HETATM   14  N2  UNL     1      22.336   5.303  49.472  1.00  0.00    -0.246 NA
HETATM   15  C19 UNL     1      21.394   4.375  48.962  1.00  0.00     0.059 C 
HETATM   16  C20 UNL     1      20.099   4.719  49.151  1.00  0.00     0.006 C 
HETATM   17  C21 UNL     1      18.758   4.022  49.233  1.00  0.00     0.042 C 
ENDROOT
BRANCH   9  18
HETATM   18  C9  UNL     1      23.039   0.897  53.460  1.00  0.00     0.313 C 
BRANCH  18  19
HETATM   19  C10 UNL     1      24.397   0.560  52.977  1.00  0.00    -0.030 A 
HETATM   20  C11 UNL     1      24.927  -0.625  53.492  1.00  0.00     0.009 A 
HETATM   21  C12 UNL     1      26.174  -1.116  53.160  1.00  0.00     0.001 A 
HETATM   22  C13 UNL     1      26.964  -0.437  52.286  1.00  0.00     0.000 A 
HETATM   23  C14 UNL     1      26.450   0.748  51.762  1.00  0.00     0.001 A 
HETATM   24  C15 UNL     1      25.213   1.221  52.100  1.00  0.00     0.009 A 
ENDBRANCH  18  19
ENDBRANCH   9  18
TORSDOF 2
ENDMDL
MODEL 7
REMARK VINA RESULT:      -7.4      5.086      7.543
REMARK  2 active torsions:
REMARK  status: ('A' for Active; 'I' for Inactive)
REMARK    1  A    between atoms: N1_9  and  C9_10 
REMARK    2  A    between atoms: C9_10  and  C10_11 
ROOT
HETATM    1  C1  UNL     1      27.241   9.294  50.513  1.00  0.00     0.050 C 
HETATM    2  C2  UNL     1      27.574   8.877  49.144  1.00  0.00    -0.037 C 
HETATM    3  C3  UNL     1      28.724   8.257  48.924  1.00  0.00    -0.009 C 
HETATM    4  C4  UNL     1      28.711   7.008  48.074  1.00  0.00     0.035 C 
HETATM    5  C5  UNL     1      27.692   6.040  48.468  1.00  0.00    -0.012 C 
HETATM    6  C6  UNL     1      26.705   5.224  48.812  1.00  0.00    -0.038 C 
HETATM    7  C7  UNL     1      26.653   3.807  49.272  1.00  0.00     0.067 C 
HETATM    8  C8  UNL     1      25.806   3.985  50.554  1.00  0.00     0.279 C 
HETATM    9  N1  UNL     1      24.889   5.057  50.226  1.00  0.00     0.111 N 
HETATM   10  C16 UNL     1      25.195   5.450  48.884  1.00  0.00     0.318 C 
HETATM   11  S1  UNL     1      25.028   7.250  48.737  1.00  0.00    -0.099 SA
HETATM   12  C17 UNL     1      24.703   7.717  47.023  1.00  0.00     0.081 C 
HETATM   13  C18 UNL     1      24.676   9.019  46.954  1.00  0.00     0.093 C 
HETATM   14  N2  UNL     1      25.459   9.705  47.683  1.00  0.00    -0.246 NA
HETATM   15  C19 UNL     1      26.706   9.104  47.989  1.00  0.00     0.059 C 
HETATM   16  C20 UNL     1      27.358   8.578  46.926  1.00  0.00     0.006 C 
HETATM   17  C21 UNL     1      28.407   7.518  46.672  1.00  0.00     0.042 C 
ENDROOT
BRANCH   9  18
HETATM   18  C9  UNL     1      23.517   4.792  50.495  1.00  0.00     0.313 C 
BRANCH  18  19
HETATM   19  C10 UNL     1      22.984   3.694  49.657  1.00  0.00    -0.030 A 
HETATM   20  C11 UNL     1      22.584   2.557  50.362  1.00  0.00     0.009 A 
HETATM   21  C12 UNL     1      22.055   1.431  49.764  1.00  0.00     0.001 A 
HETATM   22  C13 UNL     1      21.898   1.384  48.414  1.00  0.00     0.000 A 
HETATM   23  C14 UNL     1      22.293   2.512  47.695  1.00  0.00     0.001 A 
HETATM   24  C15 UNL     1      22.814   3.619  48.301  1.00  0.00     0.009 A 
ENDBRANCH  18  19
ENDBRANCH   9  18
TORSDOF 2
ENDMDL
MODEL 8
REMARK VINA RESULT:      -7.3      3.134      4.966
REMARK  2 active torsions:
REMARK  status: ('A' for Active; 'I' for Inactive)
REMARK    1  A    between atoms: N1_9  and  C9_10 
REMARK    2  A    between atoms: C9_10  and  C10_11 
ROOT
HETATM    1  C1  UNL     1      21.917   6.878  51.203  1.00  0.00     0.050 C 
HETATM    2  C2  UNL     1      22.901   6.911  50.113  1.00  0.00    -0.037 C 
HETATM    3  C3  UNL     1      24.136   7.312  50.374  1.00  0.00    -0.009 C 
HETATM    4  C4  UNL     1      25.284   6.484  49.845  1.00  0.00     0.035 C 
HETATM    5  C5  UNL     1      25.156   5.057  50.125  1.00  0.00    -0.012 C 
HETATM    6  C6  UNL     1      24.962   3.762  50.333  1.00  0.00    -0.038 C 
HETATM    7  C7  UNL     1      25.734   2.708  51.050  1.00  0.00     0.067 C 
HETATM    8  C8  UNL     1      24.617   2.147  51.961  1.00  0.00     0.279 C 
HETATM    9  N1  UNL     1      23.416   2.262  51.159  1.00  0.00     0.111 N 
HETATM   10  C16 UNL     1      23.820   2.837  49.912  1.00  0.00     0.318 C 
HETATM   11  S1  UNL     1      22.535   3.984  49.341  1.00  0.00    -0.099 SA
HETATM   12  C17 UNL     1      22.619   4.184  47.549  1.00  0.00     0.081 C 
HETATM   13  C18 UNL     1      21.736   5.078  47.198  1.00  0.00     0.093 C 
HETATM   14  N2  UNL     1      21.507   6.069  47.958  1.00  0.00    -0.246 NA
HETATM   15  C19 UNL     1      22.604   6.521  48.734  1.00  0.00     0.059 C 
HETATM   16  C20 UNL     1      23.757   6.685  48.045  1.00  0.00     0.006 C 
HETATM   17  C21 UNL     1      25.240   6.710  48.341  1.00  0.00     0.042 C 
ENDROOT
BRANCH   9  18
HETATM   18  C9  UNL     1      22.627   1.081  51.068  1.00  0.00     0.313 C 
BRANCH  18  19
HETATM   19  C10 UNL     1      22.360   0.483  52.396  1.00  0.00    -0.030 A 
HETATM   20  C11 UNL     1      21.230   0.979  53.049  1.00  0.00     0.009 A 
HETATM   21  C12 UNL     1      20.810   0.546  54.290  1.00  0.00     0.001 A 
HETATM   22  C13 UNL     1      21.507  -0.417  54.950  1.00  0.00     0.000 A 
HETATM   23  C14 UNL     1      22.639  -0.923  54.312  1.00  0.00     0.001 A 
HETATM   24  C15 UNL     1      23.042  -0.485  53.083  1.00  0.00     0.009 A 
ENDBRANCH  18  19
ENDBRANCH   9  18
TORSDOF 2
ENDMDL
MODEL 9
REMARK VINA RESULT:      -7.2      8.091     10.988
REMARK  2 active torsions:
REMARK  status: ('A' for Active; 'I' for Inactive)
REMARK    1  A    between atoms: N1_9  and  C9_10 
REMARK    2  A    between atoms: C9_10  and  C10_11 
ROOT
HETATM    1  C1  UNL     1      31.819   3.747  46.320  1.00  0.00     0.050 C 
HETATM    2  C2  UNL     1      32.738   4.837  45.970  1.00  0.00    -0.037 C 
HETATM    3  C3  UNL     1      32.894   5.161  44.695  1.00  0.00    -0.009 C 
HETATM    4  C4  UNL     1      32.843   6.623  44.318  1.00  0.00     0.035 C 
HETATM    5  C5  UNL     1      31.695   7.333  44.874  1.00  0.00    -0.012 C 
HETATM    6  C6  UNL     1      30.682   7.955  45.462  1.00  0.00    -0.038 C 
HETATM    7  C7  UNL     1      29.512   8.726  44.952  1.00  0.00     0.067 C 
HETATM    8  C8  UNL     1      28.375   7.990  45.699  1.00  0.00     0.279 C 
HETATM    9  N1  UNL     1      28.967   7.621  46.968  1.00  0.00     0.111 N 
HETATM   10  C16 UNL     1      30.314   8.102  46.939  1.00  0.00     0.318 C 
HETATM   11  S1  UNL     1      31.395   6.903  47.765  1.00  0.00    -0.099 SA
HETATM   12  C17 UNL     1      32.887   7.713  48.377  1.00  0.00     0.081 C 
HETATM   13  C18 UNL     1      33.667   6.800  48.885  1.00  0.00     0.093 C 
HETATM   14  N2  UNL     1      33.718   5.648  48.352  1.00  0.00    -0.246 NA
HETATM   15  C19 UNL     1      33.506   5.604  46.952  1.00  0.00     0.059 C 
HETATM   16  C20 UNL     1      34.220   6.506  46.241  1.00  0.00     0.006 C 
HETATM   17  C21 UNL     1      34.124   7.201  44.900  1.00  0.00     0.042 C 
ENDROOT
BRANCH   9  18
HETATM   18  C9  UNL     1      28.210   7.973  48.120  1.00  0.00     0.313 C 
BRANCH  18  19
HETATM   19  C10 UNL     1      27.378   6.850  48.609  1.00  0.00    -0.030 A 
HETATM   20  C11 UNL     1      27.953   5.586  48.465  1.00  0.00     0.009 A 
HETATM   21  C12 UNL     1      27.341   4.415  48.864  1.00  0.00     0.001 A 
HETATM   22  C13 UNL     1      26.107   4.449  49.435  1.00  0.00     0.000 A 
HETATM   23  C14 UNL     1      25.518   5.704  49.585  1.00  0.00     0.001 A 
HETATM   24  C15 UNL     1      26.136   6.854  49.185  1.00  0.00     0.009 A 
ENDBRANCH  18  19
ENDBRANCH   9  18
TORSDOF 2
ENDMDL
