MODEL 1
REMARK VINA RESULT:      -8.5      0.000      0.000
REMARK  5 active torsions:
REMARK  status: ('A' for Active; 'I' for Inactive)
REMARK    1  A    between atoms: C7_9  and  N3_10 
REMARK    2  A    between atoms: N3_10  and  C8_11 
REMARK    3  A    between atoms: C11_14  and  O1_15 
REMARK    4  A    between atoms: O1_15  and  C12_16 
REMARK    5  A    between atoms: C12_16  and  C13_17 
ROOT
HETATM    1  C1  UNL     1      29.288   5.553  47.989  1.00  0.00     0.018 C 
HETATM    2  C2  UNL     1      28.521   6.423  48.369  1.00  0.00    -0.072 C 
HETATM    3  C3  UNL     1      27.586   7.445  48.822  1.00  0.00     0.087 A 
HETATM    4  C4  UNL     1      28.149   8.665  49.028  1.00  0.00     0.054 A 
HETATM    5  C5  UNL     1      29.590   8.941  48.813  1.00  0.00     0.072 C 
HETATM    6  N1  UNL     1      27.324   9.650  49.449  1.00  0.00    -0.245 NA
HETATM    7  C6  UNL     1      26.017   9.397  49.645  1.00  0.00     0.235 A 
HETATM    8  N2  UNL     1      25.546   8.167  49.418  1.00  0.00    -0.223 NA
HETATM    9  C7  UNL     1      26.262   7.117  49.001  1.00  0.00     0.150 A 
ENDROOT
BRANCH   9  10
HETATM   10  N3  UNL     1      25.808   5.800  48.748  1.00  0.00    -0.340 N 
HETATM   11  H6  UNL     1      25.577   5.589  47.730  1.00  0.00     0.167 HD
BRANCH  10  12
HETATM   12  C8  UNL     1      25.632   4.757  49.663  1.00  0.00     0.035 A 
HETATM   13  C9  UNL     1      26.585   3.732  49.716  1.00  0.00     0.032 A 
HETATM   14  C10 UNL     1      26.501   2.685  50.564  1.00  0.00     0.041 A 
HETATM   15  C11 UNL     1      25.471   2.552  51.437  1.00  0.00     0.091 A 
HETATM   16  C19 UNL     1      24.488   3.551  51.424  1.00  0.00     0.069 A 
HETATM   17 CL1  UNL     1      23.067   3.558  52.485  1.00  0.00    -0.081 Cl
HETATM   18  C20 UNL     1      24.581   4.632  50.545  1.00  0.00     0.056 A 
BRANCH  15  19
HETATM   19  O1  UNL     1      25.185   1.611  52.357  1.00  0.00    -0.345 OA
BRANCH  19  20
HETATM   20  C12 UNL     1      25.585   0.322  52.569  1.00  0.00     0.214 C 
BRANCH  20  21
HETATM   21  C13 UNL     1      26.950   0.145  53.076  1.00  0.00    -0.031 A 
HETATM   22  C14 UNL     1      27.803   0.984  53.748  1.00  0.00     0.009 A 
HETATM   23  C15 UNL     1      29.050   0.660  54.168  1.00  0.00     0.004 A 
HETATM   24  C16 UNL     1      29.572  -0.595  53.940  1.00  0.00     0.042 A 
HETATM   25  C17 UNL     1      28.781  -1.504  53.270  1.00  0.00     0.117 A 
HETATM   26  F1  UNL     1      29.253  -2.748  53.023  1.00  0.00    -0.206 F 
HETATM   27  C18 UNL     1      27.522  -1.119  52.865  1.00  0.00     0.051 A 
ENDBRANCH  20  21
ENDBRANCH  19  20
ENDBRANCH  15  19
ENDBRANCH  10  12
ENDBRANCH   9  10
TORSDOF 5
ENDMDL
MODEL 2
REMARK VINA RESULT:      -8.4      6.212      9.087
REMARK  5 active torsions:
REMARK  status: ('A' for Active; 'I' for Inactive)
REMARK    1  A    between atoms: C7_9  and  N3_10 
REMARK    2  A    between atoms: N3_10  and  C8_11 
REMARK    3  A    between atoms: C11_14  and  O1_15 
REMARK    4  A    between atoms: O1_15  and  C12_16 
REMARK    5  A    between atoms: C12_16  and  C13_17 
ROOT
HETATM    1  C1  UNL     1      28.828   2.491  53.754  1.00  0.00     0.018 C 
HETATM    2  C2  UNL     1      28.466   1.353  53.501  1.00  0.00    -0.072 C 
HETATM    3  C3  UNL     1      28.012   0.003  53.195  1.00  0.00     0.087 A 
HETATM    4  C4  UNL     1      28.955  -0.960  53.378  1.00  0.00     0.054 A 
HETATM    5  C5  UNL     1      30.330  -0.669  53.848  1.00  0.00     0.072 C 
HETATM    6  N1  UNL     1      28.583  -2.231  53.107  1.00  0.00    -0.245 NA
HETATM    7  C6  UNL     1      27.334  -2.493  52.679  1.00  0.00     0.235 A 
HETATM    8  N2  UNL     1      26.469  -1.485  52.527  1.00  0.00    -0.223 NA
HETATM    9  C7  UNL     1      26.720  -0.193  52.763  1.00  0.00     0.150 A 
ENDROOT
BRANCH   9  10
HETATM   10  N3  UNL     1      25.839   0.905  52.616  1.00  0.00    -0.340 N 
HETATM   11  H6  UNL     1      26.310   1.857  52.550  1.00  0.00     0.167 HD
BRANCH  10  12
HETATM   12  C8  UNL     1      24.442   0.887  52.546  1.00  0.00     0.035 A 
HETATM   13  C9  UNL     1      23.804   1.607  51.527  1.00  0.00     0.032 A 
HETATM   14  C10 UNL     1      22.462   1.651  51.379  1.00  0.00     0.041 A 
HETATM   15  C11 UNL     1      21.628   0.990  52.219  1.00  0.00     0.091 A 
HETATM   16  C19 UNL     1      22.216   0.255  53.258  1.00  0.00     0.069 A 
HETATM   17 CL1  UNL     1      21.298  -0.674  54.458  1.00  0.00    -0.081 Cl
HETATM   18  C20 UNL     1      23.604   0.213  53.406  1.00  0.00     0.056 A 
BRANCH  15  19
HETATM   19  O1  UNL     1      20.286   0.892  52.264  1.00  0.00    -0.345 OA
BRANCH  19  20
HETATM   20  C12 UNL     1      19.314   0.582  51.354  1.00  0.00     0.214 C 
BRANCH  20  21
HETATM   21  C13 UNL     1      18.264  -0.333  51.816  1.00  0.00    -0.031 A 
HETATM   22  C14 UNL     1      18.222  -1.252  52.835  1.00  0.00     0.009 A 
HETATM   23  C15 UNL     1      17.152  -2.023  53.148  1.00  0.00     0.004 A 
HETATM   24  C16 UNL     1      15.977  -1.932  52.432  1.00  0.00     0.042 A 
HETATM   25  C17 UNL     1      15.932  -1.031  51.389  1.00  0.00     0.117 A 
HETATM   26  F1  UNL     1      14.800  -0.909  50.658  1.00  0.00    -0.206 F 
HETATM   27  C18 UNL     1      17.050  -0.274  51.116  1.00  0.00     0.051 A 
ENDBRANCH  20  21
ENDBRANCH  19  20
ENDBRANCH  15  19
ENDBRANCH  10  12
ENDBRANCH   9  10
TORSDOF 5
ENDMDL
MODEL 3
REMARK VINA RESULT:      -8.3      5.845      8.529
REMARK  5 active torsions:
REMARK  status: ('A' for Active; 'I' for Inactive)
REMARK    1  A    between atoms: C7_9  and  N3_10 
REMARK    2  A    between atoms: N3_10  and  C8_11 
REMARK    3  A    between atoms: C11_14  and  O1_15 
REMARK    4  A    between atoms: O1_15  and  C12_16 
REMARK    5  A    between atoms: C12_16  and  C13_17 
ROOT
HETATM    1  C1  UNL     1      26.812  -2.263  52.010  1.00  0.00     0.018 C 
HETATM    2  C2  UNL     1      27.207  -1.173  52.392  1.00  0.00    -0.072 C 
HETATM    3  C3  UNL     1      27.659   0.139  52.835  1.00  0.00     0.087 A 
HETATM    4  C4  UNL     1      28.766   0.112  53.626  1.00  0.00     0.054 A 
HETATM    5  C5  UNL     1      29.458  -1.142  54.009  1.00  0.00     0.072 C 
HETATM    6  N1  UNL     1      29.227   1.304  54.064  1.00  0.00    -0.245 NA
HETATM    7  C6  UNL     1      28.597   2.441  53.716  1.00  0.00     0.235 A 
HETATM    8  N2  UNL     1      27.514   2.377  52.934  1.00  0.00    -0.223 NA
HETATM    9  C7  UNL     1      26.967   1.261  52.441  1.00  0.00     0.150 A 
ENDROOT
BRANCH   9  10
HETATM   10  N3  UNL     1      25.825   1.145  51.612  1.00  0.00    -0.340 N 
HETATM   11  H6  UNL     1      26.022   1.162  50.566  1.00  0.00     0.167 HD
BRANCH  10  12
HETATM   12  C8  UNL     1      24.488   1.011  51.999  1.00  0.00     0.035 A 
HETATM   13  C9  UNL     1      23.496   1.657  51.249  1.00  0.00     0.032 A 
HETATM   14  C10 UNL     1      22.180   1.587  51.545  1.00  0.00     0.041 A 
HETATM   15  C11 UNL     1      21.722   0.875  52.605  1.00  0.00     0.091 A 
HETATM   16  C19 UNL     1      22.675   0.210  53.390  1.00  0.00     0.069 A 
HETATM   17 CL1  UNL     1      22.277  -0.768  54.814  1.00  0.00    -0.081 Cl
HETATM   18  C20 UNL     1      24.034   0.286  53.078  1.00  0.00     0.056 A 
BRANCH  15  19
HETATM   19  O1  UNL     1      20.480   0.668  53.082  1.00  0.00    -0.345 OA
BRANCH  19  20
HETATM   20  C12 UNL     1      19.234   0.611  52.524  1.00  0.00     0.214 C 
BRANCH  20  21
HETATM   21  C13 UNL     1      18.462  -0.608  52.790  1.00  0.00    -0.031 A 
HETATM   22  C14 UNL     1      18.726  -1.722  53.546  1.00  0.00     0.009 A 
HETATM   23  C15 UNL     1      17.887  -2.776  53.704  1.00  0.00     0.004 A 
HETATM   24  C16 UNL     1      16.654  -2.801  53.088  1.00  0.00     0.042 A 
HETATM   25  C17 UNL     1      16.307  -1.719  52.308  1.00  0.00     0.117 A 
HETATM   26  F1  UNL     1      15.107  -1.701  51.684  1.00  0.00    -0.206 F 
HETATM   27  C18 UNL     1      17.199  -0.676  52.182  1.00  0.00     0.051 A 
ENDBRANCH  20  21
ENDBRANCH  19  20
ENDBRANCH  15  19
ENDBRANCH  10  12
ENDBRANCH   9  10
TORSDOF 5
ENDMDL
MODEL 4
REMARK VINA RESULT:      -8.2      3.907      8.196
REMARK  5 active torsions:
REMARK  status: ('A' for Active; 'I' for Inactive)
REMARK    1  A    between atoms: C7_9  and  N3_10 
REMARK    2  A    between atoms: N3_10  and  C8_11 
REMARK    3  A    between atoms: C11_14  and  O1_15 
REMARK    4  A    between atoms: O1_15  and  C12_16 
REMARK    5  A    between atoms: C12_16  and  C13_17 
ROOT
HETATM    1  C1  UNL     1      29.418   1.978  54.614  1.00  0.00     0.018 C 
HETATM    2  C2  UNL     1      28.855   0.984  54.184  1.00  0.00    -0.072 C 
HETATM    3  C3  UNL     1      28.161  -0.190  53.671  1.00  0.00     0.087 A 
HETATM    4  C4  UNL     1      28.960  -1.274  53.483  1.00  0.00     0.054 A 
HETATM    5  C5  UNL     1      30.413  -1.270  53.773  1.00  0.00     0.072 C 
HETATM    6  N1  UNL     1      28.364  -2.390  53.008  1.00  0.00    -0.245 NA
HETATM    7  C6  UNL     1      27.044  -2.392  52.745  1.00  0.00     0.235 A 
HETATM    8  N2  UNL     1      26.333  -1.280  52.959  1.00  0.00    -0.223 NA
HETATM    9  C7  UNL     1      26.809  -0.121  53.425  1.00  0.00     0.150 A 
ENDROOT
BRANCH   9  10
HETATM   10  N3  UNL     1      26.096   1.078  53.666  1.00  0.00    -0.340 N 
HETATM   11  H6  UNL     1      25.842   1.256  54.685  1.00  0.00     0.167 HD
BRANCH  10  12
HETATM   12  C8  UNL     1      25.692   2.044  52.739  1.00  0.00     0.035 A 
HETATM   13  C9  UNL     1      24.546   2.805  53.006  1.00  0.00     0.032 A 
HETATM   14  C10 UNL     1      24.079   3.759  52.172  1.00  0.00     0.041 A 
HETATM   15  C11 UNL     1      24.696   4.049  51.000  1.00  0.00     0.091 A 
HETATM   16  C19 UNL     1      25.847   3.314  50.683  1.00  0.00     0.069 A 
HETATM   17 CL1  UNL     1      26.793   3.544  49.201  1.00  0.00    -0.081 Cl
HETATM   18  C20 UNL     1      26.326   2.330  51.550  1.00  0.00     0.056 A 
BRANCH  15  19
HETATM   19  O1  UNL     1      24.415   4.940  50.030  1.00  0.00    -0.345 OA
BRANCH  19  20
HETATM   20  C12 UNL     1      24.244   6.295  49.991  1.00  0.00     0.214 C 
BRANCH  20  21
HETATM   21  C13 UNL     1      25.453   7.092  49.756  1.00  0.00    -0.031 A 
HETATM   22  C14 UNL     1      25.920   8.251  50.324  1.00  0.00     0.009 A 
HETATM   23  C15 UNL     1      27.085   8.865  50.002  1.00  0.00     0.004 A 
HETATM   24  C16 UNL     1      27.920   8.344  49.037  1.00  0.00     0.042 A 
HETATM   25  C17 UNL     1      27.527   7.178  48.414  1.00  0.00     0.117 A 
HETATM   26  F1  UNL     1      28.314   6.630  47.460  1.00  0.00    -0.206 F 
HETATM   27  C18 UNL     1      26.332   6.598  48.781  1.00  0.00     0.051 A 
ENDBRANCH  20  21
ENDBRANCH  19  20
ENDBRANCH  15  19
ENDBRANCH  10  12
ENDBRANCH   9  10
TORSDOF 5
ENDMDL
MODEL 5
REMARK VINA RESULT:      -8.1      1.578      2.142
REMARK  5 active torsions:
REMARK  status: ('A' for Active; 'I' for Inactive)
REMARK    1  A    between atoms: C7_9  and  N3_10 
REMARK    2  A    between atoms: N3_10  and  C8_11 
REMARK    3  A    between atoms: C11_14  and  O1_15 
REMARK    4  A    between atoms: O1_15  and  C12_16 
REMARK    5  A    between atoms: C12_16  and  C13_17 
ROOT
HETATM    1  C1  UNL     1      30.679   5.727  47.542  1.00  0.00     0.018 C 
HETATM    2  C2  UNL     1      30.078   6.696  47.979  1.00  0.00    -0.072 C 
HETATM    3  C3  UNL     1      29.339   7.840  48.495  1.00  0.00     0.087 A 
HETATM    4  C4  UNL     1      30.120   8.890  48.865  1.00  0.00     0.054 A 
HETATM    5  C5  UNL     1      31.598   8.880  48.754  1.00  0.00     0.072 C 
HETATM    6  N1  UNL     1      29.482   9.978  49.351  1.00  0.00    -0.245 NA
HETATM    7  C6  UNL     1      28.141   9.986  49.452  1.00  0.00     0.235 A 
HETATM    8  N2  UNL     1      27.449   8.909  49.065  1.00  0.00    -0.223 NA
HETATM    9  C7  UNL     1      27.966   7.780  48.570  1.00  0.00     0.150 A 
ENDROOT
BRANCH   9  10
HETATM   10  N3  UNL     1      27.275   6.618  48.149  1.00  0.00    -0.340 N 
HETATM   11  H6  UNL     1      27.267   6.453  47.097  1.00  0.00     0.167 HD
BRANCH  10  12
HETATM   12  C8  UNL     1      26.614   5.673  48.940  1.00  0.00     0.035 A 
HETATM   13  C9  UNL     1      27.099   4.359  48.977  1.00  0.00     0.032 A 
HETATM   14  C10 UNL     1      26.529   3.378  49.710  1.00  0.00     0.041 A 
HETATM   15  C11 UNL     1      25.429   3.603  50.471  1.00  0.00     0.091 A 
HETATM   16  C19 UNL     1      24.902   4.901  50.469  1.00  0.00     0.069 A 
HETATM   17 CL1  UNL     1      23.472   5.393  51.396  1.00  0.00    -0.081 Cl
HETATM   18  C20 UNL     1      25.497   5.911  49.709  1.00  0.00     0.056 A 
BRANCH  15  19
HETATM   19  O1  UNL     1      24.704   2.793  51.267  1.00  0.00    -0.345 OA
BRANCH  19  20
HETATM   20  C12 UNL     1      24.845   2.321  52.542  1.00  0.00     0.214 C 
BRANCH  20  21
HETATM   21  C13 UNL     1      25.954   1.388  52.766  1.00  0.00    -0.031 A 
HETATM   22  C14 UNL     1      26.139   0.073  52.420  1.00  0.00     0.009 A 
HETATM   23  C15 UNL     1      27.248  -0.659  52.693  1.00  0.00     0.004 A 
HETATM   24  C16 UNL     1      28.315  -0.106  53.368  1.00  0.00     0.042 A 
HETATM   25  C17 UNL     1      28.213   1.214  53.754  1.00  0.00     0.117 A 
HETATM   26  F1  UNL     1      29.236   1.797  54.419  1.00  0.00    -0.206 F 
HETATM   27  C18 UNL     1      27.063   1.908  53.450  1.00  0.00     0.051 A 
ENDBRANCH  20  21
ENDBRANCH  19  20
ENDBRANCH  15  19
ENDBRANCH  10  12
ENDBRANCH   9  10
TORSDOF 5
ENDMDL
MODEL 6
REMARK VINA RESULT:      -7.9      2.782      3.515
REMARK  5 active torsions:
REMARK  status: ('A' for Active; 'I' for Inactive)
REMARK    1  A    between atoms: C7_9  and  N3_10 
REMARK    2  A    between atoms: N3_10  and  C8_11 
REMARK    3  A    between atoms: C11_14  and  O1_15 
REMARK    4  A    between atoms: O1_15  and  C12_16 
REMARK    5  A    between atoms: C12_16  and  C13_17 
ROOT
HETATM    1  C1  UNL     1      30.502   5.260  47.833  1.00  0.00     0.018 C 
HETATM    2  C2  UNL     1      29.824   6.204  48.204  1.00  0.00    -0.072 C 
HETATM    3  C3  UNL     1      28.993   7.318  48.642  1.00  0.00     0.087 A 
HETATM    4  C4  UNL     1      29.691   8.433  48.989  1.00  0.00     0.054 A 
HETATM    5  C5  UNL     1      31.169   8.516  48.930  1.00  0.00     0.072 C 
HETATM    6  N1  UNL     1      28.966   9.496  49.403  1.00  0.00    -0.245 NA
HETATM    7  C6  UNL     1      27.624   9.419  49.457  1.00  0.00     0.235 A 
HETATM    8  N2  UNL     1      27.018   8.283  49.097  1.00  0.00    -0.223 NA
HETATM    9  C7  UNL     1      27.626   7.170  48.672  1.00  0.00     0.150 A 
ENDROOT
BRANCH   9  10
HETATM   10  N3  UNL     1      27.028   5.948  48.281  1.00  0.00    -0.340 N 
HETATM   11  H6  UNL     1      27.161   5.686  47.258  1.00  0.00     0.167 HD
BRANCH  10  12
HETATM   12  C8  UNL     1      26.294   5.055  49.069  1.00  0.00     0.035 A 
HETATM   13  C9  UNL     1      24.920   5.270  49.239  1.00  0.00     0.032 A 
HETATM   14  C10 UNL     1      24.130   4.464  49.981  1.00  0.00     0.041 A 
HETATM   15  C11 UNL     1      24.621   3.375  50.622  1.00  0.00     0.091 A 
HETATM   16  C19 UNL     1      25.992   3.115  50.486  1.00  0.00     0.069 A 
HETATM   17 CL1  UNL     1      26.821   1.743  51.245  1.00  0.00    -0.081 Cl
HETATM   18  C20 UNL     1      26.803   3.952  49.717  1.00  0.00     0.056 A 
BRANCH  15  19
HETATM   19  O1  UNL     1      24.033   2.448  51.403  1.00  0.00    -0.345 OA
BRANCH  19  20
HETATM   20  C12 UNL     1      22.754   1.991  51.555  1.00  0.00     0.214 C 
BRANCH  20  21
HETATM   21  C13 UNL     1      22.550   0.975  52.593  1.00  0.00    -0.031 A 
HETATM   22  C14 UNL     1      21.417   0.450  53.162  1.00  0.00     0.009 A 
HETATM   23  C15 UNL     1      21.395  -0.512  54.117  1.00  0.00     0.004 A 
HETATM   24  C16 UNL     1      22.565  -1.054  54.606  1.00  0.00     0.042 A 
HETATM   25  C17 UNL     1      23.753  -0.583  54.088  1.00  0.00     0.117 A 
HETATM   26  F1  UNL     1      24.925  -1.087  54.538  1.00  0.00    -0.206 F 
HETATM   27  C18 UNL     1      23.714   0.396  53.119  1.00  0.00     0.051 A 
ENDBRANCH  20  21
ENDBRANCH  19  20
ENDBRANCH  15  19
ENDBRANCH  10  12
ENDBRANCH   9  10
TORSDOF 5
ENDMDL
MODEL 7
REMARK VINA RESULT:      -7.9      3.752      7.747
REMARK  5 active torsions:
REMARK  status: ('A' for Active; 'I' for Inactive)
REMARK    1  A    between atoms: C7_9  and  N3_10 
REMARK    2  A    between atoms: N3_10  and  C8_11 
REMARK    3  A    between atoms: C11_14  and  O1_15 
REMARK    4  A    between atoms: O1_15  and  C12_16 
REMARK    5  A    between atoms: C12_16  and  C13_17 
ROOT
HETATM    1  C1  UNL     1      26.759  -2.164  52.287  1.00  0.00     0.018 C 
HETATM    2  C2  UNL     1      27.272  -1.144  52.719  1.00  0.00    -0.072 C 
HETATM    3  C3  UNL     1      27.863   0.087  53.229  1.00  0.00     0.087 A 
HETATM    4  C4  UNL     1      29.113  -0.064  53.742  1.00  0.00     0.054 A 
HETATM    5  C5  UNL     1      29.821  -1.366  53.784  1.00  0.00     0.072 C 
HETATM    6  N1  UNL     1      29.707   1.048  54.229  1.00  0.00    -0.245 NA
HETATM    7  C6  UNL     1      29.062   2.229  54.191  1.00  0.00     0.235 A 
HETATM    8  N2  UNL     1      27.833   2.288  53.668  1.00  0.00    -0.223 NA
HETATM    9  C7  UNL     1      27.147   1.260  53.158  1.00  0.00     0.150 A 
ENDROOT
BRANCH   9  10
HETATM   10  N3  UNL     1      25.848   1.274  52.595  1.00  0.00    -0.340 N 
HETATM   11  H6  UNL     1      25.195   0.511  52.946  1.00  0.00     0.167 HD
BRANCH  10  12
HETATM   12  C8  UNL     1      25.328   2.162  51.647  1.00  0.00     0.035 A 
HETATM   13  C9  UNL     1      26.143   2.576  50.586  1.00  0.00     0.032 A 
HETATM   14  C10 UNL     1      25.730   3.429  49.624  1.00  0.00     0.041 A 
HETATM   15  C11 UNL     1      24.479   3.952  49.621  1.00  0.00     0.091 A 
HETATM   16  C19 UNL     1      23.623   3.571  50.663  1.00  0.00     0.069 A 
HETATM   17 CL1  UNL     1      21.953   4.145  50.835  1.00  0.00    -0.081 Cl
HETATM   18  C20 UNL     1      24.055   2.688  51.654  1.00  0.00     0.056 A 
BRANCH  15  19
HETATM   19  O1  UNL     1      23.861   4.805  48.782  1.00  0.00    -0.345 OA
BRANCH  19  20
HETATM   20  C12 UNL     1      23.754   6.166  48.701  1.00  0.00     0.214 C 
BRANCH  20  21
HETATM   21  C13 UNL     1      24.972   6.928  48.993  1.00  0.00    -0.031 A 
HETATM   22  C14 UNL     1      25.341   7.708  50.060  1.00  0.00     0.009 A 
HETATM   23  C15 UNL     1      26.530   8.345  50.188  1.00  0.00     0.004 A 
HETATM   24  C16 UNL     1      27.497   8.250  49.210  1.00  0.00     0.042 A 
HETATM   25  C17 UNL     1      27.209   7.484  48.100  1.00  0.00     0.117 A 
HETATM   26  F1  UNL     1      28.127   7.363  47.114  1.00  0.00    -0.206 F 
HETATM   27  C18 UNL     1      25.983   6.860  48.023  1.00  0.00     0.051 A 
ENDBRANCH  20  21
ENDBRANCH  19  20
ENDBRANCH  15  19
ENDBRANCH  10  12
ENDBRANCH   9  10
TORSDOF 5
ENDMDL
MODEL 8
REMARK VINA RESULT:      -7.8      2.759      3.734
REMARK  5 active torsions:
REMARK  status: ('A' for Active; 'I' for Inactive)
REMARK    1  A    between atoms: C7_9  and  N3_10 
REMARK    2  A    between atoms: N3_10  and  C8_11 
REMARK    3  A    between atoms: C11_14  and  O1_15 
REMARK    4  A    between atoms: O1_15  and  C12_16 
REMARK    5  A    between atoms: C12_16  and  C13_17 
ROOT
HETATM    1  C1  UNL     1      29.319   5.485  48.165  1.00  0.00     0.018 C 
HETATM    2  C2  UNL     1      28.538   6.395  48.394  1.00  0.00    -0.072 C 
HETATM    3  C3  UNL     1      27.587   7.465  48.666  1.00  0.00     0.087 A 
HETATM    4  C4  UNL     1      28.151   8.697  48.784  1.00  0.00     0.054 A 
HETATM    5  C5  UNL     1      29.607   8.940  48.648  1.00  0.00     0.072 C 
HETATM    6  N1  UNL     1      27.311   9.725  49.037  1.00  0.00    -0.245 NA
HETATM    7  C6  UNL     1      25.989   9.503  49.161  1.00  0.00     0.235 A 
HETATM    8  N2  UNL     1      25.520   8.258  49.030  1.00  0.00    -0.223 NA
HETATM    9  C7  UNL     1      26.249   7.166  48.780  1.00  0.00     0.150 A 
ENDROOT
BRANCH   9  10
HETATM   10  N3  UNL     1      25.797   5.833  48.634  1.00  0.00    -0.340 N 
HETATM   11  H6  UNL     1      25.627   5.521  47.630  1.00  0.00     0.167 HD
BRANCH  10  12
HETATM   12  C8  UNL     1      25.552   4.889  49.637  1.00  0.00     0.035 A 
HETATM   13  C9  UNL     1      26.360   3.746  49.706  1.00  0.00     0.032 A 
HETATM   14  C10 UNL     1      26.201   2.781  50.637  1.00  0.00     0.041 A 
HETATM   15  C11 UNL     1      25.233   2.854  51.583  1.00  0.00     0.091 A 
HETATM   16  C19 UNL     1      24.395   3.978  51.558  1.00  0.00     0.069 A 
HETATM   17 CL1  UNL     1      23.073   4.255  52.707  1.00  0.00    -0.081 Cl
HETATM   18  C20 UNL     1      24.565   4.972  50.593  1.00  0.00     0.056 A 
BRANCH  15  19
HETATM   19  O1  UNL     1      24.893   2.027  52.591  1.00  0.00    -0.345 OA
BRANCH  19  20
HETATM   20  C12 UNL     1      24.791   0.671  52.728  1.00  0.00     0.214 C 
BRANCH  20  21
HETATM   21  C13 UNL     1      23.539   0.171  53.306  1.00  0.00    -0.031 A 
HETATM   22  C14 UNL     1      23.261  -0.891  54.129  1.00  0.00     0.009 A 
HETATM   23  C15 UNL     1      22.031  -1.216  54.597  1.00  0.00     0.004 A 
HETATM   24  C16 UNL     1      20.923  -0.467  54.263  1.00  0.00     0.042 A 
HETATM   25  C17 UNL     1      21.113   0.622  53.438  1.00  0.00     0.117 A 
HETATM   26  F1  UNL     1      20.054   1.386  53.084  1.00  0.00    -0.206 F 
HETATM   27  C18 UNL     1      22.385   0.904  52.992  1.00  0.00     0.051 A 
ENDBRANCH  20  21
ENDBRANCH  19  20
ENDBRANCH  15  19
ENDBRANCH  10  12
ENDBRANCH   9  10
TORSDOF 5
ENDMDL
MODEL 9
REMARK VINA RESULT:      -7.8      4.509      8.485
REMARK  5 active torsions:
REMARK  status: ('A' for Active; 'I' for Inactive)
REMARK    1  A    between atoms: C7_9  and  N3_10 
REMARK    2  A    between atoms: N3_10  and  C8_11 
REMARK    3  A    between atoms: C11_14  and  O1_15 
REMARK    4  A    between atoms: O1_15  and  C12_16 
REMARK    5  A    between atoms: C12_16  and  C13_17 
ROOT
HETATM    1  C1  UNL     1      25.748  -0.073  52.695  1.00  0.00     0.018 C 
HETATM    2  C2  UNL     1      24.609  -0.292  53.076  1.00  0.00    -0.072 C 
HETATM    3  C3  UNL     1      23.241  -0.544  53.510  1.00  0.00     0.087 A 
HETATM    4  C4  UNL     1      23.138  -1.076  54.757  1.00  0.00     0.054 A 
HETATM    5  C5  UNL     1      24.313  -1.378  55.609  1.00  0.00     0.072 C 
HETATM    6  N1  UNL     1      21.889  -1.329  55.206  1.00  0.00    -0.245 NA
HETATM    7  C6  UNL     1      20.824  -1.055  54.431  1.00  0.00     0.235 A 
HETATM    8  N2  UNL     1      21.016  -0.531  53.216  1.00  0.00    -0.223 NA
HETATM    9  C7  UNL     1      22.198  -0.239  52.665  1.00  0.00     0.150 A 
ENDROOT
BRANCH   9  10
HETATM   10  N3  UNL     1      22.449   0.315  51.386  1.00  0.00    -0.340 N 
HETATM   11  H6  UNL     1      22.414  -0.378  50.579  1.00  0.00     0.167 HD
BRANCH  10  12
HETATM   12  C8  UNL     1      22.732   1.646  51.062  1.00  0.00     0.035 A 
HETATM   13  C9  UNL     1      22.770   2.023  49.714  1.00  0.00     0.032 A 
HETATM   14  C10 UNL     1      23.035   3.282  49.303  1.00  0.00     0.041 A 
HETATM   15  C11 UNL     1      23.286   4.282  50.182  1.00  0.00     0.091 A 
HETATM   16  C19 UNL     1      23.261   3.959  51.546  1.00  0.00     0.069 A 
HETATM   17 CL1  UNL     1      23.563   5.124  52.848  1.00  0.00    -0.081 Cl
HETATM   18  C20 UNL     1      22.986   2.655  51.964  1.00  0.00     0.056 A 
BRANCH  15  19
HETATM   19  O1  UNL     1      23.569   5.588  50.006  1.00  0.00    -0.345 OA
BRANCH  19  20
HETATM   20  C12 UNL     1      24.206   6.310  49.037  1.00  0.00     0.214 C 
BRANCH  20  21
HETATM   21  C13 UNL     1      25.627   6.006  48.832  1.00  0.00    -0.031 A 
HETATM   22  C14 UNL     1      26.368   4.871  49.042  1.00  0.00     0.009 A 
HETATM   23  C15 UNL     1      27.693   4.744  48.784  1.00  0.00     0.004 A 
HETATM   24  C16 UNL     1      28.421   5.795  48.269  1.00  0.00     0.042 A 
HETATM   25  C17 UNL     1      27.752   6.976  48.027  1.00  0.00     0.117 A 
HETATM   26  F1  UNL     1      28.426   8.035  47.521  1.00  0.00    -0.206 F 
HETATM   27  C18 UNL     1      26.406   7.049  48.308  1.00  0.00     0.051 A 
ENDBRANCH  20  21
ENDBRANCH  19  20
ENDBRANCH  15  19
ENDBRANCH  10  12
ENDBRANCH   9  10
TORSDOF 5
ENDMDL
