MODEL 1
REMARK VINA RESULT:      -7.4      0.000      0.000
REMARK  11 active torsions:
REMARK  status: ('A' for Active; 'I' for Inactive)
REMARK    1  A    between atoms: O1_2  and  C2_3 
REMARK    2  A    between atoms: C2_3  and  C3_4 
REMARK    3  A    between atoms: C3_4  and  O2_5 
REMARK    4  A    between atoms: O2_5  and  C4_6 
REMARK    5  A    between atoms: C6_8  and  O3_9 
REMARK    6  A    between atoms: O3_9  and  C7_10 
REMARK    7  A    between atoms: C7_10  and  C8_11 
REMARK    8  A    between atoms: C8_11  and  O4_12 
REMARK    9  A    between atoms: C10_14  and  N1_15 
REMARK   10  A    between atoms: N1_15  and  C11_16 
REMARK   11  A    between atoms: C15_20  and  O5_21 
ROOT
HETATM    1  C4  UNL     1      26.326  -0.430  53.223  1.00  0.00     0.073 A 
HETATM    2  C5  UNL     1      25.874   0.514  52.335  1.00  0.00     0.074 A 
HETATM    3  C6  UNL     1      24.571   0.945  52.231  1.00  0.00     0.087 A 
HETATM    4  C9  UNL     1      23.615   0.418  53.063  1.00  0.00     0.072 A 
HETATM    5  C10 UNL     1      22.336   0.893  52.906  1.00  0.00     0.144 A 
HETATM    6  N2  UNL     1      21.441   0.343  53.743  1.00  0.00    -0.223 NA
HETATM    7  C18 UNL     1      21.731  -0.575  54.651  1.00  0.00     0.236 A 
HETATM    8  N3  UNL     1      22.996  -1.006  54.764  1.00  0.00    -0.241 NA
HETATM    9  C19 UNL     1      23.980  -0.528  53.981  1.00  0.00     0.077 A 
HETATM   10  C20 UNL     1      25.318  -0.945  54.057  1.00  0.00     0.069 A 
ENDROOT
BRANCH   5  11
HETATM   11  N1  UNL     1      21.884   1.885  52.001  1.00  0.00    -0.340 N 
HETATM   12  H14 UNL     1      22.271   2.676  51.481  1.00  0.00     0.167 HD
BRANCH  11  13
HETATM   13  C11 UNL     1      20.521   1.939  51.586  1.00  0.00     0.036 A 
HETATM   14  C12 UNL     1      20.040   0.972  50.725  1.00  0.00     0.029 A 
HETATM   15  C13 UNL     1      18.734   0.919  50.287  1.00  0.00     0.005 A 
HETATM   16  C14 UNL     1      17.823   1.867  50.707  1.00  0.00     0.037 A 
HETATM   17  C15 UNL     1      18.249   2.854  51.565  1.00  0.00     0.070 A 
HETATM   18  C17 UNL     1      19.556   2.866  51.973  1.00  0.00     0.066 A 
BRANCH  17  19
HETATM   19  O5  UNL     1      17.381   3.832  52.020  1.00  0.00    -0.356 OA
HETATM   20  C16 UNL     1      15.985   3.648  52.079  1.00  0.00     0.210 C 
ENDBRANCH  17  19
ENDBRANCH  11  13
ENDBRANCH   5  11
BRANCH   3  21
HETATM   21  O3  UNL     1      24.360   1.902  51.260  1.00  0.00    -0.348 OA
BRANCH  21  22
HETATM   22  C7  UNL     1      24.906   3.183  51.228  1.00  0.00     0.201 C 
BRANCH  22  23
HETATM   23  C8  UNL     1      25.951   3.247  50.123  1.00  0.00     0.190 C 
BRANCH  23  24
HETATM   24  O4  UNL     1      27.176   3.672  50.602  1.00  0.00    -0.399 OA
HETATM   25  H13 UNL     1      27.351   3.400  51.548  1.00  0.00     0.209 HD
ENDBRANCH  23  24
ENDBRANCH  22  23
ENDBRANCH  21  22
ENDBRANCH   3  21
BRANCH   1  26
HETATM   26  O2  UNL     1      27.477  -1.031  53.547  1.00  0.00    -0.349 OA
BRANCH  26  27
HETATM   27  C3  UNL     1      28.723  -0.514  53.840  1.00  0.00     0.201 C 
BRANCH  27  28
HETATM   28  C2  UNL     1      28.641   0.478  54.974  1.00  0.00     0.193 C 
BRANCH  28  29
HETATM   29  O1  UNL     1      29.333   1.627  54.646  1.00  0.00    -0.394 OA
HETATM   30  C1  UNL     1      28.696   2.388  53.684  1.00  0.00     0.201 C 
ENDBRANCH  28  29
ENDBRANCH  27  28
ENDBRANCH  26  27
ENDBRANCH   1  26
TORSDOF 11
ENDMDL
MODEL 2
REMARK VINA RESULT:      -7.2      1.642      3.354
REMARK  11 active torsions:
REMARK  status: ('A' for Active; 'I' for Inactive)
REMARK    1  A    between atoms: O1_2  and  C2_3 
REMARK    2  A    between atoms: C2_3  and  C3_4 
REMARK    3  A    between atoms: C3_4  and  O2_5 
REMARK    4  A    between atoms: O2_5  and  C4_6 
REMARK    5  A    between atoms: C6_8  and  O3_9 
REMARK    6  A    between atoms: O3_9  and  C7_10 
REMARK    7  A    between atoms: C7_10  and  C8_11 
REMARK    8  A    between atoms: C8_11  and  O4_12 
REMARK    9  A    between atoms: C10_14  and  N1_15 
REMARK   10  A    between atoms: N1_15  and  C11_16 
REMARK   11  A    between atoms: C15_20  and  O5_21 
ROOT
HETATM    1  C4  UNL     1      26.204  -0.299  52.884  1.00  0.00     0.073 A 
HETATM    2  C5  UNL     1      24.977  -0.465  53.475  1.00  0.00     0.074 A 
HETATM    3  C6  UNL     1      23.866   0.309  53.227  1.00  0.00     0.087 A 
HETATM    4  C9  UNL     1      23.947   1.337  52.322  1.00  0.00     0.072 A 
HETATM    5  C10 UNL     1      22.802   2.069  52.121  1.00  0.00     0.144 A 
HETATM    6  N2  UNL     1      22.936   3.063  51.228  1.00  0.00    -0.223 NA
HETATM    7  C18 UNL     1      24.055   3.339  50.579  1.00  0.00     0.236 A 
HETATM    8  N3  UNL     1      25.147   2.594  50.811  1.00  0.00    -0.241 NA
HETATM    9  C19 UNL     1      25.134   1.572  51.684  1.00  0.00     0.077 A 
HETATM   10  C20 UNL     1      26.246   0.763  51.964  1.00  0.00     0.069 A 
ENDROOT
BRANCH   5  11
HETATM   11  N1  UNL     1      21.532   1.875  52.721  1.00  0.00    -0.340 N 
HETATM   12  H14 UNL     1      21.148   1.702  53.653  1.00  0.00     0.167 HD
BRANCH  11  13
HETATM   13  C11 UNL     1      20.338   1.898  51.942  1.00  0.00     0.036 A 
HETATM   14  C12 UNL     1      20.004   0.789  51.189  1.00  0.00     0.029 A 
HETATM   15  C13 UNL     1      18.859   0.700  50.425  1.00  0.00     0.005 A 
HETATM   16  C14 UNL     1      17.972   1.757  50.380  1.00  0.00     0.037 A 
HETATM   17  C15 UNL     1      18.257   2.887  51.111  1.00  0.00     0.070 A 
HETATM   18  C17 UNL     1      19.405   2.929  51.856  1.00  0.00     0.066 A 
BRANCH  17  19
HETATM   19  O5  UNL     1      17.405   3.978  51.105  1.00  0.00    -0.356 OA
HETATM   20  C16 UNL     1      16.264   4.062  51.928  1.00  0.00     0.210 C 
ENDBRANCH  17  19
ENDBRANCH  11  13
ENDBRANCH   5  11
BRANCH   3  21
HETATM   21  O3  UNL     1      22.745  -0.050  53.947  1.00  0.00    -0.348 OA
BRANCH  21  22
HETATM   22  C7  UNL     1      22.380  -1.342  54.319  1.00  0.00     0.201 C 
BRANCH  22  23
HETATM   23  C8  UNL     1      20.862  -1.454  54.286  1.00  0.00     0.190 C 
BRANCH  23  24
HETATM   24  O4  UNL     1      20.254  -0.280  54.691  1.00  0.00    -0.399 OA
HETATM   25  H13 UNL     1      19.325  -0.411  55.036  1.00  0.00     0.209 HD
ENDBRANCH  23  24
ENDBRANCH  22  23
ENDBRANCH  21  22
ENDBRANCH   3  21
BRANCH   1  26
HETATM   26  O2  UNL     1      27.418  -0.862  52.920  1.00  0.00    -0.349 OA
BRANCH  26  27
HETATM   27  C3  UNL     1      28.626  -0.392  53.394  1.00  0.00     0.201 C 
BRANCH  27  28
HETATM   28  C2  UNL     1      28.509   0.033  54.837  1.00  0.00     0.193 C 
BRANCH  28  29
HETATM   29  O1  UNL     1      28.371   1.406  54.914  1.00  0.00    -0.394 OA
HETATM   30  C1  UNL     1      29.066   2.077  53.926  1.00  0.00     0.201 C 
ENDBRANCH  28  29
ENDBRANCH  27  28
ENDBRANCH  26  27
ENDBRANCH   1  26
TORSDOF 11
ENDMDL
MODEL 3
REMARK VINA RESULT:      -7.1      1.269      1.972
REMARK  11 active torsions:
REMARK  status: ('A' for Active; 'I' for Inactive)
REMARK    1  A    between atoms: O1_2  and  C2_3 
REMARK    2  A    between atoms: C2_3  and  C3_4 
REMARK    3  A    between atoms: C3_4  and  O2_5 
REMARK    4  A    between atoms: O2_5  and  C4_6 
REMARK    5  A    between atoms: C6_8  and  O3_9 
REMARK    6  A    between atoms: O3_9  and  C7_10 
REMARK    7  A    between atoms: C7_10  and  C8_11 
REMARK    8  A    between atoms: C8_11  and  O4_12 
REMARK    9  A    between atoms: C10_14  and  N1_15 
REMARK   10  A    between atoms: N1_15  and  C11_16 
REMARK   11  A    between atoms: C15_20  and  O5_21 
ROOT
HETATM    1  C4  UNL     1      26.381  -0.009  54.301  1.00  0.00     0.073 A 
HETATM    2  C5  UNL     1      25.985   0.666  53.174  1.00  0.00     0.074 A 
HETATM    3  C6  UNL     1      24.706   0.680  52.667  1.00  0.00     0.087 A 
HETATM    4  C9  UNL     1      23.716  -0.021  53.307  1.00  0.00     0.072 A 
HETATM    5  C10 UNL     1      22.463   0.037  52.747  1.00  0.00     0.144 A 
HETATM    6  N2  UNL     1      21.532  -0.667  53.412  1.00  0.00    -0.223 NA
HETATM    7  C18 UNL     1      21.767  -1.364  54.512  1.00  0.00     0.236 A 
HETATM    8  N3  UNL     1      23.009  -1.389  55.020  1.00  0.00    -0.241 NA
HETATM    9  C19 UNL     1      24.023  -0.722  54.441  1.00  0.00     0.077 A 
HETATM   10  C20 UNL     1      25.339  -0.714  54.928  1.00  0.00     0.069 A 
ENDROOT
BRANCH   5  11
HETATM   11  N1  UNL     1      22.060   0.756  51.595  1.00  0.00    -0.340 N 
HETATM   12  H14 UNL     1      22.417   0.956  50.657  1.00  0.00     0.167 HD
BRANCH  11  13
HETATM   13  C11 UNL     1      20.824   1.465  51.563  1.00  0.00     0.036 A 
HETATM   14  C12 UNL     1      20.817   2.820  51.834  1.00  0.00     0.029 A 
HETATM   15  C13 UNL     1      19.680   3.600  51.804  1.00  0.00     0.005 A 
HETATM   16  C14 UNL     1      18.460   3.036  51.491  1.00  0.00     0.037 A 
HETATM   17  C15 UNL     1      18.410   1.689  51.214  1.00  0.00     0.070 A 
HETATM   18  C17 UNL     1      19.564   0.955  51.256  1.00  0.00     0.066 A 
BRANCH  17  19
HETATM   19  O5  UNL     1      17.214   1.067  50.894  1.00  0.00    -0.356 OA
HETATM   20  C16 UNL     1      17.114   0.063  49.911  1.00  0.00     0.210 C 
ENDBRANCH  17  19
ENDBRANCH  11  13
ENDBRANCH   5  11
BRANCH   3  21
HETATM   21  O3  UNL     1      24.554   1.431  51.519  1.00  0.00    -0.348 OA
BRANCH  21  22
HETATM   22  C7  UNL     1      24.741   2.806  51.399  1.00  0.00     0.201 C 
BRANCH  22  23
HETATM   23  C8  UNL     1      25.879   3.066  50.421  1.00  0.00     0.190 C 
BRANCH  23  24
HETATM   24  O4  UNL     1      27.084   3.249  51.075  1.00  0.00    -0.399 OA
HETATM   25  H13 UNL     1      27.875   3.237  50.464  1.00  0.00     0.209 HD
ENDBRANCH  23  24
ENDBRANCH  22  23
ENDBRANCH  21  22
ENDBRANCH   3  21
BRANCH   1  26
HETATM   26  O2  UNL     1      27.499  -0.209  55.010  1.00  0.00    -0.349 OA
BRANCH  26  27
HETATM   27  C3  UNL     1      28.815   0.112  54.743  1.00  0.00     0.201 C 
BRANCH  27  28
HETATM   28  C2  UNL     1      29.304  -0.604  53.508  1.00  0.00     0.193 C 
BRANCH  28  29
HETATM   29  O1  UNL     1      29.393  -1.960  53.754  1.00  0.00    -0.394 OA
HETATM   30  C1  UNL     1      28.576  -2.714  52.933  1.00  0.00     0.201 C 
ENDBRANCH  28  29
ENDBRANCH  27  28
ENDBRANCH  26  27
ENDBRANCH   1  26
TORSDOF 11
ENDMDL
MODEL 4
REMARK VINA RESULT:      -6.9      2.549      5.230
REMARK  11 active torsions:
REMARK  status: ('A' for Active; 'I' for Inactive)
REMARK    1  A    between atoms: O1_2  and  C2_3 
REMARK    2  A    between atoms: C2_3  and  C3_4 
REMARK    3  A    between atoms: C3_4  and  O2_5 
REMARK    4  A    between atoms: O2_5  and  C4_6 
REMARK    5  A    between atoms: C6_8  and  O3_9 
REMARK    6  A    between atoms: O3_9  and  C7_10 
REMARK    7  A    between atoms: C7_10  and  C8_11 
REMARK    8  A    between atoms: C8_11  and  O4_12 
REMARK    9  A    between atoms: C10_14  and  N1_15 
REMARK   10  A    between atoms: N1_15  and  C11_16 
REMARK   11  A    between atoms: C15_20  and  O5_21 
ROOT
HETATM    1  C4  UNL     1      26.600   3.643  49.831  1.00  0.00     0.073 A 
HETATM    2  C5  UNL     1      26.688   2.600  50.719  1.00  0.00     0.074 A 
HETATM    3  C6  UNL     1      25.678   2.184  51.556  1.00  0.00     0.087 A 
HETATM    4  C9  UNL     1      24.469   2.834  51.533  1.00  0.00     0.072 A 
HETATM    5  C10 UNL     1      23.505   2.367  52.393  1.00  0.00     0.144 A 
HETATM    6  N2  UNL     1      22.344   3.039  52.330  1.00  0.00    -0.223 NA
HETATM    7  C18 UNL     1      22.113   4.061  51.523  1.00  0.00     0.236 A 
HETATM    8  N3  UNL     1      23.089   4.479  50.702  1.00  0.00    -0.241 NA
HETATM    9  C19 UNL     1      24.295   3.884  50.675  1.00  0.00     0.077 A 
HETATM   10  C20 UNL     1      25.348   4.281  49.837  1.00  0.00     0.069 A 
ENDROOT
BRANCH   5  11
HETATM   11  N1  UNL     1      23.599   1.275  53.290  1.00  0.00    -0.340 N 
HETATM   12  H14 UNL     1      24.287   0.871  53.931  1.00  0.00     0.167 HD
BRANCH  11  13
HETATM   13  C11 UNL     1      22.507   0.378  53.476  1.00  0.00     0.036 A 
HETATM   14  C12 UNL     1      22.688  -0.754  54.247  1.00  0.00     0.029 A 
HETATM   15  C13 UNL     1      21.689  -1.668  54.510  1.00  0.00     0.005 A 
HETATM   16  C14 UNL     1      20.424  -1.482  53.991  1.00  0.00     0.037 A 
HETATM   17  C15 UNL     1      20.189  -0.370  53.215  1.00  0.00     0.070 A 
HETATM   18  C17 UNL     1      21.211   0.510  52.982  1.00  0.00     0.066 A 
BRANCH  17  19
HETATM   19  O5  UNL     1      18.940  -0.130  52.667  1.00  0.00    -0.356 OA
HETATM   20  C16 UNL     1      17.892  -1.071  52.712  1.00  0.00     0.210 C 
ENDBRANCH  17  19
ENDBRANCH  11  13
ENDBRANCH   5  11
BRANCH   3  21
HETATM   21  O3  UNL     1      26.006   1.113  52.362  1.00  0.00    -0.348 OA
BRANCH  21  22
HETATM   22  C7  UNL     1      26.716  -0.023  51.980  1.00  0.00     0.201 C 
BRANCH  22  23
HETATM   23  C8  UNL     1      27.172  -0.762  53.230  1.00  0.00     0.190 C 
BRANCH  23  24
HETATM   24  O4  UNL     1      27.144  -2.133  53.052  1.00  0.00    -0.399 OA
HETATM   25  H13 UNL     1      26.307  -2.562  53.390  1.00  0.00     0.209 HD
ENDBRANCH  23  24
ENDBRANCH  22  23
ENDBRANCH  21  22
ENDBRANCH   3  21
BRANCH   1  26
HETATM   26  O2  UNL     1      27.374   4.259  48.930  1.00  0.00    -0.349 OA
BRANCH  26  27
HETATM   27  C3  UNL     1      27.386   5.564  48.480  1.00  0.00     0.201 C 
BRANCH  27  28
HETATM   28  C2  UNL     1      28.792   6.010  48.159  1.00  0.00     0.193 C 
BRANCH  28  29
HETATM   29  O1  UNL     1      29.645   4.924  48.175  1.00  0.00    -0.394 OA
HETATM   30  C1  UNL     1      30.938   5.245  47.806  1.00  0.00     0.201 C 
ENDBRANCH  28  29
ENDBRANCH  27  28
ENDBRANCH  26  27
ENDBRANCH   1  26
TORSDOF 11
ENDMDL
MODEL 5
REMARK VINA RESULT:      -6.9      2.146      3.744
REMARK  11 active torsions:
REMARK  status: ('A' for Active; 'I' for Inactive)
REMARK    1  A    between atoms: O1_2  and  C2_3 
REMARK    2  A    between atoms: C2_3  and  C3_4 
REMARK    3  A    between atoms: C3_4  and  O2_5 
REMARK    4  A    between atoms: O2_5  and  C4_6 
REMARK    5  A    between atoms: C6_8  and  O3_9 
REMARK    6  A    between atoms: O3_9  and  C7_10 
REMARK    7  A    between atoms: C7_10  and  C8_11 
REMARK    8  A    between atoms: C8_11  and  O4_12 
REMARK    9  A    between atoms: C10_14  and  N1_15 
REMARK   10  A    between atoms: N1_15  and  C11_16 
REMARK   11  A    between atoms: C15_20  and  O5_21 
ROOT
HETATM    1  C4  UNL     1      26.668  -0.946  52.973  1.00  0.00     0.073 A 
HETATM    2  C5  UNL     1      25.357  -0.795  53.352  1.00  0.00     0.074 A 
HETATM    3  C6  UNL     1      24.546   0.259  52.998  1.00  0.00     0.087 A 
HETATM    4  C9  UNL     1      25.046   1.260  52.203  1.00  0.00     0.072 A 
HETATM    5  C10 UNL     1      24.183   2.281  51.888  1.00  0.00     0.144 A 
HETATM    6  N2  UNL     1      24.722   3.234  51.110  1.00  0.00    -0.223 NA
HETATM    7  C18 UNL     1      25.969   3.221  50.668  1.00  0.00     0.236 A 
HETATM    8  N3  UNL     1      26.772   2.201  51.004  1.00  0.00    -0.241 NA
HETATM    9  C19 UNL     1      26.344   1.188  51.779  1.00  0.00     0.077 A 
HETATM   10  C20 UNL     1      27.141   0.099  52.161  1.00  0.00     0.069 A 
ENDROOT
BRANCH   5  11
HETATM   11  N1  UNL     1      22.823   2.416  52.266  1.00  0.00    -0.340 N 
HETATM   12  H14 UNL     1      22.284   2.773  53.058  1.00  0.00     0.167 HD
BRANCH  11  13
HETATM   13  C11 UNL     1      21.773   1.977  51.408  1.00  0.00     0.036 A 
HETATM   14  C12 UNL     1      22.002   1.904  50.047  1.00  0.00     0.029 A 
HETATM   15  C13 UNL     1      21.062   1.468  49.137  1.00  0.00     0.005 A 
HETATM   16  C14 UNL     1      19.811   1.075  49.566  1.00  0.00     0.037 A 
HETATM   17  C15 UNL     1      19.529   1.129  50.911  1.00  0.00     0.070 A 
HETATM   18  C17 UNL     1      20.494   1.568  51.778  1.00  0.00     0.066 A 
BRANCH  17  19
HETATM   19  O5  UNL     1      18.291   0.748  51.401  1.00  0.00    -0.356 OA
HETATM   20  C16 UNL     1      18.115  -0.355  52.261  1.00  0.00     0.210 C 
ENDBRANCH  17  19
ENDBRANCH  11  13
ENDBRANCH   5  11
BRANCH   3  21
HETATM   21  O3  UNL     1      23.265   0.190  53.504  1.00  0.00    -0.348 OA
BRANCH  21  22
HETATM   22  C7  UNL     1      22.491  -0.960  53.645  1.00  0.00     0.201 C 
BRANCH  22  23
HETATM   23  C8  UNL     1      22.053  -1.084  55.098  1.00  0.00     0.190 C 
BRANCH  23  24
HETATM   24  O4  UNL     1      22.939  -1.849  55.835  1.00  0.00    -0.399 OA
HETATM   25  H13 UNL     1      23.098  -2.757  55.449  1.00  0.00     0.209 HD
ENDBRANCH  23  24
ENDBRANCH  22  23
ENDBRANCH  21  22
ENDBRANCH   3  21
BRANCH   1  26
HETATM   26  O2  UNL     1      27.668  -1.817  53.151  1.00  0.00    -0.349 OA
BRANCH  26  27
HETATM   27  C3  UNL     1      29.034  -1.675  53.013  1.00  0.00     0.201 C 
BRANCH  27  28
HETATM   28  C2  UNL     1      29.616  -0.913  54.178  1.00  0.00     0.193 C 
BRANCH  28  29
HETATM   29  O1  UNL     1      29.989   0.354  53.773  1.00  0.00    -0.394 OA
HETATM   30  C1  UNL     1      29.348   1.358  54.474  1.00  0.00     0.201 C 
ENDBRANCH  28  29
ENDBRANCH  27  28
ENDBRANCH  26  27
ENDBRANCH   1  26
TORSDOF 11
ENDMDL
MODEL 6
REMARK VINA RESULT:      -6.8      2.997      7.010
REMARK  11 active torsions:
REMARK  status: ('A' for Active; 'I' for Inactive)
REMARK    1  A    between atoms: O1_2  and  C2_3 
REMARK    2  A    between atoms: C2_3  and  C3_4 
REMARK    3  A    between atoms: C3_4  and  O2_5 
REMARK    4  A    between atoms: O2_5  and  C4_6 
REMARK    5  A    between atoms: C6_8  and  O3_9 
REMARK    6  A    between atoms: O3_9  and  C7_10 
REMARK    7  A    between atoms: C7_10  and  C8_11 
REMARK    8  A    between atoms: C8_11  and  O4_12 
REMARK    9  A    between atoms: C10_14  and  N1_15 
REMARK   10  A    between atoms: N1_15  and  C11_16 
REMARK   11  A    between atoms: C15_20  and  O5_21 
ROOT
HETATM    1  C4  UNL     1      21.861   1.139  52.869  1.00  0.00     0.073 A 
HETATM    2  C5  UNL     1      23.193   1.463  52.933  1.00  0.00     0.074 A 
HETATM    3  C6  UNL     1      23.916   2.048  51.918  1.00  0.00     0.087 A 
HETATM    4  C9  UNL     1      23.295   2.350  50.732  1.00  0.00     0.072 A 
HETATM    5  C10 UNL     1      24.076   2.933  49.763  1.00  0.00     0.144 A 
HETATM    6  N2  UNL     1      23.420   3.206  48.623  1.00  0.00    -0.223 NA
HETATM    7  C18 UNL     1      22.138   2.952  48.419  1.00  0.00     0.236 A 
HETATM    8  N3  UNL     1      21.419   2.382  49.398  1.00  0.00    -0.241 NA
HETATM    9  C19 UNL     1      21.967   2.063  50.584  1.00  0.00     0.077 A 
HETATM   10  C20 UNL     1      21.262   1.465  51.640  1.00  0.00     0.069 A 
ENDROOT
BRANCH   5  11
HETATM   11  N1  UNL     1      25.446   3.284  49.848  1.00  0.00    -0.340 N 
HETATM   12  H14 UNL     1      26.338   2.829  50.054  1.00  0.00     0.167 HD
BRANCH  11  13
HETATM   13  C11 UNL     1      25.881   4.619  49.603  1.00  0.00     0.036 A 
HETATM   14  C12 UNL     1      25.251   5.663  50.253  1.00  0.00     0.029 A 
HETATM   15  C13 UNL     1      25.613   6.986  50.105  1.00  0.00     0.005 A 
HETATM   16  C14 UNL     1      26.656   7.330  49.270  1.00  0.00     0.037 A 
HETATM   17  C15 UNL     1      27.318   6.329  48.597  1.00  0.00     0.070 A 
HETATM   18  C17 UNL     1      26.924   5.030  48.775  1.00  0.00     0.066 A 
BRANCH  17  19
HETATM   19  O5  UNL     1      28.372   6.614  47.745  1.00  0.00    -0.356 OA
HETATM   20  C16 UNL     1      29.186   7.755  47.891  1.00  0.00     0.210 C 
ENDBRANCH  17  19
ENDBRANCH  11  13
ENDBRANCH   5  11
BRANCH   3  21
HETATM   21  O3  UNL     1      25.243   2.276  52.219  1.00  0.00    -0.348 OA
BRANCH  21  22
HETATM   22  C7  UNL     1      26.138   1.358  52.765  1.00  0.00     0.201 C 
BRANCH  22  23
HETATM   23  C8  UNL     1      27.492   2.033  52.939  1.00  0.00     0.190 C 
BRANCH  23  24
HETATM   24  O4  UNL     1      27.766   2.905  51.902  1.00  0.00    -0.399 OA
HETATM   25  H13 UNL     1      28.027   3.819  52.208  1.00  0.00     0.209 HD
ENDBRANCH  23  24
ENDBRANCH  22  23
ENDBRANCH  21  22
ENDBRANCH   3  21
BRANCH   1  26
HETATM   26  O2  UNL     1      20.925   0.586  53.651  1.00  0.00    -0.349 OA
BRANCH  26  27
HETATM   27  C3  UNL     1      20.462  -0.711  53.738  1.00  0.00     0.201 C 
BRANCH  27  28
HETATM   28  C2  UNL     1      21.594  -1.668  54.024  1.00  0.00     0.193 C 
BRANCH  28  29
HETATM   29  O1  UNL     1      21.971  -1.568  55.350  1.00  0.00    -0.394 OA
HETATM   30  C1  UNL     1      23.329  -1.374  55.513  1.00  0.00     0.201 C 
ENDBRANCH  28  29
ENDBRANCH  27  28
ENDBRANCH  26  27
ENDBRANCH   1  26
TORSDOF 11
ENDMDL
MODEL 7
REMARK VINA RESULT:      -6.8      2.954      5.587
REMARK  11 active torsions:
REMARK  status: ('A' for Active; 'I' for Inactive)
REMARK    1  A    between atoms: O1_2  and  C2_3 
REMARK    2  A    between atoms: C2_3  and  C3_4 
REMARK    3  A    between atoms: C3_4  and  O2_5 
REMARK    4  A    between atoms: O2_5  and  C4_6 
REMARK    5  A    between atoms: C6_8  and  O3_9 
REMARK    6  A    between atoms: O3_9  and  C7_10 
REMARK    7  A    between atoms: C7_10  and  C8_11 
REMARK    8  A    between atoms: C8_11  and  O4_12 
REMARK    9  A    between atoms: C10_14  and  N1_15 
REMARK   10  A    between atoms: N1_15  and  C11_16 
REMARK   11  A    between atoms: C15_20  and  O5_21 
ROOT
HETATM    1  C4  UNL     1      27.050   4.599  49.136  1.00  0.00     0.073 A 
HETATM    2  C5  UNL     1      26.827   3.481  49.900  1.00  0.00     0.074 A 
HETATM    3  C6  UNL     1      25.747   3.291  50.731  1.00  0.00     0.087 A 
HETATM    4  C9  UNL     1      24.792   4.271  50.833  1.00  0.00     0.072 A 
HETATM    5  C10 UNL     1      23.741   4.017  51.681  1.00  0.00     0.144 A 
HETATM    6  N2  UNL     1      22.836   5.007  51.744  1.00  0.00    -0.223 NA
HETATM    7  C18 UNL     1      22.918   6.140  51.065  1.00  0.00     0.236 A 
HETATM    8  N3  UNL     1      23.965   6.340  50.251  1.00  0.00    -0.241 NA
HETATM    9  C19 UNL     1      24.934   5.419  50.104  1.00  0.00     0.077 A 
HETATM   10  C20 UNL     1      26.050   5.578  49.268  1.00  0.00     0.069 A 
ENDROOT
BRANCH   5  11
HETATM   11  N1  UNL     1      23.508   2.848  52.448  1.00  0.00    -0.340 N 
HETATM   12  H14 UNL     1      23.896   2.391  53.276  1.00  0.00     0.167 HD
BRANCH  11  13
HETATM   13  C11 UNL     1      22.468   1.935  52.104  1.00  0.00     0.036 A 
HETATM   14  C12 UNL     1      22.121   1.779  50.776  1.00  0.00     0.029 A 
HETATM   15  C13 UNL     1      21.149   0.904  50.338  1.00  0.00     0.005 A 
HETATM   16  C14 UNL     1      20.460   0.123  51.244  1.00  0.00     0.037 A 
HETATM   17  C15 UNL     1      20.766   0.240  52.580  1.00  0.00     0.070 A 
HETATM   18  C17 UNL     1      21.738   1.122  52.968  1.00  0.00     0.066 A 
BRANCH  17  19
HETATM   19  O5  UNL     1      20.108  -0.518  53.534  1.00  0.00    -0.356 OA
HETATM   20  C16 UNL     1      20.751  -1.513  54.298  1.00  0.00     0.210 C 
ENDBRANCH  17  19
ENDBRANCH  11  13
ENDBRANCH   5  11
BRANCH   3  21
HETATM   21  O3  UNL     1      25.743   2.084  51.399  1.00  0.00    -0.348 OA
BRANCH  21  22
HETATM   22  C7  UNL     1      26.846   1.448  51.964  1.00  0.00     0.201 C 
BRANCH  22  23
HETATM   23  C8  UNL     1      26.728   1.509  53.481  1.00  0.00     0.190 C 
BRANCH  23  24
HETATM   24  O4  UNL     1      27.163   2.724  53.978  1.00  0.00    -0.399 OA
HETATM   25  H13 UNL     1      28.121   2.717  54.265  1.00  0.00     0.209 HD
ENDBRANCH  23  24
ENDBRANCH  22  23
ENDBRANCH  21  22
ENDBRANCH   3  21
BRANCH   1  26
HETATM   26  O2  UNL     1      27.965   5.057  48.272  1.00  0.00    -0.349 OA
BRANCH  26  27
HETATM   27  C3  UNL     1      28.371   6.342  47.973  1.00  0.00     0.201 C 
BRANCH  27  28
HETATM   28  C2  UNL     1      29.876   6.450  48.001  1.00  0.00     0.193 C 
BRANCH  28  29
HETATM   29  O1  UNL     1      30.402   5.491  48.845  1.00  0.00    -0.394 OA
HETATM   30  C1  UNL     1      31.625   5.851  49.378  1.00  0.00     0.201 C 
ENDBRANCH  28  29
ENDBRANCH  27  28
ENDBRANCH  26  27
ENDBRANCH   1  26
TORSDOF 11
ENDMDL
MODEL 8
REMARK VINA RESULT:      -6.7      1.622      1.946
REMARK  11 active torsions:
REMARK  status: ('A' for Active; 'I' for Inactive)
REMARK    1  A    between atoms: O1_2  and  C2_3 
REMARK    2  A    between atoms: C2_3  and  C3_4 
REMARK    3  A    between atoms: C3_4  and  O2_5 
REMARK    4  A    between atoms: O2_5  and  C4_6 
REMARK    5  A    between atoms: C6_8  and  O3_9 
REMARK    6  A    between atoms: O3_9  and  C7_10 
REMARK    7  A    between atoms: C7_10  and  C8_11 
REMARK    8  A    between atoms: C8_11  and  O4_12 
REMARK    9  A    between atoms: C10_14  and  N1_15 
REMARK   10  A    between atoms: N1_15  and  C11_16 
REMARK   11  A    between atoms: C15_20  and  O5_21 
ROOT
HETATM    1  C4  UNL     1      26.141   0.067  52.663  1.00  0.00     0.073 A 
HETATM    2  C5  UNL     1      25.376   1.009  52.022  1.00  0.00     0.074 A 
HETATM    3  C6  UNL     1      24.039   1.236  52.255  1.00  0.00     0.087 A 
HETATM    4  C9  UNL     1      23.378   0.485  53.195  1.00  0.00     0.072 A 
HETATM    5  C10 UNL     1      22.045   0.764  53.376  1.00  0.00     0.144 A 
HETATM    6  N2  UNL     1      21.447   0.000  54.305  1.00  0.00    -0.223 NA
HETATM    7  C18 UNL     1      22.058  -0.944  55.003  1.00  0.00     0.236 A 
HETATM    8  N3  UNL     1      23.361  -1.178  54.787  1.00  0.00    -0.241 NA
HETATM    9  C19 UNL     1      24.066  -0.476  53.882  1.00  0.00     0.077 A 
HETATM   10  C20 UNL     1      25.429  -0.681  53.617  1.00  0.00     0.069 A 
ENDROOT
BRANCH   5  11
HETATM   11  N1  UNL     1      21.270   1.756  52.725  1.00  0.00    -0.340 N 
HETATM   12  H14 UNL     1      21.211   2.776  52.690  1.00  0.00     0.167 HD
BRANCH  11  13
HETATM   13  C11 UNL     1      20.228   1.399  51.820  1.00  0.00     0.036 A 
HETATM   14  C12 UNL     1      19.409   0.329  52.123  1.00  0.00     0.029 A 
HETATM   15  C13 UNL     1      18.358  -0.079  51.329  1.00  0.00     0.005 A 
HETATM   16  C14 UNL     1      18.075   0.590  50.156  1.00  0.00     0.037 A 
HETATM   17  C15 UNL     1      18.861   1.664  49.804  1.00  0.00     0.070 A 
HETATM   18  C17 UNL     1      19.893   2.032  50.625  1.00  0.00     0.066 A 
BRANCH  17  19
HETATM   19  O5  UNL     1      18.625   2.373  48.639  1.00  0.00    -0.356 OA
HETATM   20  C16 UNL     1      19.518   3.344  48.142  1.00  0.00     0.210 C 
ENDBRANCH  17  19
ENDBRANCH  11  13
ENDBRANCH   5  11
BRANCH   3  21
HETATM   21  O3  UNL     1      23.485   2.237  51.484  1.00  0.00    -0.348 OA
BRANCH  21  22
HETATM   22  C7  UNL     1      24.104   3.426  51.103  1.00  0.00     0.201 C 
BRANCH  22  23
HETATM   23  C8  UNL     1      23.076   4.549  51.135  1.00  0.00     0.190 C 
BRANCH  23  24
HETATM   24  O4  UNL     1      22.289   4.489  52.271  1.00  0.00    -0.399 OA
HETATM   25  H13 UNL     1      21.583   5.196  52.305  1.00  0.00     0.209 HD
ENDBRANCH  23  24
ENDBRANCH  22  23
ENDBRANCH  21  22
ENDBRANCH   3  21
BRANCH   1  26
HETATM   26  O2  UNL     1      27.405  -0.373  52.653  1.00  0.00    -0.349 OA
BRANCH  26  27
HETATM   27  C3  UNL     1      28.280  -0.652  53.684  1.00  0.00     0.201 C 
BRANCH  27  28
HETATM   28  C2  UNL     1      29.400   0.358  53.729  1.00  0.00     0.193 C 
BRANCH  28  29
HETATM   29  O1  UNL     1      29.017   1.452  54.480  1.00  0.00    -0.394 OA
HETATM   30  C1  UNL     1      28.687   2.550  53.709  1.00  0.00     0.201 C 
ENDBRANCH  28  29
ENDBRANCH  27  28
ENDBRANCH  26  27
ENDBRANCH   1  26
TORSDOF 11
ENDMDL
MODEL 9
REMARK VINA RESULT:      -6.7      2.113      3.809
REMARK  11 active torsions:
REMARK  status: ('A' for Active; 'I' for Inactive)
REMARK    1  A    between atoms: O1_2  and  C2_3 
REMARK    2  A    between atoms: C2_3  and  C3_4 
REMARK    3  A    between atoms: C3_4  and  O2_5 
REMARK    4  A    between atoms: O2_5  and  C4_6 
REMARK    5  A    between atoms: C6_8  and  O3_9 
REMARK    6  A    between atoms: O3_9  and  C7_10 
REMARK    7  A    between atoms: C7_10  and  C8_11 
REMARK    8  A    between atoms: C8_11  and  O4_12 
REMARK    9  A    between atoms: C10_14  and  N1_15 
REMARK   10  A    between atoms: N1_15  and  C11_16 
REMARK   11  A    between atoms: C15_20  and  O5_21 
ROOT
HETATM    1  C4  UNL     1      26.039   0.953  53.886  1.00  0.00     0.073 A 
HETATM    2  C5  UNL     1      24.907   0.179  53.831  1.00  0.00     0.074 A 
HETATM    3  C6  UNL     1      23.899   0.313  52.904  1.00  0.00     0.087 A 
HETATM    4  C9  UNL     1      23.993   1.283  51.938  1.00  0.00     0.072 A 
HETATM    5  C10 UNL     1      22.953   1.361  51.044  1.00  0.00     0.144 A 
HETATM    6  N2  UNL     1      23.095   2.327  50.121  1.00  0.00    -0.223 NA
HETATM    7  C18 UNL     1      24.131   3.147  50.050  1.00  0.00     0.236 A 
HETATM    8  N3  UNL     1      25.121   3.030  50.948  1.00  0.00    -0.241 NA
HETATM    9  C19 UNL     1      25.091   2.099  51.918  1.00  0.00     0.077 A 
HETATM   10  C20 UNL     1      26.098   1.934  52.881  1.00  0.00     0.069 A 
ENDROOT
BRANCH   5  11
HETATM   11  N1  UNL     1      21.799   0.542  50.982  1.00  0.00    -0.340 N 
HETATM   12  H14 UNL     1      21.567  -0.435  50.789  1.00  0.00     0.167 HD
BRANCH  11  13
HETATM   13  C11 UNL     1      20.502   1.075  51.240  1.00  0.00     0.036 A 
HETATM   14  C12 UNL     1      20.353   2.440  51.390  1.00  0.00     0.029 A 
HETATM   15  C13 UNL     1      19.139   3.056  51.614  1.00  0.00     0.005 A 
HETATM   16  C14 UNL     1      17.985   2.304  51.701  1.00  0.00     0.037 A 
HETATM   17  C15 UNL     1      18.077   0.939  51.560  1.00  0.00     0.070 A 
HETATM   18  C17 UNL     1      19.303   0.372  51.338  1.00  0.00     0.066 A 
BRANCH  17  19
HETATM   19  O5  UNL     1      16.954   0.133  51.639  1.00  0.00    -0.356 OA
HETATM   20  C16 UNL     1      16.885  -1.004  52.469  1.00  0.00     0.210 C 
ENDBRANCH  17  19
ENDBRANCH  11  13
ENDBRANCH   5  11
BRANCH   3  21
HETATM   21  O3  UNL     1      22.860  -0.582  53.054  1.00  0.00    -0.348 OA
BRANCH  21  22
HETATM   22  C7  UNL     1      22.429  -1.157  54.247  1.00  0.00     0.201 C 
BRANCH  22  23
HETATM   23  C8  UNL     1      20.909  -1.095  54.304  1.00  0.00     0.190 C 
BRANCH  23  24
HETATM   24  O4  UNL     1      20.467   0.099  54.845  1.00  0.00    -0.399 OA
HETATM   25  H13 UNL     1      19.479   0.228  54.770  1.00  0.00     0.209 HD
ENDBRANCH  23  24
ENDBRANCH  22  23
ENDBRANCH  21  22
ENDBRANCH   3  21
BRANCH   1  26
HETATM   26  O2  UNL     1      27.143   1.062  54.635  1.00  0.00    -0.349 OA
BRANCH  26  27
HETATM   27  C3  UNL     1      28.226   0.219  54.789  1.00  0.00     0.201 C 
BRANCH  27  28
HETATM   28  C2  UNL     1      29.433   0.755  54.059  1.00  0.00     0.193 C 
BRANCH  28  29
HETATM   29  O1  UNL     1      30.089  -0.276  53.414  1.00  0.00    -0.394 OA
HETATM   30  C1  UNL     1      29.392  -1.468  53.449  1.00  0.00     0.201 C 
ENDBRANCH  28  29
ENDBRANCH  27  28
ENDBRANCH  26  27
ENDBRANCH   1  26
TORSDOF 11
ENDMDL
