MODEL 1
REMARK VINA RESULT:      -6.8      0.000      0.000
REMARK  5 active torsions:
REMARK  status: ('A' for Active; 'I' for Inactive)
REMARK    1  A    between atoms: N1_2  and  C2_3 
REMARK    2  A    between atoms: C4_5  and  O1_6 
REMARK    3  A    between atoms: O1_6  and  C5_7 
REMARK    4  A    between atoms: C5_7  and  C6_8 
REMARK    5  A    between atoms: C6_8  and  O2_9 
ROOT
HETATM    1  C2  UNL     1      27.514  -0.700  53.312  1.00  0.00     0.081 C 
HETATM    2  C3  UNL     1      26.329  -1.008  52.784  1.00  0.00     0.067 C 
HETATM    3  C4  UNL     1      25.057  -0.416  53.341  1.00  0.00     0.201 C 
HETATM    4  C8  UNL     1      25.362  -0.221  54.813  1.00  0.00     0.339 C 
HETATM    5  N2  UNL     1      26.403   0.781  54.918  1.00  0.00     0.112 N 
HETATM    6  C9  UNL     1      27.526   0.555  54.070  1.00  0.00     0.243 A 
HETATM    7  C10 UNL     1      28.762   0.643  54.916  1.00  0.00     0.026 A 
HETATM    8  C11 UNL     1      29.454   1.685  54.545  1.00  0.00    -0.000 A 
HETATM    9  C12 UNL     1      28.809   2.402  53.452  1.00  0.00     0.006 A 
HETATM   10  C13 UNL     1      27.691   1.749  53.173  1.00  0.00    -0.027 A 
HETATM   11  C14 UNL     1      26.826   2.289  52.067  1.00  0.00     0.084 C 
HETATM   12  C15 UNL     1      25.424   1.809  52.212  1.00  0.00     0.091 C 
HETATM   13  N3  UNL     1      24.761   0.846  52.745  1.00  0.00    -0.261 NA
HETATM   14  H13 UNL     1      25.957   1.734  54.785  1.00  0.00     0.318 HD
ENDROOT
BRANCH   3  15
HETATM   15  O1  UNL     1      24.065  -1.350  53.180  1.00  0.00    -0.352 OA
BRANCH  15  16
HETATM   16  C5  UNL     1      22.775  -0.859  53.181  1.00  0.00     0.197 C 
BRANCH  16  17
HETATM   17  C6  UNL     1      21.957  -1.799  54.079  1.00  0.00     0.193 C 
BRANCH  17  18
HETATM   18  O2  UNL     1      21.217  -1.114  55.015  1.00  0.00    -0.394 OA
HETATM   19  C7  UNL     1      20.979   0.208  54.706  1.00  0.00     0.201 C 
ENDBRANCH  17  18
ENDBRANCH  16  17
ENDBRANCH  15  16
ENDBRANCH   3  15
BRANCH   1  20
HETATM   20  N1  UNL     1      28.709  -1.471  53.195  1.00  0.00    -0.273 NA
HETATM   21  C1  UNL     1      28.637  -2.761  53.122  1.00  0.00     0.149 C 
ENDBRANCH   1  20
TORSDOF 5
ENDMDL
MODEL 2
REMARK VINA RESULT:      -6.3      2.607      5.661
REMARK  5 active torsions:
REMARK  status: ('A' for Active; 'I' for Inactive)
REMARK    1  A    between atoms: N1_2  and  C2_3 
REMARK    2  A    between atoms: C4_5  and  O1_6 
REMARK    3  A    between atoms: O1_6  and  C5_7 
REMARK    4  A    between atoms: C5_7  and  C6_8 
REMARK    5  A    between atoms: C6_8  and  O2_9 
ROOT
HETATM    1  C2  UNL     1      25.089   2.818  51.200  1.00  0.00     0.081 C 
HETATM    2  C3  UNL     1      25.870   1.755  51.399  1.00  0.00     0.067 C 
HETATM    3  C4  UNL     1      26.175   1.269  52.795  1.00  0.00     0.201 C 
HETATM    4  C8  UNL     1      26.145   2.532  53.633  1.00  0.00     0.339 C 
HETATM    5  N2  UNL     1      24.786   3.036  53.622  1.00  0.00     0.112 N 
HETATM    6  C9  UNL     1      24.203   3.131  52.326  1.00  0.00     0.243 A 
HETATM    7  C10 UNL     1      23.639   4.514  52.179  1.00  0.00     0.026 A 
HETATM    8  C11 UNL     1      22.340   4.433  52.098  1.00  0.00    -0.000 A 
HETATM    9  C12 UNL     1      21.877   3.052  52.174  1.00  0.00     0.006 A 
HETATM   10  C13 UNL     1      22.955   2.295  52.305  1.00  0.00    -0.027 A 
HETATM   11  C14 UNL     1      22.753   0.808  52.408  1.00  0.00     0.084 C 
HETATM   12  C15 UNL     1      23.926   0.159  53.058  1.00  0.00     0.091 C 
HETATM   13  N3  UNL     1      25.177   0.364  53.264  1.00  0.00    -0.261 NA
HETATM   14  H13 UNL     1      24.217   2.456  54.303  1.00  0.00     0.318 HD
ENDROOT
BRANCH   3  15
HETATM   15  O1  UNL     1      27.440   0.740  52.778  1.00  0.00    -0.352 OA
BRANCH  15  16
HETATM   16  C5  UNL     1      28.317   1.255  53.710  1.00  0.00     0.197 C 
BRANCH  16  17
HETATM   17  C6  UNL     1      28.643   0.107  54.676  1.00  0.00     0.193 C 
BRANCH  17  18
HETATM   18  O2  UNL     1      28.591  -1.123  54.062  1.00  0.00    -0.394 OA
HETATM   19  C7  UNL     1      29.781  -1.539  53.503  1.00  0.00     0.201 C 
ENDBRANCH  17  18
ENDBRANCH  16  17
ENDBRANCH  15  16
ENDBRANCH   3  15
BRANCH   1  20
HETATM   20  N1  UNL     1      25.060   3.629  50.027  1.00  0.00    -0.273 NA
HETATM   21  C1  UNL     1      26.166   4.091  49.537  1.00  0.00     0.149 C 
ENDBRANCH   1  20
TORSDOF 5
ENDMDL
MODEL 3
REMARK VINA RESULT:      -6.2      2.827      5.901
REMARK  5 active torsions:
REMARK  status: ('A' for Active; 'I' for Inactive)
REMARK    1  A    between atoms: N1_2  and  C2_3 
REMARK    2  A    between atoms: C4_5  and  O1_6 
REMARK    3  A    between atoms: O1_6  and  C5_7 
REMARK    4  A    between atoms: C5_7  and  C6_8 
REMARK    5  A    between atoms: C6_8  and  O2_9 
ROOT
HETATM    1  C2  UNL     1      23.635   3.063  52.461  1.00  0.00     0.081 C 
HETATM    2  C3  UNL     1      24.733   3.074  53.218  1.00  0.00     0.067 C 
HETATM    3  C4  UNL     1      25.735   1.948  53.145  1.00  0.00     0.201 C 
HETATM    4  C8  UNL     1      24.892   0.736  52.801  1.00  0.00     0.339 C 
HETATM    5  N2  UNL     1      24.351   0.938  51.472  1.00  0.00     0.112 N 
HETATM    6  C9  UNL     1      23.732   2.206  51.275  1.00  0.00     0.243 A 
HETATM    7  C10 UNL     1      22.371   1.964  50.691  1.00  0.00     0.026 A 
HETATM    8  C11 UNL     1      22.344   2.437  49.475  1.00  0.00    -0.000 A 
HETATM    9  C12 UNL     1      23.620   3.032  49.096  1.00  0.00     0.006 A 
HETATM   10  C13 UNL     1      24.427   2.901  50.138  1.00  0.00    -0.027 A 
HETATM   11  C14 UNL     1      25.825   3.439  50.008  1.00  0.00     0.084 C 
HETATM   12  C15 UNL     1      26.737   2.783  50.987  1.00  0.00     0.091 C 
HETATM   13  N3  UNL     1      26.695   2.168  52.114  1.00  0.00    -0.261 NA
HETATM   14  H13 UNL     1      25.116   0.725  50.770  1.00  0.00     0.318 HD
ENDROOT
BRANCH   3  15
HETATM   15  O1  UNL     1      26.285   1.807  54.393  1.00  0.00    -0.352 OA
BRANCH  15  16
HETATM   16  C5  UNL     1      26.484   0.507  54.816  1.00  0.00     0.197 C 
BRANCH  16  17
HETATM   17  C6  UNL     1      28.003   0.279  54.802  1.00  0.00     0.193 C 
BRANCH  17  18
HETATM   18  O2  UNL     1      28.350  -0.886  54.156  1.00  0.00    -0.394 OA
HETATM   19  C7  UNL     1      29.650  -0.925  53.700  1.00  0.00     0.201 C 
ENDBRANCH  17  18
ENDBRANCH  16  17
ENDBRANCH  15  16
ENDBRANCH   3  15
BRANCH   1  20
HETATM   20  N1  UNL     1      22.434   3.790  52.715  1.00  0.00    -0.273 NA
HETATM   21  C1  UNL     1      22.335   5.022  52.331  1.00  0.00     0.149 C 
ENDBRANCH   1  20
TORSDOF 5
ENDMDL
MODEL 4
REMARK VINA RESULT:      -6.0      3.193      4.513
REMARK  5 active torsions:
REMARK  status: ('A' for Active; 'I' for Inactive)
REMARK    1  A    between atoms: N1_2  and  C2_3 
REMARK    2  A    between atoms: C4_5  and  O1_6 
REMARK    3  A    between atoms: O1_6  and  C5_7 
REMARK    4  A    between atoms: C5_7  and  C6_8 
REMARK    5  A    between atoms: C6_8  and  O2_9 
ROOT
HETATM    1  C2  UNL     1      24.065   1.578  52.067  1.00  0.00     0.081 C 
HETATM    2  C3  UNL     1      23.257   2.005  51.096  1.00  0.00     0.067 C 
HETATM    3  C4  UNL     1      23.072   3.480  50.836  1.00  0.00     0.201 C 
HETATM    4  C8  UNL     1      23.250   4.114  52.201  1.00  0.00     0.339 C 
HETATM    5  N2  UNL     1      24.624   3.901  52.610  1.00  0.00     0.112 N 
HETATM    6  C9  UNL     1      25.075   2.556  52.480  1.00  0.00     0.243 A 
HETATM    7  C10 UNL     1      25.689   2.153  53.789  1.00  0.00     0.026 A 
HETATM    8  C11 UNL     1      26.968   1.964  53.614  1.00  0.00    -0.000 A 
HETATM    9  C12 UNL     1      27.367   2.201  52.233  1.00  0.00     0.006 A 
HETATM   10  C13 UNL     1      26.272   2.544  51.572  1.00  0.00    -0.027 A 
HETATM   11  C14 UNL     1      26.410   2.848  50.105  1.00  0.00     0.084 C 
HETATM   12  C15 UNL     1      25.278   3.694  49.633  1.00  0.00     0.091 C 
HETATM   13  N3  UNL     1      24.066   3.983  49.945  1.00  0.00    -0.261 NA
HETATM   14  H13 UNL     1      25.230   4.604  52.099  1.00  0.00     0.318 HD
ENDROOT
BRANCH   3  15
HETATM   15  O1  UNL     1      21.787   3.661  50.391  1.00  0.00    -0.352 OA
BRANCH  15  16
HETATM   16  C5  UNL     1      21.028   4.565  51.106  1.00  0.00     0.197 C 
BRANCH  16  17
HETATM   17  C6  UNL     1      19.702   3.859  51.423  1.00  0.00     0.193 C 
BRANCH  17  18
HETATM   18  O2  UNL     1      19.772   3.109  52.575  1.00  0.00    -0.394 OA
HETATM   19  C7  UNL     1      19.761   1.745  52.376  1.00  0.00     0.201 C 
ENDBRANCH  17  18
ENDBRANCH  16  17
ENDBRANCH  15  16
ENDBRANCH   3  15
BRANCH   1  20
HETATM   20  N1  UNL     1      24.014   0.300  52.698  1.00  0.00    -0.273 NA
HETATM   21  C1  UNL     1      22.875  -0.187  53.075  1.00  0.00     0.149 C 
ENDBRANCH   1  20
TORSDOF 5
ENDMDL
MODEL 5
REMARK VINA RESULT:      -6.0      3.732      6.663
REMARK  5 active torsions:
REMARK  status: ('A' for Active; 'I' for Inactive)
REMARK    1  A    between atoms: N1_2  and  C2_3 
REMARK    2  A    between atoms: C4_5  and  O1_6 
REMARK    3  A    between atoms: O1_6  and  C5_7 
REMARK    4  A    between atoms: C5_7  and  C6_8 
REMARK    5  A    between atoms: C6_8  and  O2_9 
ROOT
HETATM    1  C2  UNL     1      23.034   1.659  50.840  1.00  0.00     0.081 C 
HETATM    2  C3  UNL     1      23.799   2.413  50.050  1.00  0.00     0.067 C 
HETATM    3  C4  UNL     1      24.631   3.536  50.620  1.00  0.00     0.201 C 
HETATM    4  C8  UNL     1      23.826   4.012  51.813  1.00  0.00     0.339 C 
HETATM    5  N2  UNL     1      23.800   2.938  52.785  1.00  0.00     0.112 N 
HETATM    6  C9  UNL     1      23.435   1.669  52.250  1.00  0.00     0.243 A 
HETATM    7  C10 UNL     1      22.339   1.110  53.110  1.00  0.00     0.026 A 
HETATM    8  C11 UNL     1      22.784   0.049  53.724  1.00  0.00    -0.000 A 
HETATM    9  C12 UNL     1      24.172  -0.236  53.377  1.00  0.00     0.006 A 
HETATM   10  C13 UNL     1      24.551   0.701  52.522  1.00  0.00    -0.027 A 
HETATM   11  C14 UNL     1      25.961   0.638  52.001  1.00  0.00     0.084 C 
HETATM   12  C15 UNL     1      26.401   1.972  51.505  1.00  0.00     0.091 C 
HETATM   13  N3  UNL     1      25.905   3.071  51.061  1.00  0.00    -0.261 NA
HETATM   14  H13 UNL     1      24.731   2.933  53.293  1.00  0.00     0.318 HD
ENDROOT
BRANCH   3  15
HETATM   15  O1  UNL     1      24.699   4.520  49.668  1.00  0.00    -0.352 OA
BRANCH  15  16
HETATM   16  C5  UNL     1      25.429   5.639  50.016  1.00  0.00     0.197 C 
BRANCH  16  17
HETATM   17  C6  UNL     1      26.361   5.931  48.830  1.00  0.00     0.193 C 
BRANCH  17  18
HETATM   18  O2  UNL     1      27.325   4.962  48.673  1.00  0.00    -0.394 OA
HETATM   19  C7  UNL     1      28.569   5.439  48.320  1.00  0.00     0.201 C 
ENDBRANCH  17  18
ENDBRANCH  16  17
ENDBRANCH  15  16
ENDBRANCH   3  15
BRANCH   1  20
HETATM   20  N1  UNL     1      21.910   0.884  50.426  1.00  0.00    -0.273 NA
HETATM   21  C1  UNL     1      21.434   1.029  49.232  1.00  0.00     0.149 C 
ENDBRANCH   1  20
TORSDOF 5
ENDMDL
MODEL 6
REMARK VINA RESULT:      -5.8      3.409      4.759
REMARK  5 active torsions:
REMARK  status: ('A' for Active; 'I' for Inactive)
REMARK    1  A    between atoms: N1_2  and  C2_3 
REMARK    2  A    between atoms: C4_5  and  O1_6 
REMARK    3  A    between atoms: O1_6  and  C5_7 
REMARK    4  A    between atoms: C5_7  and  C6_8 
REMARK    5  A    between atoms: C6_8  and  O2_9 
ROOT
HETATM    1  C2  UNL     1      24.273   0.823  52.878  1.00  0.00     0.081 C 
HETATM    2  C3  UNL     1      23.540   1.520  52.008  1.00  0.00     0.067 C 
HETATM    3  C4  UNL     1      23.679   3.020  51.906  1.00  0.00     0.201 C 
HETATM    4  C8  UNL     1      24.052   3.445  53.313  1.00  0.00     0.339 C 
HETATM    5  N2  UNL     1      25.360   2.895  53.607  1.00  0.00     0.112 N 
HETATM    6  C9  UNL     1      25.493   1.506  53.317  1.00  0.00     0.243 A 
HETATM    7  C10 UNL     1      26.057   0.838  54.537  1.00  0.00     0.026 A 
HETATM    8  C11 UNL     1      27.252   0.394  54.260  1.00  0.00    -0.000 A 
HETATM    9  C12 UNL     1      27.635   0.689  52.885  1.00  0.00     0.006 A 
HETATM   10  C13 UNL     1      26.617   1.333  52.335  1.00  0.00    -0.027 A 
HETATM   11  C14 UNL     1      26.756   1.759  50.899  1.00  0.00     0.084 C 
HETATM   12  C15 UNL     1      25.824   2.879  50.588  1.00  0.00     0.091 C 
HETATM   13  N3  UNL     1      24.722   3.389  51.005  1.00  0.00    -0.261 NA
HETATM   14  H13 UNL     1      26.086   3.501  53.128  1.00  0.00     0.318 HD
ENDROOT
BRANCH   3  15
HETATM   15  O1  UNL     1      22.449   3.524  51.567  1.00  0.00    -0.352 OA
BRANCH  15  16
HETATM   16  C5  UNL     1      22.046   4.640  52.271  1.00  0.00     0.197 C 
BRANCH  16  17
HETATM   17  C6  UNL     1      21.946   5.781  51.248  1.00  0.00     0.193 C 
BRANCH  17  18
HETATM   18  O2  UNL     1      23.104   6.520  51.174  1.00  0.00    -0.394 OA
HETATM   19  C7  UNL     1      22.996   7.691  50.456  1.00  0.00     0.201 C 
ENDBRANCH  17  18
ENDBRANCH  16  17
ENDBRANCH  15  16
ENDBRANCH   3  15
BRANCH   1  20
HETATM   20  N1  UNL     1      23.964  -0.475  53.382  1.00  0.00    -0.273 NA
HETATM   21  C1  UNL     1      22.740  -0.777  53.673  1.00  0.00     0.149 C 
ENDBRANCH   1  20
TORSDOF 5
ENDMDL
MODEL 7
REMARK VINA RESULT:      -5.8      2.626      4.916
REMARK  5 active torsions:
REMARK  status: ('A' for Active; 'I' for Inactive)
REMARK    1  A    between atoms: N1_2  and  C2_3 
REMARK    2  A    between atoms: C4_5  and  O1_6 
REMARK    3  A    between atoms: O1_6  and  C5_7 
REMARK    4  A    between atoms: C5_7  and  C6_8 
REMARK    5  A    between atoms: C6_8  and  O2_9 
ROOT
HETATM    1  C2  UNL     1      23.899   3.707  51.944  1.00  0.00     0.081 C 
HETATM    2  C3  UNL     1      23.765   2.767  52.880  1.00  0.00     0.067 C 
HETATM    3  C4  UNL     1      23.646   1.310  52.503  1.00  0.00     0.201 C 
HETATM    4  C8  UNL     1      22.955   1.341  51.154  1.00  0.00     0.339 C 
HETATM    5  N2  UNL     1      23.856   1.974  50.212  1.00  0.00     0.112 N 
HETATM    6  C9  UNL     1      24.406   3.209  50.662  1.00  0.00     0.243 A 
HETATM    7  C10 UNL     1      24.186   4.227  49.581  1.00  0.00     0.026 A 
HETATM    8  C11 UNL     1      25.343   4.582  49.094  1.00  0.00    -0.000 A 
HETATM    9  C12 UNL     1      26.444   3.886  49.750  1.00  0.00     0.006 A 
HETATM   10  C13 UNL     1      25.903   3.089  50.660  1.00  0.00    -0.027 A 
HETATM   11  C14 UNL     1      26.835   2.247  51.488  1.00  0.00     0.084 C 
HETATM   12  C15 UNL     1      26.117   1.072  52.058  1.00  0.00     0.091 C 
HETATM   13  N3  UNL     1      24.927   0.698  52.367  1.00  0.00    -0.261 NA
HETATM   14  H13 UNL     1      24.588   1.261  49.928  1.00  0.00     0.318 HD
ENDROOT
BRANCH   3  15
HETATM   15  O1  UNL     1      22.841   0.709  53.436  1.00  0.00    -0.352 OA
BRANCH  15  16
HETATM   16  C5  UNL     1      22.937  -0.666  53.513  1.00  0.00     0.197 C 
BRANCH  16  17
HETATM   17  C6  UNL     1      22.563  -1.044  54.954  1.00  0.00     0.193 C 
BRANCH  17  18
HETATM   18  O2  UNL     1      21.477  -1.886  55.008  1.00  0.00    -0.394 OA
HETATM   19  C7  UNL     1      20.452  -1.561  54.145  1.00  0.00     0.201 C 
ENDBRANCH  17  18
ENDBRANCH  16  17
ENDBRANCH  15  16
ENDBRANCH   3  15
BRANCH   1  20
HETATM   20  N1  UNL     1      23.597   5.092  52.098  1.00  0.00    -0.273 NA
HETATM   21  C1  UNL     1      22.363   5.483  52.125  1.00  0.00     0.149 C 
ENDBRANCH   1  20
TORSDOF 5
ENDMDL
MODEL 8
REMARK VINA RESULT:      -5.8      2.945      4.875
REMARK  5 active torsions:
REMARK  status: ('A' for Active; 'I' for Inactive)
REMARK    1  A    between atoms: N1_2  and  C2_3 
REMARK    2  A    between atoms: C4_5  and  O1_6 
REMARK    3  A    between atoms: O1_6  and  C5_7 
REMARK    4  A    between atoms: C5_7  and  C6_8 
REMARK    5  A    between atoms: C6_8  and  O2_9 
ROOT
HETATM    1  C2  UNL     1      23.693   2.373  52.551  1.00  0.00     0.081 C 
HETATM    2  C3  UNL     1      23.270   1.141  52.262  1.00  0.00     0.067 C 
HETATM    3  C4  UNL     1      21.848   0.894  51.821  1.00  0.00     0.201 C 
HETATM    4  C8  UNL     1      21.056   1.973  52.534  1.00  0.00     0.339 C 
HETATM    5  N2  UNL     1      21.473   3.253  51.999  1.00  0.00     0.112 N 
HETATM    6  C9  UNL     1      22.885   3.440  51.953  1.00  0.00     0.243 A 
HETATM    7  C10 UNL     1      23.192   4.757  52.605  1.00  0.00     0.026 A 
HETATM    8  C11 UNL     1      23.660   5.575  51.704  1.00  0.00    -0.000 A 
HETATM    9  C12 UNL     1      23.729   4.950  50.388  1.00  0.00     0.006 A 
HETATM   10  C13 UNL     1      23.281   3.712  50.530  1.00  0.00    -0.027 A 
HETATM   11  C14 UNL     1      23.246   2.840  49.304  1.00  0.00     0.084 C 
HETATM   12  C15 UNL     1      22.275   1.724  49.478  1.00  0.00     0.091 C 
HETATM   13  N3  UNL     1      21.702   1.051  50.411  1.00  0.00    -0.261 NA
HETATM   14  H13 UNL     1      20.996   3.388  51.062  1.00  0.00     0.318 HD
ENDROOT
BRANCH   3  15
HETATM   15  O1  UNL     1      21.485  -0.345  52.281  1.00  0.00    -0.352 OA
BRANCH  15  16
HETATM   16  C5  UNL     1      20.634  -0.355  53.368  1.00  0.00     0.197 C 
BRANCH  16  17
HETATM   17  C6  UNL     1      21.089  -1.519  54.261  1.00  0.00     0.193 C 
BRANCH  17  18
HETATM   18  O2  UNL     1      21.807  -1.089  55.354  1.00  0.00    -0.394 OA
HETATM   19  C7  UNL     1      23.154  -1.377  55.308  1.00  0.00     0.201 C 
ENDBRANCH  17  18
ENDBRANCH  16  17
ENDBRANCH  15  16
ENDBRANCH   3  15
BRANCH   1  20
HETATM   20  N1  UNL     1      24.819   2.704  53.362  1.00  0.00    -0.273 NA
HETATM   21  C1  UNL     1      25.914   2.022  53.251  1.00  0.00     0.149 C 
ENDBRANCH   1  20
TORSDOF 5
ENDMDL
MODEL 9
REMARK VINA RESULT:      -5.7      4.002      6.282
REMARK  5 active torsions:
REMARK  status: ('A' for Active; 'I' for Inactive)
REMARK    1  A    between atoms: N1_2  and  C2_3 
REMARK    2  A    between atoms: C4_5  and  O1_6 
REMARK    3  A    between atoms: O1_6  and  C5_7 
REMARK    4  A    between atoms: C5_7  and  C6_8 
REMARK    5  A    between atoms: C6_8  and  O2_9 
ROOT
HETATM    1  C2  UNL     1      23.159   1.547  51.239  1.00  0.00     0.081 C 
HETATM    2  C3  UNL     1      23.756   2.484  50.501  1.00  0.00     0.067 C 
HETATM    3  C4  UNL     1      24.578   3.571  51.148  1.00  0.00     0.201 C 
HETATM    4  C8  UNL     1      23.912   3.775  52.495  1.00  0.00     0.339 C 
HETATM    5  N2  UNL     1      24.092   2.561  53.265  1.00  0.00     0.112 N 
HETATM    6  C9  UNL     1      23.746   1.366  52.569  1.00  0.00     0.243 A 
HETATM    7  C10 UNL     1      22.818   0.580  53.449  1.00  0.00     0.026 A 
HETATM    8  C11 UNL     1      23.415  -0.521  53.813  1.00  0.00    -0.000 A 
HETATM    9  C12 UNL     1      24.758  -0.620  53.255  1.00  0.00     0.006 A 
HETATM   10  C13 UNL     1      24.953   0.473  52.533  1.00  0.00    -0.027 A 
HETATM   11  C14 UNL     1      26.280   0.622  51.840  1.00  0.00     0.084 C 
HETATM   12  C15 UNL     1      26.555   2.052  51.529  1.00  0.00     0.091 C 
HETATM   13  N3  UNL     1      25.930   3.159  51.344  1.00  0.00    -0.261 NA
HETATM   14  H13 UNL     1      25.082   2.559  53.646  1.00  0.00     0.318 HD
ENDROOT
BRANCH   3  15
HETATM   15  O1  UNL     1      24.448   4.698  50.377  1.00  0.00    -0.352 OA
BRANCH  15  16
HETATM   16  C5  UNL     1      23.713   5.724  50.937  1.00  0.00     0.197 C 
BRANCH  16  17
HETATM   17  C6  UNL     1      24.577   6.988  50.815  1.00  0.00     0.193 C 
BRANCH  17  18
HETATM   18  O2  UNL     1      23.818   8.130  50.692  1.00  0.00    -0.394 OA
HETATM   19  C7  UNL     1      23.585   8.530  49.394  1.00  0.00     0.201 C 
ENDBRANCH  17  18
ENDBRANCH  16  17
ENDBRANCH  15  16
ENDBRANCH   3  15
BRANCH   1  20
HETATM   20  N1  UNL     1      22.045   0.750  50.840  1.00  0.00    -0.273 NA
HETATM   21  C1  UNL     1      21.444   0.999  49.720  1.00  0.00     0.149 C 
ENDBRANCH   1  20
TORSDOF 5
ENDMDL
