MODEL 1
REMARK VINA RESULT:      -8.1      0.000      0.000
REMARK  1 active torsions:
REMARK  status: ('A' for Active; 'I' for Inactive)
REMARK    1  A    between atoms: C2_2  and  C3_4 
ROOT
HETATM    1  C3  UNL     1      22.020   0.095  52.528  1.00  0.00     0.018 A 
HETATM    2  C4  UNL     1      21.053   0.302  51.584  1.00  0.00     0.016 A 
HETATM    3  C5  UNL     1      21.201   1.116  50.492  1.00  0.00     0.003 A 
HETATM    4  C6  UNL     1      22.374   1.769  50.311  1.00  0.00     0.030 A 
HETATM    5  C7  UNL     1      23.395   1.610  51.220  1.00  0.00     0.042 A 
HETATM    6  C8  UNL     1      23.192   0.778  52.302  1.00  0.00    -0.015 A 
HETATM    7  C9  UNL     1      24.065   0.413  53.411  1.00  0.00     0.081 C 
HETATM    8  C10 UNL     1      25.441   0.997  53.356  1.00  0.00     0.250 C 
HETATM    9  C11 UNL     1      26.218   0.647  54.577  1.00  0.00     0.005 C 
HETATM   10  C12 UNL     1      27.475   0.208  54.747  1.00  0.00    -0.027 C 
HETATM   11  C13 UNL     1      28.221   0.045  53.442  1.00  0.00     0.057 C 
HETATM   12  C14 UNL     1      27.164  -0.412  52.458  1.00  0.00     0.277 C 
HETATM   13  N1  UNL     1      26.201   0.616  52.211  1.00  0.00     0.105 N 
HETATM   14  C15 UNL     1      26.863   1.732  51.565  1.00  0.00     0.375 C 
HETATM   15  C16 UNL     1      25.799   2.554  50.934  1.00  0.00     0.250 C 
HETATM   16  O2  UNL     1      26.284   3.664  50.520  1.00  0.00    -0.271 OA
HETATM   17  N2  UNL     1      24.405   2.446  50.667  1.00  0.00    -0.325 N 
HETATM   18  H18 UNL     1      24.055   3.112  49.916  1.00  0.00     0.169 HD
ENDROOT
BRANCH   1  19
HETATM   19  C2  UNL     1      21.743  -0.792  53.648  1.00  0.00     0.156 C 
HETATM   20  C1  UNL     1      21.138  -0.186  54.858  1.00  0.00     0.097 C 
HETATM   21  O1  UNL     1      21.902  -2.015  53.852  1.00  0.00    -0.293 OA
ENDBRANCH   1  19
TORSDOF 1
ENDMDL
MODEL 2
REMARK VINA RESULT:      -8.0      2.432      4.876
REMARK  1 active torsions:
REMARK  status: ('A' for Active; 'I' for Inactive)
REMARK    1  A    between atoms: C2_2  and  C3_4 
ROOT
HETATM    1  C3  UNL     1      23.697  -0.298  53.786  1.00  0.00     0.018 A 
HETATM    2  C4  UNL     1      23.023  -1.108  54.658  1.00  0.00     0.016 A 
HETATM    3  C5  UNL     1      21.690  -0.988  54.951  1.00  0.00     0.003 A 
HETATM    4  C6  UNL     1      20.968  -0.013  54.351  1.00  0.00     0.030 A 
HETATM    5  C7  UNL     1      21.577   0.841  53.460  1.00  0.00     0.042 A 
HETATM    6  C8  UNL     1      22.922   0.677  53.201  1.00  0.00    -0.015 A 
HETATM    7  C9  UNL     1      23.829   1.407  52.323  1.00  0.00     0.081 C 
HETATM    8  C10 UNL     1      23.196   2.499  51.522  1.00  0.00     0.250 C 
HETATM    9  C11 UNL     1      24.218   3.245  50.737  1.00  0.00     0.005 C 
HETATM   10  C12 UNL     1      24.242   3.663  49.461  1.00  0.00    -0.027 C 
HETATM   11  C13 UNL     1      22.989   3.296  48.700  1.00  0.00     0.057 C 
HETATM   12  C14 UNL     1      22.584   1.951  49.266  1.00  0.00     0.277 C 
HETATM   13  N1  UNL     1      22.171   2.063  50.631  1.00  0.00     0.105 N 
HETATM   14  C15 UNL     1      20.974   2.876  50.693  1.00  0.00     0.375 C 
HETATM   15  C16 UNL     1      20.337   2.604  52.007  1.00  0.00     0.250 C 
HETATM   16  O2  UNL     1      19.389   3.436  52.221  1.00  0.00    -0.271 OA
HETATM   17  N2  UNL     1      20.493   1.682  53.081  1.00  0.00    -0.325 N 
HETATM   18  H18 UNL     1      19.643   1.608  53.714  1.00  0.00     0.169 HD
ENDROOT
BRANCH   1  19
HETATM   19  C2  UNL     1      25.116  -0.522  53.558  1.00  0.00     0.156 C 
HETATM   20  C1  UNL     1      26.054  -0.044  54.604  1.00  0.00     0.097 C 
HETATM   21  O1  UNL     1      25.780  -1.049  52.639  1.00  0.00    -0.293 OA
ENDBRANCH   1  19
TORSDOF 1
ENDMDL
MODEL 3
REMARK VINA RESULT:      -7.8      1.725      5.970
REMARK  1 active torsions:
REMARK  status: ('A' for Active; 'I' for Inactive)
REMARK    1  A    between atoms: C2_2  and  C3_4 
ROOT
HETATM    1  C3  UNL     1      25.572   1.736  51.759  1.00  0.00     0.018 A 
HETATM    2  C4  UNL     1      26.759   1.071  51.898  1.00  0.00     0.016 A 
HETATM    3  C5  UNL     1      26.925  -0.067  52.642  1.00  0.00     0.003 A 
HETATM    4  C6  UNL     1      25.858  -0.591  53.293  1.00  0.00     0.030 A 
HETATM    5  C7  UNL     1      24.630   0.023  53.199  1.00  0.00     0.042 A 
HETATM    6  C8  UNL     1      24.519   1.167  52.436  1.00  0.00    -0.015 A 
HETATM    7  C9  UNL     1      23.375   2.024  52.150  1.00  0.00     0.081 C 
HETATM    8  C10 UNL     1      22.078   1.572  52.740  1.00  0.00     0.250 C 
HETATM    9  C11 UNL     1      20.997   2.561  52.475  1.00  0.00     0.005 C 
HETATM   10  C12 UNL     1      19.729   2.418  52.058  1.00  0.00    -0.027 C 
HETATM   11  C13 UNL     1      19.351   0.974  51.819  1.00  0.00     0.057 C 
HETATM   12  C14 UNL     1      20.618   0.334  51.292  1.00  0.00     0.277 C 
HETATM   13  N1  UNL     1      21.637   0.291  52.294  1.00  0.00     0.105 N 
HETATM   14  C15 UNL     1      21.198  -0.572  53.372  1.00  0.00     0.375 C 
HETATM   15  C16 UNL     1      22.411  -0.946  54.143  1.00  0.00     0.250 C 
HETATM   16  O2  UNL     1      22.080  -1.538  55.229  1.00  0.00    -0.271 OA
HETATM   17  N2  UNL     1      23.823  -0.827  54.008  1.00  0.00    -0.325 N 
HETATM   18  H18 UNL     1      24.375  -1.495  54.622  1.00  0.00     0.169 HD
ENDROOT
BRANCH   1  19
HETATM   19  C2  UNL     1      25.521   2.939  50.942  1.00  0.00     0.156 C 
HETATM   20  C1  UNL     1      26.343   2.956  49.708  1.00  0.00     0.097 C 
HETATM   21  O1  UNL     1      24.918   4.030  51.034  1.00  0.00    -0.293 OA
ENDBRANCH   1  19
TORSDOF 1
ENDMDL
MODEL 4
REMARK VINA RESULT:      -7.8      2.083      4.046
REMARK  1 active torsions:
REMARK  status: ('A' for Active; 'I' for Inactive)
REMARK    1  A    between atoms: C2_2  and  C3_4 
ROOT
HETATM    1  C3  UNL     1      21.172   0.588  53.226  1.00  0.00     0.018 A 
HETATM    2  C4  UNL     1      21.046  -0.213  54.327  1.00  0.00     0.016 A 
HETATM    3  C5  UNL     1      22.079  -0.904  54.902  1.00  0.00     0.003 A 
HETATM    4  C6  UNL     1      23.318  -0.805  54.365  1.00  0.00     0.030 A 
HETATM    5  C7  UNL     1      23.524  -0.017  53.256  1.00  0.00     0.042 A 
HETATM    6  C8  UNL     1      22.448   0.658  52.716  1.00  0.00    -0.015 A 
HETATM    7  C9  UNL     1      22.351   1.552  51.569  1.00  0.00     0.081 C 
HETATM    8  C10 UNL     1      23.644   1.834  50.872  1.00  0.00     0.250 C 
HETATM    9  C11 UNL     1      23.425   2.672  49.661  1.00  0.00     0.005 C 
HETATM   10  C12 UNL     1      24.066   3.753  49.188  1.00  0.00    -0.027 C 
HETATM   11  C13 UNL     1      25.222   4.179  50.064  1.00  0.00     0.057 C 
HETATM   12  C14 UNL     1      24.759   3.872  51.473  1.00  0.00     0.277 C 
HETATM   13  N1  UNL     1      24.631   2.464  51.685  1.00  0.00     0.105 N 
HETATM   14  C15 UNL     1      25.940   1.852  51.575  1.00  0.00     0.375 C 
HETATM   15  C16 UNL     1      25.848   0.521  52.226  1.00  0.00     0.250 C 
HETATM   16  O2  UNL     1      26.904  -0.162  51.988  1.00  0.00    -0.271 OA
HETATM   17  N2  UNL     1      24.918  -0.195  53.032  1.00  0.00    -0.325 N 
HETATM   18  H18 UNL     1      25.343  -1.010  53.563  1.00  0.00     0.169 HD
ENDROOT
BRANCH   1  19
HETATM   19  C2  UNL     1      19.998   1.271  52.703  1.00  0.00     0.156 C 
HETATM   20  C1  UNL     1      18.992   0.443  51.996  1.00  0.00     0.097 C 
HETATM   21  O1  UNL     1      19.608   2.459  52.703  1.00  0.00    -0.293 OA
ENDBRANCH   1  19
TORSDOF 1
ENDMDL
MODEL 5
REMARK VINA RESULT:      -7.6      2.122      4.932
REMARK  1 active torsions:
REMARK  status: ('A' for Active; 'I' for Inactive)
REMARK    1  A    between atoms: C2_2  and  C3_4 
ROOT
HETATM    1  C3  UNL     1      25.913   1.441  52.619  1.00  0.00     0.018 A 
HETATM    2  C4  UNL     1      26.606   2.397  51.931  1.00  0.00     0.016 A 
HETATM    3  C5  UNL     1      26.120   3.070  50.841  1.00  0.00     0.003 A 
HETATM    4  C6  UNL     1      24.873   2.789  50.395  1.00  0.00     0.030 A 
HETATM    5  C7  UNL     1      24.114   1.836  51.037  1.00  0.00     0.042 A 
HETATM    6  C8  UNL     1      24.652   1.189  52.130  1.00  0.00    -0.015 A 
HETATM    7  C9  UNL     1      24.105   0.156  53.001  1.00  0.00     0.081 C 
HETATM    8  C10 UNL     1      22.699  -0.251  52.699  1.00  0.00     0.250 C 
HETATM    9  C11 UNL     1      22.269  -1.375  53.576  1.00  0.00     0.005 C 
HETATM   10  C12 UNL     1      21.142  -1.591  54.272  1.00  0.00    -0.027 C 
HETATM   11  C13 UNL     1      20.137  -0.472  54.124  1.00  0.00     0.057 C 
HETATM   12  C14 UNL     1      20.981   0.781  54.020  1.00  0.00     0.277 C 
HETATM   13  N1  UNL     1      21.741   0.800  52.809  1.00  0.00     0.105 N 
HETATM   14  C15 UNL     1      20.829   0.864  51.685  1.00  0.00     0.375 C 
HETATM   15  C16 UNL     1      21.620   1.327  50.516  1.00  0.00     0.250 C 
HETATM   16  O2  UNL     1      20.932   1.211  49.443  1.00  0.00    -0.271 OA
HETATM   17  N2  UNL     1      22.917   1.856  50.267  1.00  0.00    -0.325 N 
HETATM   18  H18 UNL     1      23.008   2.359  49.335  1.00  0.00     0.169 HD
ENDROOT
BRANCH   1  19
HETATM   19  C2  UNL     1      26.538   0.792  53.761  1.00  0.00     0.156 C 
HETATM   20  C1  UNL     1      27.416  -0.371  53.484  1.00  0.00     0.097 C 
HETATM   21  O1  UNL     1      26.513   0.986  54.997  1.00  0.00    -0.293 OA
ENDBRANCH   1  19
TORSDOF 1
ENDMDL
MODEL 6
REMARK VINA RESULT:      -7.4      1.715      4.404
REMARK  1 active torsions:
REMARK  status: ('A' for Active; 'I' for Inactive)
REMARK    1  A    between atoms: C2_2  and  C3_4 
ROOT
HETATM    1  C3  UNL     1      24.445  -0.209  53.113  1.00  0.00     0.018 A 
HETATM    2  C4  UNL     1      25.535  -0.832  53.653  1.00  0.00     0.016 A 
HETATM    3  C5  UNL     1      26.834  -0.489  53.383  1.00  0.00     0.003 A 
HETATM    4  C6  UNL     1      27.082   0.531  52.528  1.00  0.00     0.030 A 
HETATM    5  C7  UNL     1      26.034   1.206  51.944  1.00  0.00     0.042 A 
HETATM    6  C8  UNL     1      24.746   0.820  52.251  1.00  0.00    -0.015 A 
HETATM    7  C9  UNL     1      23.456   1.332  51.804  1.00  0.00     0.081 C 
HETATM    8  C10 UNL     1      23.523   2.512  50.888  1.00  0.00     0.250 C 
HETATM    9  C11 UNL     1      22.166   2.895  50.411  1.00  0.00     0.005 C 
HETATM   10  C12 UNL     1      21.554   4.085  50.302  1.00  0.00    -0.027 C 
HETATM   11  C13 UNL     1      22.425   5.235  50.753  1.00  0.00     0.057 C 
HETATM   12  C14 UNL     1      23.234   4.668  51.901  1.00  0.00     0.277 C 
HETATM   13  N1  UNL     1      24.147   3.665  51.451  1.00  0.00     0.105 N 
HETATM   14  C15 UNL     1      25.120   4.278  50.569  1.00  0.00     0.375 C 
HETATM   15  C16 UNL     1      26.274   3.346  50.488  1.00  0.00     0.250 C 
HETATM   16  O2  UNL     1      27.082   3.720  49.570  1.00  0.00    -0.271 OA
HETATM   17  N2  UNL     1      26.720   2.165  51.145  1.00  0.00    -0.325 N 
HETATM   18  H18 UNL     1      27.755   1.962  51.016  1.00  0.00     0.169 HD
ENDROOT
BRANCH   1  19
HETATM   19  C2  UNL     1      23.112  -0.666  53.475  1.00  0.00     0.156 C 
HETATM   20  C1  UNL     1      22.868  -0.985  54.903  1.00  0.00     0.097 C 
HETATM   21  O1  UNL     1      22.056  -0.869  52.836  1.00  0.00    -0.293 OA
ENDBRANCH   1  19
TORSDOF 1
ENDMDL
MODEL 7
REMARK VINA RESULT:      -7.3      2.390      4.431
REMARK  1 active torsions:
REMARK  status: ('A' for Active; 'I' for Inactive)
REMARK    1  A    between atoms: C2_2  and  C3_4 
ROOT
HETATM    1  C3  UNL     1      23.248   2.948  49.856  1.00  0.00     0.018 A 
HETATM    2  C4  UNL     1      24.166   3.553  49.044  1.00  0.00     0.016 A 
HETATM    3  C5  UNL     1      25.481   3.746  49.374  1.00  0.00     0.003 A 
HETATM    4  C6  UNL     1      25.928   3.318  50.579  1.00  0.00     0.030 A 
HETATM    5  C7  UNL     1      25.062   2.699  51.451  1.00  0.00     0.042 A 
HETATM    6  C8  UNL     1      23.747   2.530  51.068  1.00  0.00    -0.015 A 
HETATM    7  C9  UNL     1      22.615   1.923  51.757  1.00  0.00     0.081 C 
HETATM    8  C10 UNL     1      22.928   1.333  53.096  1.00  0.00     0.250 C 
HETATM    9  C11 UNL     1      21.693   0.830  53.758  1.00  0.00     0.005 C 
HETATM   10  C12 UNL     1      21.425  -0.312  54.411  1.00  0.00    -0.027 C 
HETATM   11  C13 UNL     1      22.613  -1.245  54.472  1.00  0.00     0.057 C 
HETATM   12  C14 UNL     1      23.327  -1.033  53.153  1.00  0.00     0.277 C 
HETATM   13  N1  UNL     1      23.889   0.279  53.069  1.00  0.00     0.105 N 
HETATM   14  C15 UNL     1      24.916   0.416  54.083  1.00  0.00     0.375 C 
HETATM   15  C16 UNL     1      25.758   1.573  53.687  1.00  0.00     0.250 C 
HETATM   16  O2  UNL     1      26.559   1.883  54.637  1.00  0.00    -0.271 OA
HETATM   17  N2  UNL     1      25.916   2.423  52.556  1.00  0.00    -0.325 N 
HETATM   18  H18 UNL     1      26.840   2.945  52.532  1.00  0.00     0.169 HD
ENDROOT
BRANCH   1  19
HETATM   19  C2  UNL     1      21.875   2.803  49.396  1.00  0.00     0.156 C 
HETATM   20  C1  UNL     1      21.583   1.672  48.482  1.00  0.00     0.097 C 
HETATM   21  O1  UNL     1      20.817   3.440  49.592  1.00  0.00    -0.293 OA
ENDBRANCH   1  19
TORSDOF 1
ENDMDL
MODEL 8
REMARK VINA RESULT:      -7.2      2.876      5.313
REMARK  1 active torsions:
REMARK  status: ('A' for Active; 'I' for Inactive)
REMARK    1  A    between atoms: C2_2  and  C3_4 
ROOT
HETATM    1  C3  UNL     1      24.177   0.745  52.962  1.00  0.00     0.018 A 
HETATM    2  C4  UNL     1      23.758  -0.528  53.229  1.00  0.00     0.016 A 
HETATM    3  C5  UNL     1      22.445  -0.920  53.259  1.00  0.00     0.003 A 
HETATM    4  C6  UNL     1      21.478  -0.005  53.011  1.00  0.00     0.030 A 
HETATM    5  C7  UNL     1      21.823   1.299  52.733  1.00  0.00     0.042 A 
HETATM    6  C8  UNL     1      23.160   1.639  52.716  1.00  0.00    -0.015 A 
HETATM    7  C9  UNL     1      23.825   2.910  52.457  1.00  0.00     0.081 C 
HETATM    8  C10 UNL     1      22.916   4.043  52.103  1.00  0.00     0.250 C 
HETATM    9  C11 UNL     1      23.679   5.313  51.957  1.00  0.00     0.005 C 
HETATM   10  C12 UNL     1      23.640   6.284  51.030  1.00  0.00    -0.027 C 
HETATM   11  C13 UNL     1      22.626   6.014  49.941  1.00  0.00     0.057 C 
HETATM   12  C14 UNL     1      22.655   4.510  49.763  1.00  0.00     0.277 C 
HETATM   13  N1  UNL     1      22.148   3.838  50.919  1.00  0.00     0.105 N 
HETATM   14  C15 UNL     1      20.747   4.174  51.079  1.00  0.00     0.375 C 
HETATM   15  C16 UNL     1      20.160   3.146  51.976  1.00  0.00     0.250 C 
HETATM   16  O2  UNL     1      18.978   3.489  52.329  1.00  0.00    -0.271 OA
HETATM   17  N2  UNL     1      20.547   1.899  52.543  1.00  0.00    -0.325 N 
HETATM   18  H18 UNL     1      19.733   1.309  52.887  1.00  0.00     0.169 HD
ENDROOT
BRANCH   1  19
HETATM   19  C2  UNL     1      25.601   1.041  52.961  1.00  0.00     0.156 C 
HETATM   20  C1  UNL     1      26.269   1.158  54.280  1.00  0.00     0.097 C 
HETATM   21  O1  UNL     1      26.452   1.234  52.065  1.00  0.00    -0.293 OA
ENDBRANCH   1  19
TORSDOF 1
ENDMDL
MODEL 9
REMARK VINA RESULT:      -7.1      2.479      5.628
REMARK  1 active torsions:
REMARK  status: ('A' for Active; 'I' for Inactive)
REMARK    1  A    between atoms: C2_2  and  C3_4 
ROOT
HETATM    1  C3  UNL     1      24.111   0.689  52.628  1.00  0.00     0.018 A 
HETATM    2  C4  UNL     1      23.930  -0.340  53.509  1.00  0.00     0.016 A 
HETATM    3  C5  UNL     1      22.742  -0.996  53.699  1.00  0.00     0.003 A 
HETATM    4  C6  UNL     1      21.659  -0.619  52.978  1.00  0.00     0.030 A 
HETATM    5  C7  UNL     1      21.764   0.411  52.071  1.00  0.00     0.042 A 
HETATM    6  C8  UNL     1      22.984   1.036  51.919  1.00  0.00    -0.015 A 
HETATM    7  C9  UNL     1      23.401   2.134  51.055  1.00  0.00     0.081 C 
HETATM    8  C10 UNL     1      22.346   2.653  50.132  1.00  0.00     0.250 C 
HETATM    9  C11 UNL     1      22.839   3.831  49.366  1.00  0.00     0.005 C 
HETATM   10  C12 UNL     1      22.750   4.160  48.068  1.00  0.00    -0.027 C 
HETATM   11  C13 UNL     1      22.008   3.128  47.250  1.00  0.00     0.057 C 
HETATM   12  C14 UNL     1      22.380   1.805  47.886  1.00  0.00     0.277 C 
HETATM   13  N1  UNL     1      21.842   1.691  49.206  1.00  0.00     0.105 N 
HETATM   14  C15 UNL     1      20.396   1.678  49.124  1.00  0.00     0.375 C 
HETATM   15  C16 UNL     1      19.897   1.120  50.407  1.00  0.00     0.250 C 
HETATM   16  O2  UNL     1      18.629   1.267  50.491  1.00  0.00    -0.271 OA
HETATM   17  N2  UNL     1      20.439   0.475  51.555  1.00  0.00    -0.325 N 
HETATM   18  H18 UNL     1      19.721  -0.057  52.131  1.00  0.00     0.169 HD
ENDROOT
BRANCH   1  19
HETATM   19  C2  UNL     1      25.422   1.310  52.517  1.00  0.00     0.156 C 
HETATM   20  C1  UNL     1      25.856   2.181  53.636  1.00  0.00     0.097 C 
HETATM   21  O1  UNL     1      26.328   1.288  51.655  1.00  0.00    -0.293 OA
ENDBRANCH   1  19
TORSDOF 1
ENDMDL
