MODEL 1
REMARK VINA RESULT:      -8.6      0.000      0.000
REMARK  7 active torsions:
REMARK  status: ('A' for Active; 'I' for Inactive)
REMARK    1  A    between atoms: C6_8  and  C7_9 
REMARK    2  A    between atoms: C14_18  and  O1_19 
REMARK    3  A    between atoms: O1_19  and  C15_20 
REMARK    4  A    between atoms: C15_20  and  C16_21 
REMARK    5  A    between atoms: C16_21  and  C17_22 
REMARK    6  A    between atoms: C17_22  and  N3_23 
REMARK    7  A    between atoms: C21_28  and  N4_29 
ROOT
HETATM    1  C1  UNL     1      23.016  -0.503  53.637  1.00  0.00     0.046 C 
HETATM    2  C2  UNL     1      22.598   0.232  52.403  1.00  0.00    -0.048 A 
HETATM    3  C3  UNL     1      21.568  -0.041  51.625  1.00  0.00     0.037 A 
HETATM    4  C4  UNL     1      21.613   0.958  50.586  1.00  0.00     0.070 A 
HETATM    5  N1  UNL     1      20.717   1.020  49.561  1.00  0.00    -0.241 NA
HETATM    6  C5  UNL     1      20.860   1.985  48.637  1.00  0.00     0.234 A 
HETATM    7  N2  UNL     1      21.884   2.845  48.768  1.00  0.00    -0.241 NA
HETATM    8  C6  UNL     1      22.769   2.789  49.776  1.00  0.00     0.080 A 
HETATM    9  C13 UNL     1      22.689   1.834  50.755  1.00  0.00     0.033 A 
HETATM   10  C14 UNL     1      23.406   1.432  51.962  1.00  0.00     0.188 A 
ENDROOT
BRANCH  10  11
HETATM   11  O1  UNL     1      23.300   2.339  53.030  1.00  0.00    -0.377 OA
BRANCH  11  12
HETATM   12  C15 UNL     1      24.553   2.919  53.203  1.00  0.00     0.170 C 
BRANCH  12  13
HETATM   13  C16 UNL     1      25.651   2.073  52.598  1.00  0.00     0.046 C 
BRANCH  13  14
HETATM   14  C17 UNL     1      26.908   2.105  53.442  1.00  0.00     0.121 C 
BRANCH  14  15
HETATM   15  N3  UNL     1      27.592   0.885  53.295  1.00  0.00    -0.381 N 
HETATM   16  C18 UNL     1      26.958  -0.302  53.767  1.00  0.00     0.145 C 
HETATM   17  C19 UNL     1      27.727  -1.421  53.047  1.00  0.00     0.187 C 
HETATM   18  O2  UNL     1      28.940  -1.502  53.651  1.00  0.00    -0.386 OA
HETATM   19  C20 UNL     1      29.607  -0.362  53.955  1.00  0.00     0.224 C 
HETATM   20  C21 UNL     1      29.005   0.925  53.529  1.00  0.00     0.338 C 
BRANCH  20  21
HETATM   21  N4  UNL     1      29.395   1.924  54.531  1.00  0.00     0.103 N 
HETATM   22  H23 UNL     1      29.252   1.614  55.503  1.00  0.00     0.315 HD
HETATM   23  H24 UNL     1      30.443   2.100  54.459  1.00  0.00     0.315 HD
ENDBRANCH  20  21
ENDBRANCH  14  15
ENDBRANCH  13  14
ENDBRANCH  12  13
ENDBRANCH  11  12
ENDBRANCH  10  11
BRANCH   8  24
HETATM   24  C7  UNL     1      23.819   3.786  49.739  1.00  0.00    -0.005 A 
HETATM   25  C8  UNL     1      23.441   5.017  50.297  1.00  0.00     0.017 A 
HETATM   26  C9  UNL     1      24.260   6.120  50.391  1.00  0.00     0.045 A 
HETATM   27  C10 UNL     1      25.552   6.048  49.915  1.00  0.00     0.138 A 
HETATM   28  F1  UNL     1      26.473   7.027  49.931  1.00  0.00    -0.204 F 
HETATM   29  C11 UNL     1      25.950   4.855  49.364  1.00  0.00     0.073 A 
HETATM   30 CL1  UNL     1      27.567   4.623  48.719  1.00  0.00    -0.081 Cl
HETATM   31  C12 UNL     1      25.104   3.773  49.286  1.00  0.00     0.041 A 
ENDBRANCH   8  24
TORSDOF 7
ENDMDL
MODEL 2
REMARK VINA RESULT:      -8.5      3.552      6.406
REMARK  7 active torsions:
REMARK  status: ('A' for Active; 'I' for Inactive)
REMARK    1  A    between atoms: C6_8  and  C7_9 
REMARK    2  A    between atoms: C14_18  and  O1_19 
REMARK    3  A    between atoms: O1_19  and  C15_20 
REMARK    4  A    between atoms: C15_20  and  C16_21 
REMARK    5  A    between atoms: C16_21  and  C17_22 
REMARK    6  A    between atoms: C17_22  and  N3_23 
REMARK    7  A    between atoms: C21_28  and  N4_29 
ROOT
HETATM    1  C1  UNL     1      22.793   4.763  51.288  1.00  0.00     0.046 C 
HETATM    2  C2  UNL     1      22.860   3.407  51.919  1.00  0.00    -0.048 A 
HETATM    3  C3  UNL     1      21.844   2.651  52.287  1.00  0.00     0.037 A 
HETATM    4  C4  UNL     1      22.447   1.461  52.833  1.00  0.00     0.070 A 
HETATM    5  N1  UNL     1      21.731   0.418  53.343  1.00  0.00    -0.241 NA
HETATM    6  C5  UNL     1      22.395  -0.638  53.842  1.00  0.00     0.234 A 
HETATM    7  N2  UNL     1      23.738  -0.616  53.813  1.00  0.00    -0.241 NA
HETATM    8  C6  UNL     1      24.449   0.407  53.312  1.00  0.00     0.080 A 
HETATM    9  C13 UNL     1      23.842   1.518  52.787  1.00  0.00     0.033 A 
HETATM   10  C14 UNL     1      24.216   2.790  52.175  1.00  0.00     0.188 A 
ENDROOT
BRANCH  10  11
HETATM   11  O1  UNL     1      24.796   2.674  50.901  1.00  0.00    -0.377 OA
BRANCH  11  12
HETATM   12  C15 UNL     1      26.130   3.053  51.018  1.00  0.00     0.170 C 
BRANCH  12  13
HETATM   13  C16 UNL     1      26.639   3.711  49.755  1.00  0.00     0.046 C 
BRANCH  13  14
HETATM   14  C17 UNL     1      25.709   4.810  49.286  1.00  0.00     0.121 C 
BRANCH  14  15
HETATM   15  N3  UNL     1      26.475   5.887  48.806  1.00  0.00    -0.381 N 
HETATM   16  C18 UNL     1      27.860   5.665  48.551  1.00  0.00     0.145 C 
HETATM   17  C19 UNL     1      28.242   6.841  47.638  1.00  0.00     0.187 C 
HETATM   18  O2  UNL     1      28.285   7.942  48.430  1.00  0.00    -0.386 OA
HETATM   19  C20 UNL     1      27.308   8.137  49.349  1.00  0.00     0.224 C 
HETATM   20  C21 UNL     1      26.185   7.168  49.380  1.00  0.00     0.338 C 
BRANCH  20  21
HETATM   21  N4  UNL     1      25.737   7.088  50.775  1.00  0.00     0.103 N 
HETATM   22  H23 UNL     1      26.271   6.414  51.343  1.00  0.00     0.315 HD
HETATM   23  H24 UNL     1      25.902   8.026  51.249  1.00  0.00     0.315 HD
ENDBRANCH  20  21
ENDBRANCH  14  15
ENDBRANCH  13  14
ENDBRANCH  12  13
ENDBRANCH  11  12
ENDBRANCH  10  11
BRANCH   8  24
HETATM   24  C7  UNL     1      25.887   0.262  53.388  1.00  0.00    -0.005 A 
HETATM   25  C8  UNL     1      26.354  -0.966  52.895  1.00  0.00     0.017 A 
HETATM   26  C9  UNL     1      27.678  -1.340  52.847  1.00  0.00     0.045 A 
HETATM   27  C10 UNL     1      28.645  -0.473  53.308  1.00  0.00     0.138 A 
HETATM   28  F1  UNL     1      29.972  -0.684  53.331  1.00  0.00    -0.204 F 
HETATM   29  C11 UNL     1      28.218   0.737  53.795  1.00  0.00     0.073 A 
HETATM   30 CL1  UNL     1      29.342   1.938  54.413  1.00  0.00    -0.081 Cl
HETATM   31  C12 UNL     1      26.886   1.078  53.828  1.00  0.00     0.041 A 
ENDBRANCH   8  24
TORSDOF 7
ENDMDL
MODEL 3
REMARK VINA RESULT:      -8.4      2.695      3.495
REMARK  7 active torsions:
REMARK  status: ('A' for Active; 'I' for Inactive)
REMARK    1  A    between atoms: C6_8  and  C7_9 
REMARK    2  A    between atoms: C14_18  and  O1_19 
REMARK    3  A    between atoms: O1_19  and  C15_20 
REMARK    4  A    between atoms: C15_20  and  C16_21 
REMARK    5  A    between atoms: C16_21  and  C17_22 
REMARK    6  A    between atoms: C17_22  and  N3_23 
REMARK    7  A    between atoms: C21_28  and  N4_29 
ROOT
HETATM    1  C1  UNL     1      23.588  -1.112  54.969  1.00  0.00     0.046 C 
HETATM    2  C2  UNL     1      22.338  -0.828  54.196  1.00  0.00    -0.048 A 
HETATM    3  C3  UNL     1      21.130  -1.299  54.438  1.00  0.00     0.037 A 
HETATM    4  C4  UNL     1      20.296  -0.725  53.411  1.00  0.00     0.070 A 
HETATM    5  N1  UNL     1      18.960  -0.974  53.298  1.00  0.00    -0.241 NA
HETATM    6  C5  UNL     1      18.280  -0.397  52.293  1.00  0.00     0.234 A 
HETATM    7  N2  UNL     1      18.951   0.400  51.446  1.00  0.00    -0.241 NA
HETATM    8  C6  UNL     1      20.266   0.650  51.553  1.00  0.00     0.080 A 
HETATM    9  C13 UNL     1      21.026   0.098  52.550  1.00  0.00     0.033 A 
HETATM   10  C14 UNL     1      22.413   0.101  53.006  1.00  0.00     0.188 A 
ENDROOT
BRANCH  10  11
HETATM   11  O1  UNL     1      22.846   1.326  53.543  1.00  0.00    -0.377 OA
BRANCH  11  12
HETATM   12  C15 UNL     1      23.722   1.893  52.622  1.00  0.00     0.170 C 
BRANCH  12  13
HETATM   13  C16 UNL     1      24.712   0.880  52.093  1.00  0.00     0.046 C 
BRANCH  13  14
HETATM   14  C17 UNL     1      26.071   1.502  51.850  1.00  0.00     0.121 C 
BRANCH  14  15
HETATM   15  N3  UNL     1      27.055   0.720  52.479  1.00  0.00    -0.381 N 
HETATM   16  C18 UNL     1      26.682  -0.572  52.956  1.00  0.00     0.145 C 
HETATM   17  C19 UNL     1      28.033  -1.285  53.131  1.00  0.00     0.187 C 
HETATM   18  O2  UNL     1      28.610  -0.744  54.234  1.00  0.00    -0.386 OA
HETATM   19  C20 UNL     1      28.568   0.598  54.415  1.00  0.00     0.224 C 
HETATM   20  C21 UNL     1      27.959   1.421  53.342  1.00  0.00     0.338 C 
BRANCH  20  21
HETATM   21  N4  UNL     1      27.347   2.583  53.997  1.00  0.00     0.103 N 
HETATM   22  H23 UNL     1      27.337   3.431  53.412  1.00  0.00     0.315 HD
HETATM   23  H24 UNL     1      26.320   2.376  54.184  1.00  0.00     0.315 HD
ENDBRANCH  20  21
ENDBRANCH  14  15
ENDBRANCH  13  14
ENDBRANCH  12  13
ENDBRANCH  11  12
ENDBRANCH  10  11
BRANCH   8  24
HETATM   24  C7  UNL     1      20.820   1.517  50.534  1.00  0.00    -0.005 A 
HETATM   25  C8  UNL     1      21.339   0.823  49.429  1.00  0.00     0.017 A 
HETATM   26  C9  UNL     1      21.910   1.418  48.327  1.00  0.00     0.045 A 
HETATM   27  C10 UNL     1      21.997   2.792  48.266  1.00  0.00     0.138 A 
HETATM   28  F1  UNL     1      22.521   3.524  47.268  1.00  0.00    -0.204 F 
HETATM   29  C11 UNL     1      21.496   3.498  49.332  1.00  0.00     0.073 A 
HETATM   30 CL1  UNL     1      21.540   5.253  49.387  1.00  0.00    -0.081 Cl
HETATM   31  C12 UNL     1      20.932   2.870  50.419  1.00  0.00     0.041 A 
ENDBRANCH   8  24
TORSDOF 7
ENDMDL
MODEL 4
REMARK VINA RESULT:      -8.2      2.846      4.667
REMARK  7 active torsions:
REMARK  status: ('A' for Active; 'I' for Inactive)
REMARK    1  A    between atoms: C6_8  and  C7_9 
REMARK    2  A    between atoms: C14_18  and  O1_19 
REMARK    3  A    between atoms: O1_19  and  C15_20 
REMARK    4  A    between atoms: C15_20  and  C16_21 
REMARK    5  A    between atoms: C16_21  and  C17_22 
REMARK    6  A    between atoms: C17_22  and  N3_23 
REMARK    7  A    between atoms: C21_28  and  N4_29 
ROOT
HETATM    1  C1  UNL     1      24.746   5.963  50.842  1.00  0.00     0.046 C 
HETATM    2  C2  UNL     1      24.012   4.790  50.270  1.00  0.00    -0.048 A 
HETATM    3  C3  UNL     1      23.689   4.595  49.006  1.00  0.00     0.037 A 
HETATM    4  C4  UNL     1      23.000   3.328  48.992  1.00  0.00     0.070 A 
HETATM    5  N1  UNL     1      22.486   2.762  47.863  1.00  0.00    -0.241 NA
HETATM    6  C5  UNL     1      21.849   1.583  47.966  1.00  0.00     0.234 A 
HETATM    7  N2  UNL     1      21.749   1.018  49.180  1.00  0.00    -0.241 NA
HETATM    8  C6  UNL     1      22.254   1.570  50.295  1.00  0.00     0.080 A 
HETATM    9  C13 UNL     1      22.916   2.769  50.270  1.00  0.00     0.033 A 
HETATM   10  C14 UNL     1      23.581   3.678  51.199  1.00  0.00     0.188 A 
ENDROOT
BRANCH  10  11
HETATM   11  O1  UNL     1      24.782   3.184  51.736  1.00  0.00    -0.377 OA
BRANCH  11  12
HETATM   12  C15 UNL     1      24.598   3.058  53.110  1.00  0.00     0.170 C 
BRANCH  12  13
HETATM   13  C16 UNL     1      25.706   2.253  53.752  1.00  0.00     0.046 C 
BRANCH  13  14
HETATM   14  C17 UNL     1      26.968   2.278  52.917  1.00  0.00     0.121 C 
BRANCH  14  15
HETATM   15  N3  UNL     1      27.598   1.024  52.997  1.00  0.00    -0.381 N 
HETATM   16  C18 UNL     1      26.835  -0.081  53.480  1.00  0.00     0.145 C 
HETATM   17  C19 UNL     1      27.639  -1.300  52.999  1.00  0.00     0.187 C 
HETATM   18  O2  UNL     1      28.742  -1.366  53.789  1.00  0.00    -0.386 OA
HETATM   19  C20 UNL     1      29.418  -0.227  54.080  1.00  0.00     0.224 C 
HETATM   20  C21 UNL     1      28.960   1.031  53.443  1.00  0.00     0.338 C 
BRANCH  20  21
HETATM   21  N4  UNL     1      29.251   2.113  54.390  1.00  0.00     0.103 N 
HETATM   22  H23 UNL     1      30.257   2.274  54.539  1.00  0.00     0.315 HD
HETATM   23  H24 UNL     1      28.890   3.032  53.991  1.00  0.00     0.315 HD
ENDBRANCH  20  21
ENDBRANCH  14  15
ENDBRANCH  13  14
ENDBRANCH  12  13
ENDBRANCH  11  12
ENDBRANCH  10  11
BRANCH   8  24
HETATM   24  C7  UNL     1      22.029   0.825  51.516  1.00  0.00    -0.005 A 
HETATM   25  C8  UNL     1      20.673   0.568  51.774  1.00  0.00     0.017 A 
HETATM   26  C9  UNL     1      20.201  -0.130  52.863  1.00  0.00     0.045 A 
HETATM   27  C10 UNL     1      21.093  -0.628  53.789  1.00  0.00     0.138 A 
HETATM   28  F1  UNL     1      20.797  -1.325  54.899  1.00  0.00    -0.204 F 
HETATM   29  C11 UNL     1      22.426  -0.393  53.562  1.00  0.00     0.073 A 
HETATM   30 CL1  UNL     1      23.671  -0.970  54.659  1.00  0.00    -0.081 Cl
HETATM   31  C12 UNL     1      22.863   0.309  52.462  1.00  0.00     0.041 A 
ENDBRANCH   8  24
TORSDOF 7
ENDMDL
MODEL 5
REMARK VINA RESULT:      -8.0      3.801      7.370
REMARK  7 active torsions:
REMARK  status: ('A' for Active; 'I' for Inactive)
REMARK    1  A    between atoms: C6_8  and  C7_9 
REMARK    2  A    between atoms: C14_18  and  O1_19 
REMARK    3  A    between atoms: O1_19  and  C15_20 
REMARK    4  A    between atoms: C15_20  and  C16_21 
REMARK    5  A    between atoms: C16_21  and  C17_22 
REMARK    6  A    between atoms: C17_22  and  N3_23 
REMARK    7  A    between atoms: C21_28  and  N4_29 
ROOT
HETATM    1  C1  UNL     1      25.682   4.212  49.803  1.00  0.00     0.046 C 
HETATM    2  C2  UNL     1      25.680   3.026  50.716  1.00  0.00    -0.048 A 
HETATM    3  C3  UNL     1      26.732   2.406  51.215  1.00  0.00     0.037 A 
HETATM    4  C4  UNL     1      26.186   1.343  52.022  1.00  0.00     0.070 A 
HETATM    5  N1  UNL     1      26.953   0.449  52.711  1.00  0.00    -0.241 NA
HETATM    6  C5  UNL     1      26.340  -0.513  53.421  1.00  0.00     0.234 A 
HETATM    7  N2  UNL     1      24.998  -0.548  53.418  1.00  0.00    -0.241 NA
HETATM    8  C6  UNL     1      24.238   0.328  52.743  1.00  0.00     0.080 A 
HETATM    9  C13 UNL     1      24.789   1.336  51.996  1.00  0.00     0.033 A 
HETATM   10  C14 UNL     1      24.354   2.443  51.150  1.00  0.00     0.188 A 
ENDROOT
BRANCH  10  11
HETATM   11  O1  UNL     1      23.720   3.490  51.841  1.00  0.00    -0.377 OA
BRANCH  11  12
HETATM   12  C15 UNL     1      22.382   3.484  51.459  1.00  0.00     0.170 C 
BRANCH  12  13
HETATM   13  C16 UNL     1      22.082   4.573  50.454  1.00  0.00     0.046 C 
BRANCH  13  14
HETATM   14  C17 UNL     1      21.965   5.929  51.118  1.00  0.00     0.121 C 
BRANCH  14  15
HETATM   15  N3  UNL     1      22.692   6.872  50.371  1.00  0.00    -0.381 N 
HETATM   16  C18 UNL     1      22.973   6.574  49.005  1.00  0.00     0.145 C 
HETATM   17  C19 UNL     1      23.330   7.947  48.412  1.00  0.00     0.187 C 
HETATM   18  O2  UNL     1      24.565   8.257  48.882  1.00  0.00    -0.386 OA
HETATM   19  C20 UNL     1      24.855   8.029  50.186  1.00  0.00     0.224 C 
HETATM   20  C21 UNL     1      23.767   7.525  51.058  1.00  0.00     0.338 C 
BRANCH  20  21
HETATM   21  N4  UNL     1      24.400   6.678  52.076  1.00  0.00     0.103 N 
HETATM   22  H23 UNL     1      25.340   6.349  51.815  1.00  0.00     0.315 HD
HETATM   23  H24 UNL     1      24.554   7.251  52.960  1.00  0.00     0.315 HD
ENDBRANCH  20  21
ENDBRANCH  14  15
ENDBRANCH  13  14
ENDBRANCH  12  13
ENDBRANCH  11  12
ENDBRANCH  10  11
BRANCH   8  24
HETATM   24  C7  UNL     1      22.808   0.119  52.840  1.00  0.00    -0.005 A 
HETATM   25  C8  UNL     1      22.396  -0.358  54.095  1.00  0.00     0.017 A 
HETATM   26  C9  UNL     1      21.091  -0.625  54.441  1.00  0.00     0.045 A 
HETATM   27  C10 UNL     1      20.088  -0.423  53.518  1.00  0.00     0.138 A 
HETATM   28  F1  UNL     1      18.773  -0.633  53.697  1.00  0.00    -0.204 F 
HETATM   29  C11 UNL     1      20.461   0.044  52.282  1.00  0.00     0.073 A 
HETATM   30 CL1  UNL     1      19.288   0.347  51.010  1.00  0.00    -0.081 Cl
HETATM   31  C12 UNL     1      21.777   0.301  51.969  1.00  0.00     0.041 A 
ENDBRANCH   8  24
TORSDOF 7
ENDMDL
MODEL 6
REMARK VINA RESULT:      -7.6      3.554      7.055
REMARK  7 active torsions:
REMARK  status: ('A' for Active; 'I' for Inactive)
REMARK    1  A    between atoms: C6_8  and  C7_9 
REMARK    2  A    between atoms: C14_18  and  O1_19 
REMARK    3  A    between atoms: O1_19  and  C15_20 
REMARK    4  A    between atoms: C15_20  and  C16_21 
REMARK    5  A    between atoms: C16_21  and  C17_22 
REMARK    6  A    between atoms: C17_22  and  N3_23 
REMARK    7  A    between atoms: C21_28  and  N4_29 
ROOT
HETATM    1  C1  UNL     1      27.197   1.686  52.171  1.00  0.00     0.046 C 
HETATM    2  C2  UNL     1      26.166   0.910  52.930  1.00  0.00    -0.048 A 
HETATM    3  C3  UNL     1      26.352   0.202  54.027  1.00  0.00     0.037 A 
HETATM    4  C4  UNL     1      25.053  -0.337  54.344  1.00  0.00     0.070 A 
HETATM    5  N1  UNL     1      24.815  -1.148  55.415  1.00  0.00    -0.241 NA
HETATM    6  C5  UNL     1      23.567  -1.607  55.610  1.00  0.00     0.234 A 
HETATM    7  N2  UNL     1      22.612  -1.244  54.738  1.00  0.00    -0.241 NA
HETATM    8  C6  UNL     1      22.841  -0.447  53.683  1.00  0.00     0.080 A 
HETATM    9  C13 UNL     1      24.086   0.060  53.418  1.00  0.00     0.033 A 
HETATM   10  C14 UNL     1      24.739   0.915  52.431  1.00  0.00     0.188 A 
ENDROOT
BRANCH  10  11
HETATM   11  O1  UNL     1      24.352   2.265  52.484  1.00  0.00    -0.377 OA
BRANCH  11  12
HETATM   12  C15 UNL     1      23.756   2.571  51.264  1.00  0.00     0.170 C 
BRANCH  12  13
HETATM   13  C16 UNL     1      24.753   3.138  50.279  1.00  0.00     0.046 C 
BRANCH  13  14
HETATM   14  C17 UNL     1      24.909   4.635  50.443  1.00  0.00     0.121 C 
BRANCH  14  15
HETATM   15  N3  UNL     1      23.660   5.251  50.252  1.00  0.00    -0.381 N 
HETATM   16  C18 UNL     1      23.248   5.534  48.916  1.00  0.00     0.145 C 
HETATM   17  C19 UNL     1      21.731   5.743  49.053  1.00  0.00     0.187 C 
HETATM   18  O2  UNL     1      21.563   6.950  49.650  1.00  0.00    -0.386 OA
HETATM   19  C20 UNL     1      22.352   7.286  50.700  1.00  0.00     0.224 C 
HETATM   20  C21 UNL     1      23.310   6.269  51.198  1.00  0.00     0.338 C 
BRANCH  20  21
HETATM   21  N4  UNL     1      24.472   7.001  51.714  1.00  0.00     0.103 N 
HETATM   22  H23 UNL     1      25.025   7.470  50.981  1.00  0.00     0.315 HD
HETATM   23  H24 UNL     1      24.136   7.794  52.340  1.00  0.00     0.315 HD
ENDBRANCH  20  21
ENDBRANCH  14  15
ENDBRANCH  13  14
ENDBRANCH  12  13
ENDBRANCH  11  12
ENDBRANCH  10  11
BRANCH   8  24
HETATM   24  C7  UNL     1      21.693  -0.183  52.840  1.00  0.00    -0.005 A 
HETATM   25  C8  UNL     1      20.466  -0.480  53.455  1.00  0.00     0.017 A 
HETATM   26  C9  UNL     1      19.233  -0.308  52.869  1.00  0.00     0.045 A 
HETATM   27  C10 UNL     1      19.155   0.191  51.586  1.00  0.00     0.138 A 
HETATM   28  F1  UNL     1      18.038   0.418  50.876  1.00  0.00    -0.204 F 
HETATM   29  C11 UNL     1      20.339   0.492  50.960  1.00  0.00     0.073 A 
HETATM   30 CL1  UNL     1      20.388   1.135  49.325  1.00  0.00    -0.081 Cl
HETATM   31  C12 UNL     1      21.555   0.306  51.576  1.00  0.00     0.041 A 
ENDBRANCH   8  24
TORSDOF 7
ENDMDL
MODEL 7
REMARK VINA RESULT:      -7.5      3.392      5.796
REMARK  7 active torsions:
REMARK  status: ('A' for Active; 'I' for Inactive)
REMARK    1  A    between atoms: C6_8  and  C7_9 
REMARK    2  A    between atoms: C14_18  and  O1_19 
REMARK    3  A    between atoms: O1_19  and  C15_20 
REMARK    4  A    between atoms: C15_20  and  C16_21 
REMARK    5  A    between atoms: C16_21  and  C17_22 
REMARK    6  A    between atoms: C17_22  and  N3_23 
REMARK    7  A    between atoms: C21_28  and  N4_29 
ROOT
HETATM    1  C1  UNL     1      26.672   0.621  53.962  1.00  0.00     0.046 C 
HETATM    2  C2  UNL     1      25.241   0.181  53.972  1.00  0.00    -0.048 A 
HETATM    3  C3  UNL     1      24.702  -0.752  54.734  1.00  0.00     0.037 A 
HETATM    4  C4  UNL     1      23.312  -0.784  54.352  1.00  0.00     0.070 A 
HETATM    5  N1  UNL     1      22.399  -1.634  54.902  1.00  0.00    -0.241 NA
HETATM    6  C5  UNL     1      21.130  -1.590  54.462  1.00  0.00     0.234 A 
HETATM    7  N2  UNL     1      20.822  -0.709  53.496  1.00  0.00    -0.241 NA
HETATM    8  C6  UNL     1      21.717   0.131  52.951  1.00  0.00     0.080 A 
HETATM    9  C13 UNL     1      23.028   0.145  53.348  1.00  0.00     0.033 A 
HETATM   10  C14 UNL     1      24.266   0.853  53.033  1.00  0.00     0.188 A 
ENDROOT
BRANCH  10  11
HETATM   11  O1  UNL     1      24.278   2.203  53.421  1.00  0.00    -0.377 OA
BRANCH  11  12
HETATM   12  C15 UNL     1      24.053   2.963  52.277  1.00  0.00     0.170 C 
BRANCH  12  13
HETATM   13  C16 UNL     1      24.732   2.366  51.065  1.00  0.00     0.046 C 
BRANCH  13  14
HETATM   14  C17 UNL     1      24.224   2.985  49.780  1.00  0.00     0.121 C 
BRANCH  14  15
HETATM   15  N3  UNL     1      25.185   3.887  49.293  1.00  0.00    -0.381 N 
HETATM   16  C18 UNL     1      26.500   3.830  49.843  1.00  0.00     0.145 C 
HETATM   17  C19 UNL     1      27.350   4.575  48.800  1.00  0.00     0.187 C 
HETATM   18  O2  UNL     1      27.055   5.893  48.937  1.00  0.00    -0.386 OA
HETATM   19  C20 UNL     1      25.763   6.271  49.097  1.00  0.00     0.224 C 
HETATM   20  C21 UNL     1      24.722   5.217  49.027  1.00  0.00     0.338 C 
BRANCH  20  21
HETATM   21  N4  UNL     1      23.636   5.638  49.920  1.00  0.00     0.103 N 
HETATM   22  H23 UNL     1      22.955   6.271  49.475  1.00  0.00     0.315 HD
HETATM   23  H24 UNL     1      23.063   4.785  50.198  1.00  0.00     0.315 HD
ENDBRANCH  20  21
ENDBRANCH  14  15
ENDBRANCH  13  14
ENDBRANCH  12  13
ENDBRANCH  11  12
ENDBRANCH  10  11
BRANCH   8  24
HETATM   24  C7  UNL     1      21.206   0.994  51.907  1.00  0.00    -0.005 A 
HETATM   25  C8  UNL     1      21.385   0.477  50.614  1.00  0.00     0.017 A 
HETATM   26  C9  UNL     1      20.977   1.101  49.457  1.00  0.00     0.045 A 
HETATM   27  C10 UNL     1      20.342   2.322  49.531  1.00  0.00     0.138 A 
HETATM   28  F1  UNL     1      19.885   3.057  48.503  1.00  0.00    -0.204 F 
HETATM   29  C11 UNL     1      20.153   2.852  50.783  1.00  0.00     0.073 A 
HETATM   30 CL1  UNL     1      19.358   4.400  51.025  1.00  0.00    -0.081 Cl
HETATM   31  C12 UNL     1      20.574   2.201  51.920  1.00  0.00     0.041 A 
ENDBRANCH   8  24
TORSDOF 7
ENDMDL
MODEL 8
REMARK VINA RESULT:      -7.5      2.140      6.240
REMARK  7 active torsions:
REMARK  status: ('A' for Active; 'I' for Inactive)
REMARK    1  A    between atoms: C6_8  and  C7_9 
REMARK    2  A    between atoms: C14_18  and  O1_19 
REMARK    3  A    between atoms: O1_19  and  C15_20 
REMARK    4  A    between atoms: C15_20  and  C16_21 
REMARK    5  A    between atoms: C16_21  and  C17_22 
REMARK    6  A    between atoms: C17_22  and  N3_23 
REMARK    7  A    between atoms: C21_28  and  N4_29 
ROOT
HETATM    1  C1  UNL     1      21.530  -0.990  54.593  1.00  0.00     0.046 C 
HETATM    2  C2  UNL     1      22.957  -0.618  54.334  1.00  0.00    -0.048 A 
HETATM    3  C3  UNL     1      24.030  -1.158  54.879  1.00  0.00     0.037 A 
HETATM    4  C4  UNL     1      25.139  -0.445  54.295  1.00  0.00     0.070 A 
HETATM    5  N1  UNL     1      26.443  -0.694  54.606  1.00  0.00    -0.241 NA
HETATM    6  C5  UNL     1      27.400   0.040  54.013  1.00  0.00     0.234 A 
HETATM    7  N2  UNL     1      27.023   0.987  53.138  1.00  0.00    -0.241 NA
HETATM    8  C6  UNL     1      25.741   1.237  52.827  1.00  0.00     0.080 A 
HETATM    9  C13 UNL     1      24.711   0.531  53.391  1.00  0.00     0.033 A 
HETATM   10  C14 UNL     1      23.253   0.482  53.341  1.00  0.00     0.188 A 
ENDROOT
BRANCH  10  11
HETATM   11  O1  UNL     1      22.729   0.010  52.125  1.00  0.00    -0.377 OA
BRANCH  11  12
HETATM   12  C15 UNL     1      21.967   1.038  51.578  1.00  0.00     0.170 C 
BRANCH  12  13
HETATM   13  C16 UNL     1      20.931   0.513  50.609  1.00  0.00     0.046 C 
BRANCH  13  14
HETATM   14  C17 UNL     1      21.277   0.866  49.178  1.00  0.00     0.121 C 
BRANCH  14  15
HETATM   15  N3  UNL     1      21.269   2.264  49.035  1.00  0.00    -0.381 N 
HETATM   16  C18 UNL     1      20.013   2.914  48.845  1.00  0.00     0.145 C 
HETATM   17  C19 UNL     1      20.318   4.379  49.194  1.00  0.00     0.187 C 
HETATM   18  O2  UNL     1      21.040   4.877  48.158  1.00  0.00    -0.386 OA
HETATM   19  C20 UNL     1      22.034   4.127  47.622  1.00  0.00     0.224 C 
HETATM   20  C21 UNL     1      22.337   2.823  48.259  1.00  0.00     0.338 C 
BRANCH  20  21
HETATM   21  N4  UNL     1      22.802   1.930  47.191  1.00  0.00     0.103 N 
HETATM   22  H23 UNL     1      22.455   2.187  46.256  1.00  0.00     0.315 HD
HETATM   23  H24 UNL     1      23.861   2.003  47.111  1.00  0.00     0.315 HD
ENDBRANCH  20  21
ENDBRANCH  14  15
ENDBRANCH  13  14
ENDBRANCH  12  13
ENDBRANCH  11  12
ENDBRANCH  10  11
BRANCH   8  24
HETATM   24  C7  UNL     1      25.528   2.312  51.880  1.00  0.00    -0.005 A 
HETATM   25  C8  UNL     1      26.430   2.298  50.805  1.00  0.00     0.017 A 
HETATM   26  C9  UNL     1      26.428   3.206  49.769  1.00  0.00     0.045 A 
HETATM   27  C10 UNL     1      25.488   4.214  49.751  1.00  0.00     0.138 A 
HETATM   28  F1  UNL     1      25.352   5.172  48.819  1.00  0.00    -0.204 F 
HETATM   29  C11 UNL     1      24.592   4.251  50.790  1.00  0.00     0.073 A 
HETATM   30 CL1  UNL     1      23.341   5.480  50.894  1.00  0.00    -0.081 Cl
HETATM   31  C12 UNL     1      24.623   3.328  51.810  1.00  0.00     0.041 A 
ENDBRANCH   8  24
TORSDOF 7
ENDMDL
MODEL 9
REMARK VINA RESULT:      -7.3      2.390      6.523
REMARK  7 active torsions:
REMARK  status: ('A' for Active; 'I' for Inactive)
REMARK    1  A    between atoms: C6_8  and  C7_9 
REMARK    2  A    between atoms: C14_18  and  O1_19 
REMARK    3  A    between atoms: O1_19  and  C15_20 
REMARK    4  A    between atoms: C15_20  and  C16_21 
REMARK    5  A    between atoms: C16_21  and  C17_22 
REMARK    6  A    between atoms: C17_22  and  N3_23 
REMARK    7  A    between atoms: C21_28  and  N4_29 
ROOT
HETATM    1  C1  UNL     1      20.358  -1.144  53.843  1.00  0.00     0.046 C 
HETATM    2  C2  UNL     1      21.803  -0.759  53.898  1.00  0.00    -0.048 A 
HETATM    3  C3  UNL     1      22.764  -1.372  54.563  1.00  0.00     0.037 A 
HETATM    4  C4  UNL     1      23.953  -0.606  54.284  1.00  0.00     0.070 A 
HETATM    5  N1  UNL     1      25.180  -0.905  54.798  1.00  0.00    -0.241 NA
HETATM    6  C5  UNL     1      26.221  -0.114  54.485  1.00  0.00     0.234 A 
HETATM    7  N2  UNL     1      26.001   0.936  53.677  1.00  0.00    -0.241 NA
HETATM    8  C6  UNL     1      24.796   1.235  53.167  1.00  0.00     0.080 A 
HETATM    9  C13 UNL     1      23.688   0.477  53.441  1.00  0.00     0.033 A 
HETATM   10  C14 UNL     1      22.265   0.450  53.117  1.00  0.00     0.188 A 
ENDROOT
BRANCH  10  11
HETATM   11  O1  UNL     1      21.979   0.134  51.778  1.00  0.00    -0.377 OA
BRANCH  11  12
HETATM   12  C15 UNL     1      21.356   1.244  51.216  1.00  0.00     0.170 C 
BRANCH  12  13
HETATM   13  C16 UNL     1      21.966   1.614  49.883  1.00  0.00     0.046 C 
BRANCH  13  14
HETATM   14  C17 UNL     1      21.645   3.043  49.500  1.00  0.00     0.121 C 
BRANCH  14  15
HETATM   15  N3  UNL     1      21.383   3.102  48.120  1.00  0.00    -0.381 N 
HETATM   16  C18 UNL     1      22.034   4.115  47.355  1.00  0.00     0.145 C 
HETATM   17  C19 UNL     1      21.903   3.605  45.912  1.00  0.00     0.187 C 
HETATM   18  O2  UNL     1      20.605   3.789  45.557  1.00  0.00    -0.386 OA
HETATM   19  C20 UNL     1      19.625   3.472  46.439  1.00  0.00     0.224 C 
HETATM   20  C21 UNL     1      20.027   2.855  47.726  1.00  0.00     0.338 C 
BRANCH  20  21
HETATM   21  N4  UNL     1      19.047   3.292  48.727  1.00  0.00     0.103 N 
HETATM   22  H23 UNL     1      18.169   3.647  48.321  1.00  0.00     0.315 HD
HETATM   23  H24 UNL     1      18.749   2.454  49.312  1.00  0.00     0.315 HD
ENDBRANCH  20  21
ENDBRANCH  14  15
ENDBRANCH  13  14
ENDBRANCH  12  13
ENDBRANCH  11  12
ENDBRANCH  10  11
BRANCH   8  24
HETATM   24  C7  UNL     1      24.748   2.418  52.334  1.00  0.00    -0.005 A 
HETATM   25  C8  UNL     1      23.861   3.399  52.804  1.00  0.00     0.017 A 
HETATM   26  C9  UNL     1      23.643   4.616  52.198  1.00  0.00     0.045 A 
HETATM   27  C10 UNL     1      24.328   4.930  51.043  1.00  0.00     0.138 A 
HETATM   28  F1  UNL     1      24.231   6.067  50.334  1.00  0.00    -0.204 F 
HETATM   29  C11 UNL     1      25.203   3.990  50.560  1.00  0.00     0.073 A 
HETATM   30 CL1  UNL     1      26.142   4.259  49.099  1.00  0.00    -0.081 Cl
HETATM   31  C12 UNL     1      25.396   2.783  51.192  1.00  0.00     0.041 A 
ENDBRANCH   8  24
TORSDOF 7
ENDMDL
