MODEL 1
REMARK VINA RESULT:      -5.9      0.000      0.000
REMARK  8 active torsions:
REMARK  status: ('A' for Active; 'I' for Inactive)
REMARK    1  A    between atoms: C2_2  and  N1_3 
REMARK    2  A    between atoms: N1_3  and  C3_4 
REMARK    3  A    between atoms: C5_6  and  C6_7 
REMARK    4  A    between atoms: C5_6  and  P1_9 
REMARK    5  A    between atoms: P1_9  and  O2_10 
REMARK    6  A    between atoms: N2_14  and  C10_15 
REMARK    7  A    between atoms: C10_15  and  C11_16 
REMARK    8  A    between atoms: C11_16  and  N3_17 
ROOT
HETATM    1  C3  UNL     1      23.927   0.776  52.899  1.00  0.00     0.021 A 
HETATM    2  C4  UNL     1      24.997   0.113  53.258  1.00  0.00     0.027 A 
HETATM    3  C5  UNL     1      26.402   0.050  52.954  1.00  0.00     0.096 A 
HETATM    4  C8  UNL     1      26.908   0.997  51.949  1.00  0.00     0.018 A 
HETATM    5  C9  UNL     1      26.375   1.944  51.183  1.00  0.00     0.084 A 
HETATM    6  N2  UNL     1      24.987   2.230  51.228  1.00  0.00    -0.383 N 
HETATM    7  C14 UNL     1      23.823   1.835  51.925  1.00  0.00     0.178 A 
ENDROOT
BRANCH   3   8
HETATM    8  C6  UNL     1      26.671  -1.326  52.414  1.00  0.00     0.256 C 
HETATM    9  O1  UNL     1      27.159  -2.210  53.054  1.00  0.00    -0.305 OA
ENDBRANCH   3   8
BRANCH   3  10
HETATM   10  P1  UNL     1      27.489   0.239  54.449  1.00  0.00     0.035 P 
HETATM   11  H9  UNL     1      27.644  -1.005  55.171  1.00  0.00     0.089 HD
BRANCH  10  12
HETATM   12  O2  UNL     1      29.046   0.816  53.886  1.00  0.00    -0.370 OA
HETATM   13  C7  UNL     1      29.947  -0.206  53.697  1.00  0.00     0.207 C 
ENDBRANCH  10  12
ENDBRANCH   3  10
BRANCH   1  14
HETATM   14  N1  UNL     1      22.620   0.580  53.427  1.00  0.00    -0.392 N 
HETATM   15  H6  UNL     1      22.153   1.413  53.877  1.00  0.00     0.159 HD
BRANCH  14  16
HETATM   16  C2  UNL     1      22.101  -0.787  53.281  1.00  0.00     0.115 C 
HETATM   17  C1  UNL     1      21.614  -1.221  54.654  1.00  0.00     0.026 C 
ENDBRANCH  14  16
ENDBRANCH   1  14
BRANCH   6  18
HETATM   18  C10 UNL     1      24.510   3.247  50.288  1.00  0.00     0.141 C 
BRANCH  18  19
HETATM   19  C11 UNL     1      24.569   4.638  50.812  1.00  0.00     0.135 C 
BRANCH  19  20
HETATM   20  N3  UNL     1      25.432   5.477  50.110  1.00  0.00    -0.419 N 
HETATM   21  C12 UNL     1      25.321   6.877  50.307  1.00  0.00     0.142 C 
HETATM   22  C13 UNL     1      26.312   5.017  49.131  1.00  0.00     0.142 C 
ENDBRANCH  19  20
ENDBRANCH  18  19
ENDBRANCH   6  18
TORSDOF 8
ENDMDL
MODEL 2
REMARK VINA RESULT:      -5.9      2.060      4.242
REMARK  8 active torsions:
REMARK  status: ('A' for Active; 'I' for Inactive)
REMARK    1  A    between atoms: C2_2  and  N1_3 
REMARK    2  A    between atoms: N1_3  and  C3_4 
REMARK    3  A    between atoms: C5_6  and  C6_7 
REMARK    4  A    between atoms: C5_6  and  P1_9 
REMARK    5  A    between atoms: P1_9  and  O2_10 
REMARK    6  A    between atoms: N2_14  and  C10_15 
REMARK    7  A    between atoms: C10_15  and  C11_16 
REMARK    8  A    between atoms: C11_16  and  N3_17 
ROOT
HETATM    1  C3  UNL     1      26.058   2.172  51.720  1.00  0.00     0.021 A 
HETATM    2  C4  UNL     1      26.586   1.224  52.452  1.00  0.00     0.027 A 
HETATM    3  C5  UNL     1      26.185   0.060  53.197  1.00  0.00     0.096 A 
HETATM    4  C8  UNL     1      24.752  -0.273  53.188  1.00  0.00     0.018 A 
HETATM    5  C9  UNL     1      23.656   0.260  52.656  1.00  0.00     0.084 A 
HETATM    6  N2  UNL     1      23.718   1.446  51.880  1.00  0.00    -0.383 N 
HETATM    7  C14 UNL     1      24.670   2.359  51.376  1.00  0.00     0.178 A 
ENDROOT
BRANCH   3   8
HETATM    8  C6  UNL     1      26.553   0.312  54.632  1.00  0.00     0.256 C 
HETATM    9  O1  UNL     1      26.080  -0.282  55.555  1.00  0.00    -0.305 OA
ENDBRANCH   3   8
BRANCH   3  10
HETATM   10  P1  UNL     1      27.088  -1.484  52.696  1.00  0.00     0.035 P 
HETATM   11  H9  UNL     1      27.546  -1.427  51.325  1.00  0.00     0.089 HD
BRANCH  10  12
HETATM   12  O2  UNL     1      28.448  -1.664  53.788  1.00  0.00    -0.370 OA
HETATM   13  C7  UNL     1      29.589  -1.066  53.307  1.00  0.00     0.207 C 
ENDBRANCH  10  12
ENDBRANCH   3  10
BRANCH   1  14
HETATM   14  N1  UNL     1      26.779   3.228  51.095  1.00  0.00    -0.392 N 
HETATM   15  H6  UNL     1      27.733   3.457  51.486  1.00  0.00     0.159 HD
BRANCH  14  16
HETATM   16  C2  UNL     1      26.073   3.872  49.978  1.00  0.00     0.115 C 
HETATM   17  C1  UNL     1      27.139   4.398  49.031  1.00  0.00     0.026 C 
ENDBRANCH  14  16
ENDBRANCH   1  14
BRANCH   6  18
HETATM   18  C10 UNL     1      22.436   1.972  51.407  1.00  0.00     0.141 C 
BRANCH  18  19
HETATM   19  C11 UNL     1      22.519   2.713  50.119  1.00  0.00     0.135 C 
BRANCH  19  20
HETATM   20  N3  UNL     1      21.976   2.032  49.032  1.00  0.00    -0.419 N 
HETATM   21  C12 UNL     1      20.927   1.110  49.268  1.00  0.00     0.142 C 
HETATM   22  C13 UNL     1      22.499   2.120  47.741  1.00  0.00     0.142 C 
ENDBRANCH  19  20
ENDBRANCH  18  19
ENDBRANCH   6  18
TORSDOF 8
ENDMDL
MODEL 3
REMARK VINA RESULT:      -5.9      1.929      4.895
REMARK  8 active torsions:
REMARK  status: ('A' for Active; 'I' for Inactive)
REMARK    1  A    between atoms: C2_2  and  N1_3 
REMARK    2  A    between atoms: N1_3  and  C3_4 
REMARK    3  A    between atoms: C5_6  and  C6_7 
REMARK    4  A    between atoms: C5_6  and  P1_9 
REMARK    5  A    between atoms: P1_9  and  O2_10 
REMARK    6  A    between atoms: N2_14  and  C10_15 
REMARK    7  A    between atoms: C10_15  and  C11_16 
REMARK    8  A    between atoms: C11_16  and  N3_17 
ROOT
HETATM    1  C3  UNL     1      25.989   2.109  51.834  1.00  0.00     0.021 A 
HETATM    2  C4  UNL     1      26.603   1.186  52.527  1.00  0.00     0.027 A 
HETATM    3  C5  UNL     1      26.304  -0.009  53.272  1.00  0.00     0.096 A 
HETATM    4  C8  UNL     1      24.894  -0.425  53.322  1.00  0.00     0.018 A 
HETATM    5  C9  UNL     1      23.746   0.049  52.847  1.00  0.00     0.084 A 
HETATM    6  N2  UNL     1      23.704   1.246  52.087  1.00  0.00    -0.383 N 
HETATM    7  C14 UNL     1      24.578   2.219  51.554  1.00  0.00     0.178 A 
ENDROOT
BRANCH   3   8
HETATM    8  C6  UNL     1      26.722   0.247  54.693  1.00  0.00     0.256 C 
HETATM    9  O1  UNL     1      26.231  -0.294  55.639  1.00  0.00    -0.305 OA
ENDBRANCH   3   8
BRANCH   3  10
HETATM   10  P1  UNL     1      27.271  -1.492  52.708  1.00  0.00     0.035 P 
HETATM   11  H9  UNL     1      27.748  -1.348  51.350  1.00  0.00     0.089 HD
BRANCH  10  12
HETATM   12  O2  UNL     1      28.621  -1.678  53.813  1.00  0.00    -0.370 OA
HETATM   13  C7  UNL     1      29.734  -0.983  53.401  1.00  0.00     0.207 C 
ENDBRANCH  10  12
ENDBRANCH   3  10
BRANCH   1  14
HETATM   14  N1  UNL     1      26.618   3.214  51.192  1.00  0.00    -0.392 N 
HETATM   15  H6  UNL     1      27.456   3.636  51.675  1.00  0.00     0.159 HD
BRANCH  14  16
HETATM   16  C2  UNL     1      25.989   3.625  49.929  1.00  0.00     0.115 C 
HETATM   17  C1  UNL     1      27.067   4.314  49.107  1.00  0.00     0.026 C 
ENDBRANCH  14  16
ENDBRANCH   1  14
BRANCH   6  18
HETATM   18  C10 UNL     1      22.373   1.701  51.680  1.00  0.00     0.141 C 
BRANCH  18  19
HETATM   19  C11 UNL     1      21.411   0.600  51.404  1.00  0.00     0.135 C 
BRANCH  19  20
HETATM   20  N3  UNL     1      20.211   0.700  52.104  1.00  0.00    -0.419 N 
HETATM   21  C12 UNL     1      20.075  -0.021  53.317  1.00  0.00     0.142 C 
HETATM   22  C13 UNL     1      19.094   1.373  51.608  1.00  0.00     0.142 C 
ENDBRANCH  19  20
ENDBRANCH  18  19
ENDBRANCH   6  18
TORSDOF 8
ENDMDL
MODEL 4
REMARK VINA RESULT:      -5.8      1.883      2.198
REMARK  8 active torsions:
REMARK  status: ('A' for Active; 'I' for Inactive)
REMARK    1  A    between atoms: C2_2  and  N1_3 
REMARK    2  A    between atoms: N1_3  and  C3_4 
REMARK    3  A    between atoms: C5_6  and  C6_7 
REMARK    4  A    between atoms: C5_6  and  P1_9 
REMARK    5  A    between atoms: P1_9  and  O2_10 
REMARK    6  A    between atoms: N2_14  and  C10_15 
REMARK    7  A    between atoms: C10_15  and  C11_16 
REMARK    8  A    between atoms: C11_16  and  N3_17 
ROOT
HETATM    1  C3  UNL     1      24.182  -0.331  53.773  1.00  0.00     0.021 A 
HETATM    2  C4  UNL     1      25.423  -0.734  53.863  1.00  0.00     0.027 A 
HETATM    3  C5  UNL     1      26.699  -0.506  53.236  1.00  0.00     0.096 A 
HETATM    4  C8  UNL     1      26.738   0.485  52.150  1.00  0.00     0.018 A 
HETATM    5  C9  UNL     1      25.848   1.264  51.542  1.00  0.00     0.084 A 
HETATM    6  N2  UNL     1      24.481   1.247  51.916  1.00  0.00    -0.383 N 
HETATM    7  C14 UNL     1      23.626   0.640  52.862  1.00  0.00     0.178 A 
ENDROOT
BRANCH   3   8
HETATM    8  C6  UNL     1      27.128  -1.814  52.633  1.00  0.00     0.256 C 
HETATM    9  O1  UNL     1      28.003  -2.497  53.077  1.00  0.00    -0.305 OA
ENDBRANCH   3   8
BRANCH   3  10
HETATM   10  P1  UNL     1      28.035  -0.027  54.435  1.00  0.00     0.035 P 
HETATM   11  H9  UNL     1      28.722  -1.181  54.975  1.00  0.00     0.089 HD
BRANCH  10  12
HETATM   12  O2  UNL     1      29.159   1.004  53.571  1.00  0.00    -0.370 OA
HETATM   13  C7  UNL     1      29.244   2.262  54.120  1.00  0.00     0.207 C 
ENDBRANCH  10  12
ENDBRANCH   3  10
BRANCH   1  14
HETATM   14  N1  UNL     1      23.108  -0.782  54.592  1.00  0.00    -0.392 N 
HETATM   15  H6  UNL     1      23.361  -1.345  55.449  1.00  0.00     0.159 HD
BRANCH  14  16
HETATM   16  C2  UNL     1      21.772  -0.401  54.113  1.00  0.00     0.115 C 
HETATM   17  C1  UNL     1      20.865  -1.599  54.345  1.00  0.00     0.026 C 
ENDBRANCH  14  16
ENDBRANCH   1  14
BRANCH   6  18
HETATM   18  C10 UNL     1      23.589   2.098  51.126  1.00  0.00     0.141 C 
BRANCH  18  19
HETATM   19  C11 UNL     1      22.409   2.608  51.877  1.00  0.00     0.135 C 
BRANCH  19  20
HETATM   20  N3  UNL     1      22.191   3.977  51.738  1.00  0.00    -0.419 N 
HETATM   21  C12 UNL     1      23.232   4.866  52.104  1.00  0.00     0.142 C 
HETATM   22  C13 UNL     1      20.957   4.518  51.378  1.00  0.00     0.142 C 
ENDBRANCH  19  20
ENDBRANCH  18  19
ENDBRANCH   6  18
TORSDOF 8
ENDMDL
MODEL 5
REMARK VINA RESULT:      -5.7      3.644      6.451
REMARK  8 active torsions:
REMARK  status: ('A' for Active; 'I' for Inactive)
REMARK    1  A    between atoms: C2_2  and  N1_3 
REMARK    2  A    between atoms: N1_3  and  C3_4 
REMARK    3  A    between atoms: C5_6  and  C6_7 
REMARK    4  A    between atoms: C5_6  and  P1_9 
REMARK    5  A    between atoms: P1_9  and  O2_10 
REMARK    6  A    between atoms: N2_14  and  C10_15 
REMARK    7  A    between atoms: C10_15  and  C11_16 
REMARK    8  A    between atoms: C11_16  and  N3_17 
ROOT
HETATM    1  C3  UNL     1      24.246   2.372  52.328  1.00  0.00     0.021 A 
HETATM    2  C4  UNL     1      23.013   2.120  51.970  1.00  0.00     0.027 A 
HETATM    3  C5  UNL     1      22.036   1.066  52.062  1.00  0.00     0.096 A 
HETATM    4  C8  UNL     1      22.440  -0.152  52.781  1.00  0.00     0.018 A 
HETATM    5  C9  UNL     1      23.543  -0.573  53.391  1.00  0.00     0.084 A 
HETATM    6  N2  UNL     1      24.707   0.235  53.446  1.00  0.00    -0.383 N 
HETATM    7  C14 UNL     1      25.150   1.520  53.060  1.00  0.00     0.178 A 
ENDROOT
BRANCH   3   8
HETATM    8  C6  UNL     1      21.716   0.643  50.656  1.00  0.00     0.256 C 
HETATM    9  O1  UNL     1      21.940   1.313  49.692  1.00  0.00    -0.305 OA
ENDBRANCH   3   8
BRANCH   3  10
HETATM   10  P1  UNL     1      20.429   1.615  52.815  1.00  0.00     0.035 P 
HETATM   11  H9  UNL     1      20.311   1.215  54.200  1.00  0.00     0.089 HD
BRANCH  10  12
HETATM   12  O2  UNL     1      20.363   3.361  52.675  1.00  0.00    -0.370 OA
HETATM   13  C7  UNL     1      19.654   3.772  51.570  1.00  0.00     0.207 C 
ENDBRANCH  10  12
ENDBRANCH   3  10
BRANCH   1  14
HETATM   14  N1  UNL     1      24.950   3.581  52.064  1.00  0.00    -0.392 N 
HETATM   15  H6  UNL     1      25.370   4.083  52.892  1.00  0.00     0.159 HD
BRANCH  14  16
HETATM   16  C2  UNL     1      24.982   3.973  50.648  1.00  0.00     0.115 C 
HETATM   17  C1  UNL     1      26.312   3.492  50.091  1.00  0.00     0.026 C 
ENDBRANCH  14  16
ENDBRANCH   1  14
BRANCH   6  18
HETATM   18  C10 UNL     1      25.878  -0.368  54.085  1.00  0.00     0.141 C 
BRANCH  18  19
HETATM   19  C11 UNL     1      27.029  -0.585  53.167  1.00  0.00     0.135 C 
BRANCH  19  20
HETATM   20  N3  UNL     1      28.276  -0.513  53.785  1.00  0.00    -0.419 N 
HETATM   21  C12 UNL     1      29.282  -1.426  53.383  1.00  0.00     0.142 C 
HETATM   22  C13 UNL     1      28.541   0.327  54.866  1.00  0.00     0.142 C 
ENDBRANCH  19  20
ENDBRANCH  18  19
ENDBRANCH   6  18
TORSDOF 8
ENDMDL
MODEL 6
REMARK VINA RESULT:      -5.7      2.088      5.313
REMARK  8 active torsions:
REMARK  status: ('A' for Active; 'I' for Inactive)
REMARK    1  A    between atoms: C2_2  and  N1_3 
REMARK    2  A    between atoms: N1_3  and  C3_4 
REMARK    3  A    between atoms: C5_6  and  C6_7 
REMARK    4  A    between atoms: C5_6  and  P1_9 
REMARK    5  A    between atoms: P1_9  and  O2_10 
REMARK    6  A    between atoms: N2_14  and  C10_15 
REMARK    7  A    between atoms: C10_15  and  C11_16 
REMARK    8  A    between atoms: C11_16  and  N3_17 
ROOT
HETATM    1  C3  UNL     1      24.017   1.376  51.787  1.00  0.00     0.021 A 
HETATM    2  C4  UNL     1      25.154   1.025  52.331  1.00  0.00     0.027 A 
HETATM    3  C5  UNL     1      25.654   0.173  53.377  1.00  0.00     0.096 A 
HETATM    4  C8  UNL     1      24.661  -0.612  54.126  1.00  0.00     0.018 A 
HETATM    5  C9  UNL     1      23.337  -0.737  54.105  1.00  0.00     0.084 A 
HETATM    6  N2  UNL     1      22.544   0.005  53.194  1.00  0.00    -0.383 N 
HETATM    7  C14 UNL     1      22.691   0.925  52.132  1.00  0.00     0.178 A 
ENDROOT
BRANCH   3   8
HETATM    8  C6  UNL     1      26.334   1.063  54.378  1.00  0.00     0.256 C 
HETATM    9  O1  UNL     1      26.658   2.192  54.154  1.00  0.00    -0.305 OA
ENDBRANCH   3   8
BRANCH   3  10
HETATM   10  P1  UNL     1      26.945  -1.030  52.795  1.00  0.00     0.035 P 
HETATM   11  H9  UNL     1      27.510  -0.648  51.519  1.00  0.00     0.089 HD
BRANCH  10  12
HETATM   12  O2  UNL     1      28.194  -1.082  54.025  1.00  0.00    -0.370 OA
HETATM   13  C7  UNL     1      29.451  -0.886  53.503  1.00  0.00     0.207 C 
ENDBRANCH  10  12
ENDBRANCH   3  10
BRANCH   1  14
HETATM   14  N1  UNL     1      23.867   2.292  50.708  1.00  0.00    -0.392 N 
HETATM   15  H6  UNL     1      23.214   2.013  49.927  1.00  0.00     0.159 HD
BRANCH  14  16
HETATM   16  C2  UNL     1      24.669   3.518  50.831  1.00  0.00     0.115 C 
HETATM   17  C1  UNL     1      25.522   3.611  49.576  1.00  0.00     0.026 C 
ENDBRANCH  14  16
ENDBRANCH   1  14
BRANCH   6  18
HETATM   18  C10 UNL     1      21.095  -0.169  53.315  1.00  0.00     0.141 C 
BRANCH  18  19
HETATM   19  C11 UNL     1      20.325   0.282  52.124  1.00  0.00     0.135 C 
BRANCH  19  20
HETATM   20  N3  UNL     1      19.002  -0.154  52.099  1.00  0.00    -0.419 N 
HETATM   21  C12 UNL     1      18.535  -0.954  53.171  1.00  0.00     0.142 C 
HETATM   22  C13 UNL     1      18.154   0.051  51.011  1.00  0.00     0.142 C 
ENDBRANCH  19  20
ENDBRANCH  18  19
ENDBRANCH   6  18
TORSDOF 8
ENDMDL
MODEL 7
REMARK VINA RESULT:      -5.7      2.271      4.665
REMARK  8 active torsions:
REMARK  status: ('A' for Active; 'I' for Inactive)
REMARK    1  A    between atoms: C2_2  and  N1_3 
REMARK    2  A    between atoms: N1_3  and  C3_4 
REMARK    3  A    between atoms: C5_6  and  C6_7 
REMARK    4  A    between atoms: C5_6  and  P1_9 
REMARK    5  A    between atoms: P1_9  and  O2_10 
REMARK    6  A    between atoms: N2_14  and  C10_15 
REMARK    7  A    between atoms: C10_15  and  C11_16 
REMARK    8  A    between atoms: C11_16  and  N3_17 
ROOT
HETATM    1  C3  UNL     1      26.243   3.204  50.524  1.00  0.00     0.021 A 
HETATM    2  C4  UNL     1      26.754   2.324  51.346  1.00  0.00     0.027 A 
HETATM    3  C5  UNL     1      26.503   1.762  52.648  1.00  0.00     0.096 A 
HETATM    4  C8  UNL     1      25.312   2.245  53.361  1.00  0.00     0.018 A 
HETATM    5  C9  UNL     1      24.353   3.133  53.117  1.00  0.00     0.084 A 
HETATM    6  N2  UNL     1      24.337   3.885  51.915  1.00  0.00    -0.383 N 
HETATM    7  C14 UNL     1      25.060   4.009  50.708  1.00  0.00     0.178 A 
ENDROOT
BRANCH   3   8
HETATM    8  C6  UNL     1      27.685   2.110  53.509  1.00  0.00     0.256 C 
HETATM    9  O1  UNL     1      28.713   2.547  53.083  1.00  0.00    -0.305 OA
ENDBRANCH   3   8
BRANCH   3  10
HETATM   10  P1  UNL     1      26.398  -0.093  52.642  1.00  0.00     0.035 P 
HETATM   11  H9  UNL     1      27.501  -0.700  51.928  1.00  0.00     0.089 HD
BRANCH  10  12
HETATM   12  O2  UNL     1      26.393  -0.615  54.316  1.00  0.00    -0.370 OA
HETATM   13  C7  UNL     1      25.127  -0.891  54.775  1.00  0.00     0.207 C 
ENDBRANCH  10  12
ENDBRANCH   3  10
BRANCH   1  14
HETATM   14  N1  UNL     1      26.767   3.538  49.244  1.00  0.00    -0.392 N 
HETATM   15  H6  UNL     1      27.078   2.739  48.628  1.00  0.00     0.159 HD
BRANCH  14  16
HETATM   16  C2  UNL     1      26.814   4.979  48.960  1.00  0.00     0.115 C 
HETATM   17  C1  UNL     1      28.210   5.277  48.435  1.00  0.00     0.026 C 
ENDBRANCH  14  16
ENDBRANCH   1  14
BRANCH   6  18
HETATM   18  C10 UNL     1      23.270   4.880  51.794  1.00  0.00     0.141 C 
BRANCH  18  19
HETATM   19  C11 UNL     1      23.718   6.193  51.255  1.00  0.00     0.135 C 
BRANCH  19  20
HETATM   20  N3  UNL     1      22.705   6.945  50.665  1.00  0.00    -0.419 N 
HETATM   21  C12 UNL     1      21.391   6.416  50.652  1.00  0.00     0.142 C 
HETATM   22  C13 UNL     1      22.944   8.135  49.976  1.00  0.00     0.142 C 
ENDBRANCH  19  20
ENDBRANCH  18  19
ENDBRANCH   6  18
TORSDOF 8
ENDMDL
MODEL 8
REMARK VINA RESULT:      -5.5      3.343      5.494
REMARK  8 active torsions:
REMARK  status: ('A' for Active; 'I' for Inactive)
REMARK    1  A    between atoms: C2_2  and  N1_3 
REMARK    2  A    between atoms: N1_3  and  C3_4 
REMARK    3  A    between atoms: C5_6  and  C6_7 
REMARK    4  A    between atoms: C5_6  and  P1_9 
REMARK    5  A    between atoms: P1_9  and  O2_10 
REMARK    6  A    between atoms: N2_14  and  C10_15 
REMARK    7  A    between atoms: C10_15  and  C11_16 
REMARK    8  A    between atoms: C11_16  and  N3_17 
ROOT
HETATM    1  C3  UNL     1      23.372   1.047  52.685  1.00  0.00     0.021 A 
HETATM    2  C4  UNL     1      23.223   2.112  51.940  1.00  0.00     0.027 A 
HETATM    3  C5  UNL     1      24.004   2.984  51.102  1.00  0.00     0.096 A 
HETATM    4  C8  UNL     1      25.430   2.657  50.951  1.00  0.00     0.018 A 
HETATM    5  C9  UNL     1      26.247   1.722  51.428  1.00  0.00     0.084 A 
HETATM    6  N2  UNL     1      25.778   0.723  52.318  1.00  0.00    -0.383 N 
HETATM    7  C14 UNL     1      24.577   0.292  52.924  1.00  0.00     0.178 A 
ENDROOT
BRANCH   3   8
HETATM    8  C6  UNL     1      23.945   4.352  51.720  1.00  0.00     0.256 C 
HETATM    9  O1  UNL     1      23.208   4.648  52.614  1.00  0.00    -0.305 OA
ENDBRANCH   3   8
BRANCH   3  10
HETATM   10  P1  UNL     1      23.320   3.163  49.384  1.00  0.00     0.035 P 
HETATM   11  H9  UNL     1      24.152   2.511  48.395  1.00  0.00     0.089 HD
BRANCH  10  12
HETATM   12  O2  UNL     1      21.714   2.459  49.392  1.00  0.00    -0.370 OA
HETATM   13  C7  UNL     1      21.638   1.318  48.626  1.00  0.00     0.207 C 
ENDBRANCH  10  12
ENDBRANCH   3  10
BRANCH   1  14
HETATM   14  N1  UNL     1      22.336   0.404  53.419  1.00  0.00    -0.392 N 
HETATM   15  H6  UNL     1      21.590   1.021  53.840  1.00  0.00     0.159 HD
BRANCH  14  16
HETATM   16  C2  UNL     1      22.461  -1.058  53.498  1.00  0.00     0.115 C 
HETATM   17  C1  UNL     1      21.409  -1.536  54.486  1.00  0.00     0.026 C 
ENDBRANCH  14  16
ENDBRANCH   1  14
BRANCH   6  18
HETATM   18  C10 UNL     1      26.787  -0.208  52.827  1.00  0.00     0.141 C 
BRANCH  18  19
HETATM   19  C11 UNL     1      27.444   0.235  54.087  1.00  0.00     0.135 C 
BRANCH  19  20
HETATM   20  N3  UNL     1      28.747   0.700  53.920  1.00  0.00    -0.419 N 
HETATM   21  C12 UNL     1      29.769  -0.243  53.643  1.00  0.00     0.142 C 
HETATM   22  C13 UNL     1      29.115   2.028  54.136  1.00  0.00     0.142 C 
ENDBRANCH  19  20
ENDBRANCH  18  19
ENDBRANCH   6  18
TORSDOF 8
ENDMDL
MODEL 9
REMARK VINA RESULT:      -5.4      3.449      5.616
REMARK  8 active torsions:
REMARK  status: ('A' for Active; 'I' for Inactive)
REMARK    1  A    between atoms: C2_2  and  N1_3 
REMARK    2  A    between atoms: N1_3  and  C3_4 
REMARK    3  A    between atoms: C5_6  and  C6_7 
REMARK    4  A    between atoms: C5_6  and  P1_9 
REMARK    5  A    between atoms: P1_9  and  O2_10 
REMARK    6  A    between atoms: N2_14  and  C10_15 
REMARK    7  A    between atoms: C10_15  and  C11_16 
REMARK    8  A    between atoms: C11_16  and  N3_17 
ROOT
HETATM    1  C3  UNL     1      22.847   0.924  53.135  1.00  0.00     0.021 A 
HETATM    2  C4  UNL     1      22.821   2.002  52.394  1.00  0.00     0.027 A 
HETATM    3  C5  UNL     1      23.713   2.822  51.617  1.00  0.00     0.096 A 
HETATM    4  C8  UNL     1      25.119   2.397  51.552  1.00  0.00     0.018 A 
HETATM    5  C9  UNL     1      25.836   1.403  52.068  1.00  0.00     0.084 A 
HETATM    6  N2  UNL     1      25.242   0.432  52.915  1.00  0.00    -0.383 N 
HETATM    7  C14 UNL     1      23.978   0.083  53.440  1.00  0.00     0.178 A 
ENDROOT
BRANCH   3   8
HETATM    8  C6  UNL     1      23.711   4.187  52.245  1.00  0.00     0.256 C 
HETATM    9  O1  UNL     1      22.738   4.704  52.710  1.00  0.00    -0.305 OA
ENDBRANCH   3   8
BRANCH   3  10
HETATM   10  P1  UNL     1      23.153   3.062  49.861  1.00  0.00     0.035 P 
HETATM   11  H9  UNL     1      21.803   2.588  49.650  1.00  0.00     0.089 HD
BRANCH  10  12
HETATM   12  O2  UNL     1      23.260   4.777  49.515  1.00  0.00    -0.370 OA
HETATM   13  C7  UNL     1      24.435   5.112  48.883  1.00  0.00     0.207 C 
ENDBRANCH  10  12
ENDBRANCH   3  10
BRANCH   1  14
HETATM   14  N1  UNL     1      21.724   0.350  53.795  1.00  0.00    -0.392 N 
HETATM   15  H6  UNL     1      20.801   0.855  53.700  1.00  0.00     0.159 HD
BRANCH  14  16
HETATM   16  C2  UNL     1      22.017  -0.882  54.540  1.00  0.00     0.115 C 
HETATM   17  C1  UNL     1      20.841  -1.819  54.317  1.00  0.00     0.026 C 
ENDBRANCH  14  16
ENDBRANCH   1  14
BRANCH   6  18
HETATM   18  C10 UNL     1      26.150  -0.571  53.476  1.00  0.00     0.141 C 
BRANCH  18  19
HETATM   19  C11 UNL     1      27.488  -0.614  52.825  1.00  0.00     0.135 C 
BRANCH  19  20
HETATM   20  N3  UNL     1      28.554  -0.406  53.697  1.00  0.00    -0.419 N 
HETATM   21  C12 UNL     1      29.707  -1.219  53.560  1.00  0.00     0.142 C 
HETATM   22  C13 UNL     1      28.495   0.477  54.775  1.00  0.00     0.142 C 
ENDBRANCH  19  20
ENDBRANCH  18  19
ENDBRANCH   6  18
TORSDOF 8
ENDMDL
