MODEL 1
REMARK VINA RESULT:      -9.2      0.000      0.000
REMARK  4 active torsions:
REMARK  status: ('A' for Active; 'I' for Inactive)
REMARK    1  A    between atoms: N2_5  and  C4_6 
REMARK    2  A    between atoms: C7_9  and  N3_10 
REMARK       I    between atoms: N3_10  and  C8_11 
REMARK    3  A    between atoms: C8_11  and  C9_13 
REMARK    4  A    between atoms: C13_19  and  N6_20 
ROOT
HETATM    1  N3  UNL     1      25.915   2.279  51.985  1.00  0.00    -0.326 N 
HETATM    2  C8  UNL     1      27.024   1.871  52.752  1.00  0.00     0.236 C 
HETATM    3  O1  UNL     1      28.104   2.519  52.544  1.00  0.00    -0.272 OA
HETATM    4  H10 UNL     1      24.926   1.941  51.940  1.00  0.00     0.169 HD
ENDROOT
BRANCH   2   5
HETATM    5  C9  UNL     1      26.689   0.729  53.678  1.00  0.00     0.175 C 
HETATM    6  C10 UNL     1      27.958   0.149  54.200  1.00  0.00     0.111 C 
HETATM    7  N4  UNL     1      28.548   0.786  55.165  1.00  0.00    -0.287 NA
HETATM    8  N5  UNL     1      28.552  -1.057  53.698  1.00  0.00    -0.354 N 
HETATM    9  H12 UNL     1      29.438   0.424  55.567  1.00  0.00     0.188 HD
HETATM   10  C11 UNL     1      27.807  -1.876  52.799  1.00  0.00     0.087 C 
HETATM   11  H13 UNL     1      29.514  -1.344  53.977  1.00  0.00     0.166 HD
HETATM   12  C12 UNL     1      26.600  -1.464  52.484  1.00  0.00     0.018 C 
HETATM   13  C13 UNL     1      25.869  -0.265  52.914  1.00  0.00     0.154 C 
BRANCH  13  14
HETATM   14  N6  UNL     1      24.728  -0.616  53.760  1.00  0.00    -0.271 N 
HETATM   15  C14 UNL     1      23.422  -0.410  53.189  1.00  0.00     0.113 C 
HETATM   16  C15 UNL     1      22.384  -0.720  53.931  1.00  0.00     0.021 C 
HETATM   17  C16 UNL     1      22.662  -1.241  55.259  1.00  0.00     0.037 C 
HETATM   18  C17 UNL     1      23.856  -1.509  55.738  1.00  0.00     0.107 C 
HETATM   19  N7  UNL     1      24.880  -1.130  55.064  1.00  0.00    -0.170 NA
ENDBRANCH  13  14
ENDBRANCH   2   5
BRANCH   1  20
HETATM   20  C7  UNL     1      25.831   3.313  51.008  1.00  0.00     0.034 A 
HETATM   21  C6  UNL     1      24.788   4.220  51.139  1.00  0.00     0.032 A 
HETATM   22  C5  UNL     1      24.614   5.260  50.248  1.00  0.00     0.031 A 
HETATM   23  C4  UNL     1      25.471   5.446  49.184  1.00  0.00     0.030 A 
HETATM   24  C19 UNL     1      26.501   4.529  49.076  1.00  0.00     0.031 A 
HETATM   25  C18 UNL     1      26.699   3.484  49.947  1.00  0.00     0.032 A 
BRANCH  23  26
HETATM   26  N2  UNL     1      25.317   6.507  48.251  1.00  0.00    -0.378 N 
HETATM   27  C3  UNL     1      26.395   7.320  47.723  1.00  0.00     0.153 C 
HETATM   28  C2  UNL     1      25.845   8.742  47.655  1.00  0.00     0.291 C 
HETATM   29  N1  UNL     1      24.922   8.749  46.548  1.00  0.00     0.087 N 
HETATM   30  C1  UNL     1      25.616   8.805  45.280  1.00  0.00     0.310 C 
HETATM   31  C21 UNL     1      23.928   7.725  46.615  1.00  0.00     0.291 C 
HETATM   32  C20 UNL     1      23.995   6.814  47.783  1.00  0.00     0.153 C 
ENDBRANCH  23  26
ENDBRANCH   1  20
TORSDOF 4
ENDMDL
MODEL 2
REMARK VINA RESULT:      -8.7      2.140      2.544
REMARK  4 active torsions:
REMARK  status: ('A' for Active; 'I' for Inactive)
REMARK    1  A    between atoms: N2_5  and  C4_6 
REMARK    2  A    between atoms: C7_9  and  N3_10 
REMARK       I    between atoms: N3_10  and  C8_11 
REMARK    3  A    between atoms: C8_11  and  C9_13 
REMARK    4  A    between atoms: C13_19  and  N6_20 
ROOT
HETATM    1  N3  UNL     1      24.680   2.638  51.393  1.00  0.00    -0.326 N 
HETATM    2  C8  UNL     1      25.994   2.201  51.645  1.00  0.00     0.236 C 
HETATM    3  O1  UNL     1      26.859   2.524  50.761  1.00  0.00    -0.272 OA
HETATM    4  H10 UNL     1      23.785   2.526  51.925  1.00  0.00     0.169 HD
ENDROOT
BRANCH   2   5
HETATM    5  C9  UNL     1      26.103   1.429  52.935  1.00  0.00     0.175 C 
HETATM    6  C10 UNL     1      27.472   1.618  53.492  1.00  0.00     0.111 C 
HETATM    7  N4  UNL     1      27.709   2.732  54.115  1.00  0.00    -0.287 NA
HETATM    8  N5  UNL     1      28.523   0.648  53.377  1.00  0.00    -0.354 N 
HETATM    9  H12 UNL     1      28.649   2.916  54.524  1.00  0.00     0.188 HD
HETATM   10  C11 UNL     1      28.213  -0.657  52.894  1.00  0.00     0.087 C 
HETATM   11  H13 UNL     1      29.505   0.881  53.638  1.00  0.00     0.166 HD
HETATM   12  C12 UNL     1      26.960  -0.891  52.581  1.00  0.00     0.018 C 
HETATM   13  C13 UNL     1      25.789  -0.007  52.646  1.00  0.00     0.154 C 
BRANCH  13  14
HETATM   14  N6  UNL     1      24.847  -0.452  53.672  1.00  0.00    -0.271 N 
HETATM   15  C14 UNL     1      23.451  -0.410  53.320  1.00  0.00     0.113 C 
HETATM   16  C15 UNL     1      22.588  -0.806  54.227  1.00  0.00     0.021 C 
HETATM   17  C16 UNL     1      23.133  -1.248  55.500  1.00  0.00     0.037 C 
HETATM   18  C17 UNL     1      24.411  -1.367  55.780  1.00  0.00     0.107 C 
HETATM   19  N7  UNL     1      25.263  -0.901  54.942  1.00  0.00    -0.170 NA
ENDBRANCH  13  14
ENDBRANCH   2   5
BRANCH   1  20
HETATM   20  C7  UNL     1      24.178   3.389  50.290  1.00  0.00     0.034 A 
HETATM   21  C6  UNL     1      23.288   2.743  49.442  1.00  0.00     0.032 A 
HETATM   22  C5  UNL     1      22.742   3.376  48.344  1.00  0.00     0.031 A 
HETATM   23  C4  UNL     1      23.058   4.683  48.038  1.00  0.00     0.030 A 
HETATM   24  C19 UNL     1      23.947   5.304  48.897  1.00  0.00     0.031 A 
HETATM   25  C18 UNL     1      24.505   4.698  49.998  1.00  0.00     0.032 A 
BRANCH  23  26
HETATM   26  N2  UNL     1      22.511   5.362  46.914  1.00  0.00    -0.378 N 
HETATM   27  C3  UNL     1      22.554   6.795  46.700  1.00  0.00     0.153 C 
HETATM   28  C2  UNL     1      21.196   7.164  46.108  1.00  0.00     0.291 C 
HETATM   29  N1  UNL     1      21.219   6.678  44.751  1.00  0.00     0.087 N 
HETATM   30  C1  UNL     1      21.991   7.548  43.891  1.00  0.00     0.310 C 
HETATM   31  C21 UNL     1      21.567   5.298  44.635  1.00  0.00     0.291 C 
HETATM   32  C20 UNL     1      21.861   4.581  45.899  1.00  0.00     0.153 C 
ENDBRANCH  23  26
ENDBRANCH   1  20
TORSDOF 4
ENDMDL
MODEL 3
REMARK VINA RESULT:      -8.6      3.621      5.306
REMARK  4 active torsions:
REMARK  status: ('A' for Active; 'I' for Inactive)
REMARK    1  A    between atoms: N2_5  and  C4_6 
REMARK    2  A    between atoms: C7_9  and  N3_10 
REMARK       I    between atoms: N3_10  and  C8_11 
REMARK    3  A    between atoms: C8_11  and  C9_13 
REMARK    4  A    between atoms: C13_19  and  N6_20 
ROOT
HETATM    1  N3  UNL     1      23.828   3.287  50.196  1.00  0.00    -0.326 N 
HETATM    2  C8  UNL     1      22.827   2.572  49.510  1.00  0.00     0.236 C 
HETATM    3  O1  UNL     1      22.873   2.648  48.236  1.00  0.00    -0.272 OA
HETATM    4  H10 UNL     1      24.037   3.408  51.214  1.00  0.00     0.169 HD
ENDROOT
BRANCH   2   5
HETATM    5  C9  UNL     1      21.893   1.853  50.449  1.00  0.00     0.175 C 
HETATM    6  C10 UNL     1      20.496   2.026  49.961  1.00  0.00     0.111 C 
HETATM    7  N4  UNL     1      20.116   1.274  48.974  1.00  0.00    -0.287 NA
HETATM    8  N5  UNL     1      19.566   2.967  50.516  1.00  0.00    -0.354 N 
HETATM    9  H12 UNL     1      19.150   1.354  48.593  1.00  0.00     0.188 HD
HETATM   10  C11 UNL     1      19.897   3.635  51.732  1.00  0.00     0.087 C 
HETATM   11  H13 UNL     1      18.657   3.169  50.049  1.00  0.00     0.166 HD
HETATM   12  C12 UNL     1      21.055   3.339  52.275  1.00  0.00     0.018 C 
HETATM   13  C13 UNL     1      22.098   2.408  51.826  1.00  0.00     0.154 C 
BRANCH  13  14
HETATM   14  N6  UNL     1      22.214   1.266  52.733  1.00  0.00    -0.271 N 
HETATM   15  C14 UNL     1      23.505   0.633  52.801  1.00  0.00     0.113 C 
HETATM   16  C15 UNL     1      23.631  -0.394  53.610  1.00  0.00     0.021 C 
HETATM   17  C16 UNL     1      22.447  -0.788  54.357  1.00  0.00     0.037 C 
HETATM   18  C17 UNL     1      21.299  -0.150  54.354  1.00  0.00     0.107 C 
HETATM   19  N7  UNL     1      21.131   0.797  53.505  1.00  0.00    -0.170 NA
ENDBRANCH  13  14
ENDBRANCH   2   5
BRANCH   1  20
HETATM   20  C7  UNL     1      24.885   4.084  49.666  1.00  0.00     0.034 A 
HETATM   21  C6  UNL     1      26.131   3.481  49.552  1.00  0.00     0.032 A 
HETATM   22  C5  UNL     1      27.223   4.162  49.051  1.00  0.00     0.031 A 
HETATM   23  C4  UNL     1      27.125   5.475  48.642  1.00  0.00     0.030 A 
HETATM   24  C19 UNL     1      25.874   6.052  48.767  1.00  0.00     0.031 A 
HETATM   25  C18 UNL     1      24.769   5.399  49.261  1.00  0.00     0.032 A 
BRANCH  23  26
HETATM   26  N2  UNL     1      28.232   6.202  48.123  1.00  0.00    -0.378 N 
HETATM   27  C3  UNL     1      29.623   5.824  48.269  1.00  0.00     0.153 C 
HETATM   28  C2  UNL     1      30.381   7.127  48.513  1.00  0.00     0.291 C 
HETATM   29  N1  UNL     1      30.407   7.806  47.242  1.00  0.00     0.087 N 
HETATM   30  C1  UNL     1      31.396   7.231  46.356  1.00  0.00     0.310 C 
HETATM   31  C21 UNL     1      29.121   7.965  46.642  1.00  0.00     0.291 C 
HETATM   32  C20 UNL     1      27.968   7.410  47.393  1.00  0.00     0.153 C 
ENDBRANCH  23  26
ENDBRANCH   1  20
TORSDOF 4
ENDMDL
MODEL 4
REMARK VINA RESULT:      -8.5      3.197      4.326
REMARK  4 active torsions:
REMARK  status: ('A' for Active; 'I' for Inactive)
REMARK    1  A    between atoms: N2_5  and  C4_6 
REMARK    2  A    between atoms: C7_9  and  N3_10 
REMARK       I    between atoms: N3_10  and  C8_11 
REMARK    3  A    between atoms: C8_11  and  C9_13 
REMARK    4  A    between atoms: C13_19  and  N6_20 
ROOT
HETATM    1  N3  UNL     1      25.226   4.403  50.622  1.00  0.00    -0.326 N 
HETATM    2  C8  UNL     1      24.055   3.693  50.297  1.00  0.00     0.236 C 
HETATM    3  O1  UNL     1      23.794   3.607  49.049  1.00  0.00    -0.272 OA
HETATM    4  H10 UNL     1      25.682   4.631  51.537  1.00  0.00     0.169 HD
ENDROOT
BRANCH   2   5
HETATM    5  C9  UNL     1      23.343   3.172  51.519  1.00  0.00     0.175 C 
HETATM    6  C10 UNL     1      23.962   3.782  52.729  1.00  0.00     0.111 C 
HETATM    7  N4  UNL     1      23.618   4.999  53.021  1.00  0.00    -0.287 NA
HETATM    8  N5  UNL     1      24.904   3.104  53.573  1.00  0.00    -0.354 N 
HETATM    9  H12 UNL     1      24.020   5.473  53.857  1.00  0.00     0.188 HD
HETATM   10  C11 UNL     1      25.119   1.706  53.390  1.00  0.00     0.087 C 
HETATM   11  H13 UNL     1      25.432   3.613  54.313  1.00  0.00     0.166 HD
HETATM   12  C12 UNL     1      24.425   1.119  52.443  1.00  0.00     0.018 C 
HETATM   13  C13 UNL     1      23.437   1.677  51.511  1.00  0.00     0.154 C 
BRANCH  13  14
HETATM   14  N6  UNL     1      22.096   1.164  51.793  1.00  0.00    -0.271 N 
HETATM   15  C14 UNL     1      21.233   0.975  50.656  1.00  0.00     0.113 C 
HETATM   16  C15 UNL     1      20.025   0.515  50.886  1.00  0.00     0.021 C 
HETATM   17  C16 UNL     1      19.682   0.242  52.272  1.00  0.00     0.037 C 
HETATM   18  C17 UNL     1      20.505   0.334  53.292  1.00  0.00     0.107 C 
HETATM   19  N7  UNL     1      21.656   0.865  53.098  1.00  0.00    -0.170 NA
ENDBRANCH  13  14
ENDBRANCH   2   5
BRANCH   1  20
HETATM   20  C7  UNL     1      26.161   5.041  49.755  1.00  0.00     0.034 A 
HETATM   21  C6  UNL     1      25.957   6.389  49.494  1.00  0.00     0.032 A 
HETATM   22  C5  UNL     1      26.802   7.104  48.668  1.00  0.00     0.031 A 
HETATM   23  C4  UNL     1      27.889   6.509  48.063  1.00  0.00     0.030 A 
HETATM   24  C19 UNL     1      28.069   5.165  48.339  1.00  0.00     0.031 A 
HETATM   25  C18 UNL     1      27.245   4.429  49.157  1.00  0.00     0.032 A 
BRANCH  23  26
HETATM   26  N2  UNL     1      28.776   7.219  47.208  1.00  0.00    -0.378 N 
HETATM   27  C3  UNL     1      30.218   7.076  47.195  1.00  0.00     0.153 C 
HETATM   28  C2  UNL     1      30.771   8.485  46.999  1.00  0.00     0.291 C 
HETATM   29  N1  UNL     1      30.510   8.818  45.621  1.00  0.00     0.087 N 
HETATM   30  C1  UNL     1      31.453   8.171  44.734  1.00  0.00     0.310 C 
HETATM   31  C21 UNL     1      29.146   8.650  45.232  1.00  0.00     0.291 C 
HETATM   32  C20 UNL     1      28.216   8.157  46.277  1.00  0.00     0.153 C 
ENDBRANCH  23  26
ENDBRANCH   1  20
TORSDOF 4
ENDMDL
MODEL 5
REMARK VINA RESULT:      -8.4      5.752      9.278
REMARK  4 active torsions:
REMARK  status: ('A' for Active; 'I' for Inactive)
REMARK    1  A    between atoms: N2_5  and  C4_6 
REMARK    2  A    between atoms: C7_9  and  N3_10 
REMARK       I    between atoms: N3_10  and  C8_11 
REMARK    3  A    between atoms: C8_11  and  C9_13 
REMARK    4  A    between atoms: C13_19  and  N6_20 
ROOT
HETATM    1  N3  UNL     1      20.564   1.102  51.863  1.00  0.00    -0.326 N 
HETATM    2  C8  UNL     1      19.738   2.205  52.152  1.00  0.00     0.236 C 
HETATM    3  O1  UNL     1      20.307   3.170  52.767  1.00  0.00    -0.272 OA
HETATM    4  H10 UNL     1      20.381   0.190  51.382  1.00  0.00     0.169 HD
ENDROOT
BRANCH   2   5
HETATM    5  C9  UNL     1      18.326   2.006  51.663  1.00  0.00     0.175 C 
HETATM    6  C10 UNL     1      18.353   1.097  50.483  1.00  0.00     0.111 C 
HETATM    7  N4  UNL     1      18.472  -0.174  50.718  1.00  0.00    -0.287 NA
HETATM    8  N5  UNL     1      18.255   1.547  49.124  1.00  0.00    -0.354 N 
HETATM    9  H12 UNL     1      18.496  -0.854  49.930  1.00  0.00     0.188 HD
HETATM   10  C11 UNL     1      17.904   2.905  48.867  1.00  0.00     0.087 C 
HETATM   11  H13 UNL     1      18.435   0.902  48.326  1.00  0.00     0.166 HD
HETATM   12  C12 UNL     1      17.688   3.670  49.912  1.00  0.00     0.018 C 
HETATM   13  C13 UNL     1      17.751   3.352  51.344  1.00  0.00     0.154 C 
BRANCH  13  14
HETATM   14  N6  UNL     1      16.423   3.403  51.955  1.00  0.00    -0.271 N 
HETATM   15  C14 UNL     1      15.520   2.334  51.614  1.00  0.00     0.113 C 
HETATM   16  C15 UNL     1      14.323   2.361  52.152  1.00  0.00     0.021 C 
HETATM   17  C16 UNL     1      14.030   3.472  53.042  1.00  0.00     0.037 C 
HETATM   18  C17 UNL     1      14.888   4.394  53.416  1.00  0.00     0.107 C 
HETATM   19  N7  UNL     1      16.030   4.435  52.833  1.00  0.00    -0.170 NA
ENDBRANCH  13  14
ENDBRANCH   2   5
BRANCH   1  20
HETATM   20  C7  UNL     1      21.946   0.911  52.160  1.00  0.00     0.034 A 
HETATM   21  C6  UNL     1      22.251   0.037  53.194  1.00  0.00     0.032 A 
HETATM   22  C5  UNL     1      23.556  -0.221  53.565  1.00  0.00     0.031 A 
HETATM   23  C4  UNL     1      24.617   0.381  52.923  1.00  0.00     0.030 A 
HETATM   24  C19 UNL     1      24.286   1.248  51.897  1.00  0.00     0.031 A 
HETATM   25  C18 UNL     1      22.997   1.523  51.506  1.00  0.00     0.032 A 
BRANCH  23  26
HETATM   26  N2  UNL     1      25.971   0.136  53.283  1.00  0.00    -0.378 N 
HETATM   27  C3  UNL     1      27.034  -0.202  52.357  1.00  0.00     0.153 C 
HETATM   28  C2  UNL     1      27.880  -1.257  53.067  1.00  0.00     0.291 C 
HETATM   29  N1  UNL     1      28.611  -0.547  54.086  1.00  0.00     0.087 N 
HETATM   30  C1  UNL     1      29.730   0.178  53.526  1.00  0.00     0.310 C 
HETATM   31  C21 UNL     1      27.789   0.241  54.949  1.00  0.00     0.291 C 
HETATM   32  C20 UNL     1      26.333   0.225  54.670  1.00  0.00     0.153 C 
ENDBRANCH  23  26
ENDBRANCH   1  20
TORSDOF 4
ENDMDL
MODEL 6
REMARK VINA RESULT:      -8.2      6.418     10.117
REMARK  4 active torsions:
REMARK  status: ('A' for Active; 'I' for Inactive)
REMARK    1  A    between atoms: N2_5  and  C4_6 
REMARK    2  A    between atoms: C7_9  and  N3_10 
REMARK       I    between atoms: N3_10  and  C8_11 
REMARK    3  A    between atoms: C8_11  and  C9_13 
REMARK    4  A    between atoms: C13_19  and  N6_20 
ROOT
HETATM    1  N3  UNL     1      31.157   6.144  47.611  1.00  0.00    -0.326 N 
HETATM    2  C8  UNL     1      32.264   5.706  48.362  1.00  0.00     0.236 C 
HETATM    3  O1  UNL     1      32.007   5.353  49.563  1.00  0.00    -0.272 OA
HETATM    4  H10 UNL     1      31.063   6.487  46.626  1.00  0.00     0.169 HD
ENDROOT
BRANCH   2   5
HETATM    5  C9  UNL     1      33.545   5.748  47.570  1.00  0.00     0.175 C 
HETATM    6  C10 UNL     1      34.693   5.797  48.518  1.00  0.00     0.111 C 
HETATM    7  N4  UNL     1      35.049   4.679  49.075  1.00  0.00    -0.287 NA
HETATM    8  N5  UNL     1      35.412   6.995  48.843  1.00  0.00    -0.354 N 
HETATM    9  H12 UNL     1      35.846   4.657  49.746  1.00  0.00     0.188 HD
HETATM   10  C11 UNL     1      35.175   8.175  48.077  1.00  0.00     0.087 C 
HETATM   11  H13 UNL     1      36.100   7.019  49.624  1.00  0.00     0.166 HD
HETATM   12  C12 UNL     1      34.297   8.084  47.105  1.00  0.00     0.018 C 
HETATM   13  C13 UNL     1      33.493   6.938  46.662  1.00  0.00     0.154 C 
BRANCH  13  14
HETATM   14  N6  UNL     1      33.910   6.482  45.336  1.00  0.00    -0.271 N 
HETATM   15  C14 UNL     1      33.958   5.056  45.137  1.00  0.00     0.113 C 
HETATM   16  C15 UNL     1      34.329   4.625  43.953  1.00  0.00     0.021 C 
HETATM   17  C16 UNL     1      34.654   5.637  42.961  1.00  0.00     0.037 C 
HETATM   18  C17 UNL     1      34.521   6.933  43.124  1.00  0.00     0.107 C 
HETATM   19  N7  UNL     1      34.248   7.374  44.298  1.00  0.00    -0.170 NA
ENDBRANCH  13  14
ENDBRANCH   2   5
BRANCH   1  20
HETATM   20  C7  UNL     1      29.790   6.250  48.003  1.00  0.00     0.034 A 
HETATM   21  C6  UNL     1      29.304   7.527  48.252  1.00  0.00     0.032 A 
HETATM   22  C5  UNL     1      27.996   7.743  48.637  1.00  0.00     0.031 A 
HETATM   23  C4  UNL     1      27.111   6.698  48.793  1.00  0.00     0.030 A 
HETATM   24  C19 UNL     1      27.619   5.437  48.539  1.00  0.00     0.031 A 
HETATM   25  C18 UNL     1      28.917   5.191  48.153  1.00  0.00     0.032 A 
BRANCH  23  26
HETATM   26  N2  UNL     1      25.758   6.889  49.188  1.00  0.00    -0.378 N 
HETATM   27  C3  UNL     1      24.664   5.986  48.893  1.00  0.00     0.153 C 
HETATM   28  C2  UNL     1      23.469   6.878  48.566  1.00  0.00     0.291 C 
HETATM   29  N1  UNL     1      23.042   7.432  49.826  1.00  0.00     0.087 N 
HETATM   30  C1  UNL     1      22.291   6.467  50.600  1.00  0.00     0.310 C 
HETATM   31  C21 UNL     1      24.084   8.074  50.561  1.00  0.00     0.291 C 
HETATM   32  C20 UNL     1      25.431   8.068  49.941  1.00  0.00     0.153 C 
ENDBRANCH  23  26
ENDBRANCH   1  20
TORSDOF 4
ENDMDL
MODEL 7
REMARK VINA RESULT:      -8.2      3.159      4.889
REMARK  4 active torsions:
REMARK  status: ('A' for Active; 'I' for Inactive)
REMARK    1  A    between atoms: N2_5  and  C4_6 
REMARK    2  A    between atoms: C7_9  and  N3_10 
REMARK       I    between atoms: N3_10  and  C8_11 
REMARK    3  A    between atoms: C8_11  and  C9_13 
REMARK    4  A    between atoms: C13_19  and  N6_20 
ROOT
HETATM    1  N3  UNL     1      25.346   3.997  49.939  1.00  0.00    -0.326 N 
HETATM    2  C8  UNL     1      24.107   3.530  49.461  1.00  0.00     0.236 C 
HETATM    3  O1  UNL     1      23.612   4.189  48.484  1.00  0.00    -0.272 OA
HETATM    4  H10 UNL     1      25.974   3.668  50.709  1.00  0.00     0.169 HD
ENDROOT
BRANCH   2   5
HETATM    5  C9  UNL     1      23.617   2.324  50.221  1.00  0.00     0.175 C 
HETATM    6  C10 UNL     1      22.180   2.104  49.896  1.00  0.00     0.111 C 
HETATM    7  N4  UNL     1      21.911   1.526  48.765  1.00  0.00    -0.287 NA
HETATM    8  N5  UNL     1      21.098   2.492  50.754  1.00  0.00    -0.354 N 
HETATM    9  H12 UNL     1      20.923   1.348  48.488  1.00  0.00     0.188 HD
HETATM   10  C11 UNL     1      21.386   2.921  52.083  1.00  0.00     0.087 C 
HETATM   11  H13 UNL     1      20.110   2.466  50.424  1.00  0.00     0.166 HD
HETATM   12  C12 UNL     1      22.649   2.933  52.442  1.00  0.00     0.018 C 
HETATM   13  C13 UNL     1      23.850   2.568  51.680  1.00  0.00     0.154 C 
BRANCH  13  14
HETATM   14  N6  UNL     1      24.471   1.359  52.221  1.00  0.00    -0.271 N 
HETATM   15  C14 UNL     1      25.850   1.136  51.868  1.00  0.00     0.113 C 
HETATM   16  C15 UNL     1      26.427   0.057  52.343  1.00  0.00     0.021 C 
HETATM   17  C16 UNL     1      25.611  -0.807  53.181  1.00  0.00     0.037 C 
HETATM   18  C17 UNL     1      24.383  -0.550  53.569  1.00  0.00     0.107 C 
HETATM   19  N7  UNL     1      23.775   0.450  53.044  1.00  0.00    -0.170 NA
ENDBRANCH  13  14
ENDBRANCH   2   5
BRANCH   1  20
HETATM   20  C7  UNL     1      26.125   5.102  49.487  1.00  0.00     0.034 A 
HETATM   21  C6  UNL     1      25.712   6.367  49.883  1.00  0.00     0.032 A 
HETATM   22  C5  UNL     1      26.393   7.506  49.502  1.00  0.00     0.031 A 
HETATM   23  C4  UNL     1      27.519   7.437  48.708  1.00  0.00     0.030 A 
HETATM   24  C19 UNL     1      27.910   6.166  48.328  1.00  0.00     0.031 A 
HETATM   25  C18 UNL     1      27.251   5.015  48.692  1.00  0.00     0.032 A 
BRANCH  23  26
HETATM   26  N2  UNL     1      28.242   8.592  48.300  1.00  0.00    -0.378 N 
HETATM   27  C3  UNL     1      28.600   8.915  46.934  1.00  0.00     0.153 C 
HETATM   28  C2  UNL     1      30.012   9.492  47.002  1.00  0.00     0.291 C 
HETATM   29  N1  UNL     1      29.867  10.807  47.572  1.00  0.00     0.087 N 
HETATM   30  C1  UNL     1      29.375  11.755  46.596  1.00  0.00     0.310 C 
HETATM   31  C21 UNL     1      29.151  10.830  48.808  1.00  0.00     0.291 C 
HETATM   32  C20 UNL     1      28.659   9.524  49.310  1.00  0.00     0.153 C 
ENDBRANCH  23  26
ENDBRANCH   1  20
TORSDOF 4
ENDMDL
MODEL 8
REMARK VINA RESULT:      -8.2      5.441     10.011
REMARK  4 active torsions:
REMARK  status: ('A' for Active; 'I' for Inactive)
REMARK    1  A    between atoms: N2_5  and  C4_6 
REMARK    2  A    between atoms: C7_9  and  N3_10 
REMARK       I    between atoms: N3_10  and  C8_11 
REMARK    3  A    between atoms: C8_11  and  C9_13 
REMARK    4  A    between atoms: C13_19  and  N6_20 
ROOT
HETATM    1  N3  UNL     1      20.845   1.108  52.036  1.00  0.00    -0.326 N 
HETATM    2  C8  UNL     1      21.063   2.464  52.345  1.00  0.00     0.236 C 
HETATM    3  O1  UNL     1      20.029   3.115  52.718  1.00  0.00    -0.272 OA
HETATM    4  H10 UNL     1      21.485   0.346  51.711  1.00  0.00     0.169 HD
ENDROOT
BRANCH   2   5
HETATM    5  C9  UNL     1      22.504   2.867  52.164  1.00  0.00     0.175 C 
HETATM    6  C10 UNL     1      22.554   4.303  51.771  1.00  0.00     0.111 C 
HETATM    7  N4  UNL     1      22.406   5.181  52.716  1.00  0.00    -0.287 NA
HETATM    8  N5  UNL     1      22.755   4.757  50.425  1.00  0.00    -0.354 N 
HETATM    9  H12 UNL     1      22.432   6.199  52.496  1.00  0.00     0.188 HD
HETATM   10  C11 UNL     1      23.137   3.815  49.425  1.00  0.00     0.087 C 
HETATM   11  H13 UNL     1      22.626   5.758  50.167  1.00  0.00     0.166 HD
HETATM   12  C12 UNL     1      23.284   2.569  49.810  1.00  0.00     0.018 C 
HETATM   13  C13 UNL     1      23.115   1.964  51.137  1.00  0.00     0.154 C 
BRANCH  13  14
HETATM   14  N6  UNL     1      24.396   1.508  51.677  1.00  0.00    -0.271 N 
HETATM   15  C14 UNL     1      24.341   0.425  52.625  1.00  0.00     0.113 C 
HETATM   16  C15 UNL     1      25.479   0.000  53.122  1.00  0.00     0.021 C 
HETATM   17  C16 UNL     1      26.685   0.670  52.662  1.00  0.00     0.037 C 
HETATM   18  C17 UNL     1      26.732   1.597  51.732  1.00  0.00     0.107 C 
HETATM   19  N7  UNL     1      25.626   2.085  51.303  1.00  0.00    -0.170 NA
ENDBRANCH  13  14
ENDBRANCH   2   5
BRANCH   1  20
HETATM   20  C7  UNL     1      19.631   0.360  52.081  1.00  0.00     0.034 A 
HETATM   21  C6  UNL     1      19.449  -0.478  53.173  1.00  0.00     0.032 A 
HETATM   22  C5  UNL     1      18.310  -1.246  53.316  1.00  0.00     0.031 A 
HETATM   23  C4  UNL     1      17.300  -1.215  52.378  1.00  0.00     0.030 A 
HETATM   24  C19 UNL     1      17.507  -0.373  51.300  1.00  0.00     0.031 A 
HETATM   25  C18 UNL     1      18.630   0.404  51.132  1.00  0.00     0.032 A 
BRANCH  23  26
HETATM   26  N2  UNL     1      16.117  -1.994  52.498  1.00  0.00    -0.378 N 
HETATM   27  C3  UNL     1      16.064  -3.374  52.939  1.00  0.00     0.153 C 
HETATM   28  C2  UNL     1      15.019  -4.050  52.056  1.00  0.00     0.291 C 
HETATM   29  N1  UNL     1      13.745  -3.561  52.517  1.00  0.00     0.087 N 
HETATM   30  C1  UNL     1      13.339  -4.214  53.742  1.00  0.00     0.310 C 
HETATM   31  C21 UNL     1      13.654  -2.136  52.567  1.00  0.00     0.291 C 
HETATM   32  C20 UNL     1      14.863  -1.382  52.158  1.00  0.00     0.153 C 
ENDBRANCH  23  26
ENDBRANCH   1  20
TORSDOF 4
ENDMDL
MODEL 9
REMARK VINA RESULT:      -8.2      4.633      9.683
REMARK  4 active torsions:
REMARK  status: ('A' for Active; 'I' for Inactive)
REMARK    1  A    between atoms: N2_5  and  C4_6 
REMARK    2  A    between atoms: C7_9  and  N3_10 
REMARK       I    between atoms: N3_10  and  C8_11 
REMARK    3  A    between atoms: C8_11  and  C9_13 
REMARK    4  A    between atoms: C13_19  and  N6_20 
ROOT
HETATM    1  N3  UNL     1      26.834   6.753  49.746  1.00  0.00    -0.326 N 
HETATM    2  C8  UNL     1      27.255   7.568  48.678  1.00  0.00     0.236 C 
HETATM    3  O1  UNL     1      26.563   7.472  47.608  1.00  0.00    -0.272 OA
HETATM    4  H10 UNL     1      27.198   6.621  50.719  1.00  0.00     0.169 HD
ENDROOT
BRANCH   2   5
HETATM    5  C9  UNL     1      28.460   8.400  49.034  1.00  0.00     0.175 C 
HETATM    6  C10 UNL     1      27.999   9.645  49.711  1.00  0.00     0.111 C 
HETATM    7  N4  UNL     1      27.668   9.551  50.963  1.00  0.00    -0.287 NA
HETATM    8  N5  UNL     1      27.903  10.920  49.061  1.00  0.00    -0.354 N 
HETATM    9  H12 UNL     1      27.339  10.390  51.484  1.00  0.00     0.188 HD
HETATM   10  C11 UNL     1      28.468  11.081  47.761  1.00  0.00     0.087 C 
HETATM   11  H13 UNL     1      27.429  11.727  49.519  1.00  0.00     0.166 HD
HETATM   12  C12 UNL     1      29.052  10.029  47.235  1.00  0.00     0.018 C 
HETATM   13  C13 UNL     1      29.225   8.675  47.776  1.00  0.00     0.154 C 
BRANCH  13  14
HETATM   14  N6  UNL     1      30.632   8.396  48.063  1.00  0.00    -0.271 N 
HETATM   15  C14 UNL     1      30.903   7.221  48.850  1.00  0.00     0.113 C 
HETATM   16  C15 UNL     1      32.159   6.951  49.119  1.00  0.00     0.021 C 
HETATM   17  C16 UNL     1      33.153   7.872  48.591  1.00  0.00     0.037 C 
HETATM   18  C17 UNL     1      32.903   8.890  47.800  1.00  0.00     0.107 C 
HETATM   19  N7  UNL     1      31.679   9.220  47.602  1.00  0.00    -0.170 NA
ENDBRANCH  13  14
ENDBRANCH   2   5
BRANCH   1  20
HETATM   20  C7  UNL     1      25.745   5.834  49.800  1.00  0.00     0.034 A 
HETATM   21  C6  UNL     1      26.014   4.518  49.448  1.00  0.00     0.032 A 
HETATM   22  C5  UNL     1      25.033   3.547  49.466  1.00  0.00     0.031 A 
HETATM   23  C4  UNL     1      23.738   3.841  49.834  1.00  0.00     0.030 A 
HETATM   24  C19 UNL     1      23.496   5.159  50.180  1.00  0.00     0.031 A 
HETATM   25  C18 UNL     1      24.453   6.146  50.172  1.00  0.00     0.032 A 
BRANCH  23  26
HETATM   26  N2  UNL     1      22.706   2.863  49.862  1.00  0.00    -0.378 N 
HETATM   27  C3  UNL     1      21.882   2.548  51.012  1.00  0.00     0.153 C 
HETATM   28  C2  UNL     1      21.713   1.031  50.996  1.00  0.00     0.291 C 
HETATM   29  N1  UNL     1      20.802   0.753  49.915  1.00  0.00     0.087 N 
HETATM   30  C1  UNL     1      19.435   1.044  50.288  1.00  0.00     0.310 C 
HETATM   31  C21 UNL     1      21.191   1.325  48.665  1.00  0.00     0.291 C 
HETATM   32  C20 UNL     1      22.445   2.117  48.663  1.00  0.00     0.153 C 
ENDBRANCH  23  26
ENDBRANCH   1  20
TORSDOF 4
ENDMDL
