MODEL 1
REMARK VINA RESULT:      -8.4      0.000      0.000
REMARK  4 active torsions:
REMARK  status: ('A' for Active; 'I' for Inactive)
REMARK    1  A    between atoms: O1_1  and  C1_2 
REMARK    2  A    between atoms: C3_5  and  N1_6 
REMARK    3  A    between atoms: C4_8  and  C5_9 
REMARK    4  A    between atoms: C12_16  and  C13_17 
ROOT
HETATM    1  N1  UNL     1      23.883   1.237  52.800  1.00  0.00    -0.236 N 
HETATM    2  N2  UNL     1      24.107   1.943  51.615  1.00  0.00    -0.173 NA
HETATM    3  C4  UNL     1      25.052   2.814  51.778  1.00  0.00     0.067 C 
HETATM    4  C11 UNL     1      25.554   2.741  53.176  1.00  0.00     0.094 C 
HETATM    5  C12 UNL     1      25.054   1.390  53.595  1.00  0.00     0.151 C 
ENDROOT
BRANCH   1   6
HETATM    6  C3  UNL     1      22.695   0.463  53.215  1.00  0.00     0.192 A 
HETATM    7  S1  UNL     1      21.132   0.927  52.359  1.00  0.00    -0.058 SA
HETATM    8  C2  UNL     1      20.177  -0.388  53.348  1.00  0.00     0.111 A 
HETATM    9  C1  UNL     1      21.201  -0.897  54.102  1.00  0.00     0.171 A 
HETATM   10  N3  UNL     1      22.432  -0.392  53.953  1.00  0.00    -0.198 NA
BRANCH   9  11
HETATM   11  O1  UNL     1      21.039  -1.936  55.042  1.00  0.00    -0.344 OA
HETATM   12  H1  UNL     1      21.520  -1.947  55.915  1.00  0.00     0.219 HD
ENDBRANCH   9  11
ENDBRANCH   1   6
BRANCH   5  13
HETATM   13  C13 UNL     1      26.107   0.373  53.374  1.00  0.00    -0.033 A 
HETATM   14  C14 UNL     1      27.437   0.633  53.722  1.00  0.00     0.009 A 
HETATM   15  C15 UNL     1      28.490  -0.244  53.558  1.00  0.00     0.001 A 
HETATM   16  C16 UNL     1      28.187  -1.476  53.000  1.00  0.00     0.000 A 
HETATM   17  C17 UNL     1      26.898  -1.789  52.638  1.00  0.00     0.001 A 
HETATM   18  C18 UNL     1      25.893  -0.870  52.829  1.00  0.00     0.009 A 
ENDBRANCH   5  13
BRANCH   3  19
HETATM   19  C5  UNL     1      25.538   3.718  50.744  1.00  0.00    -0.010 A 
HETATM   20  C6  UNL     1      26.667   3.400  50.019  1.00  0.00     0.013 A 
HETATM   21  C7  UNL     1      27.091   4.289  49.046  1.00  0.00     0.001 A 
HETATM   22  C8  UNL     1      26.453   5.491  48.747  1.00  0.00     0.000 A 
HETATM   23  C9  UNL     1      25.325   5.756  49.509  1.00  0.00     0.001 A 
HETATM   24  C10 UNL     1      24.880   4.897  50.477  1.00  0.00     0.013 A 
ENDBRANCH   3  19
TORSDOF 4
ENDMDL
MODEL 2
REMARK VINA RESULT:      -8.4      2.677      6.148
REMARK  4 active torsions:
REMARK  status: ('A' for Active; 'I' for Inactive)
REMARK    1  A    between atoms: O1_1  and  C1_2 
REMARK    2  A    between atoms: C3_5  and  N1_6 
REMARK    3  A    between atoms: C4_8  and  C5_9 
REMARK    4  A    between atoms: C12_16  and  C13_17 
ROOT
HETATM    1  N1  UNL     1      25.378   0.200  52.883  1.00  0.00    -0.236 N 
HETATM    2  N2  UNL     1      24.127  -0.341  52.578  1.00  0.00    -0.173 NA
HETATM    3  C4  UNL     1      23.185   0.497  52.879  1.00  0.00     0.067 C 
HETATM    4  C11 UNL     1      23.788   1.735  53.440  1.00  0.00     0.094 C 
HETATM    5  C12 UNL     1      25.205   1.611  52.964  1.00  0.00     0.151 C 
ENDROOT
BRANCH   1   6
HETATM    6  C3  UNL     1      26.668  -0.490  53.093  1.00  0.00     0.192 A 
HETATM    7  S1  UNL     1      28.044   0.596  53.659  1.00  0.00    -0.058 SA
HETATM    8  C2  UNL     1      29.230  -0.891  53.692  1.00  0.00     0.111 A 
HETATM    9  C1  UNL     1      28.373  -1.878  53.281  1.00  0.00     0.171 A 
HETATM   10  N3  UNL     1      27.101  -1.562  53.006  1.00  0.00    -0.198 NA
BRANCH   9  11
HETATM   11  O1  UNL     1      28.751  -3.228  53.127  1.00  0.00    -0.344 OA
HETATM   12  H1  UNL     1      29.001  -3.615  52.243  1.00  0.00     0.219 HD
ENDBRANCH   9  11
ENDBRANCH   1   6
BRANCH   5  13
HETATM   13  C13 UNL     1      25.374   2.344  51.689  1.00  0.00    -0.033 A 
HETATM   14  C14 UNL     1      24.322   3.092  51.149  1.00  0.00     0.009 A 
HETATM   15  C15 UNL     1      24.375   3.809  49.971  1.00  0.00     0.001 A 
HETATM   16  C16 UNL     1      25.576   3.774  49.280  1.00  0.00     0.000 A 
HETATM   17  C17 UNL     1      26.647   3.056  49.761  1.00  0.00     0.001 A 
HETATM   18  C18 UNL     1      26.528   2.362  50.943  1.00  0.00     0.009 A 
ENDBRANCH   5  13
BRANCH   3  19
HETATM   19  C5  UNL     1      21.761   0.251  52.690  1.00  0.00    -0.010 A 
HETATM   20  C6  UNL     1      21.019  -0.333  53.694  1.00  0.00     0.013 A 
HETATM   21  C7  UNL     1      19.669  -0.547  53.470  1.00  0.00     0.001 A 
HETATM   22  C8  UNL     1      19.006  -0.210  52.293  1.00  0.00     0.000 A 
HETATM   23  C9  UNL     1      19.804   0.373  51.321  1.00  0.00     0.001 A 
HETATM   24  C10 UNL     1      21.140   0.598  51.512  1.00  0.00     0.013 A 
ENDBRANCH   3  19
TORSDOF 4
ENDMDL
MODEL 3
REMARK VINA RESULT:      -8.3      2.958      6.242
REMARK  4 active torsions:
REMARK  status: ('A' for Active; 'I' for Inactive)
REMARK    1  A    between atoms: O1_1  and  C1_2 
REMARK    2  A    between atoms: C3_5  and  N1_6 
REMARK    3  A    between atoms: C4_8  and  C5_9 
REMARK    4  A    between atoms: C12_16  and  C13_17 
ROOT
HETATM    1  N1  UNL     1      25.435   2.498  51.731  1.00  0.00    -0.236 N 
HETATM    2  N2  UNL     1      26.372   1.472  51.581  1.00  0.00    -0.173 NA
HETATM    3  C4  UNL     1      26.541   0.846  52.703  1.00  0.00     0.067 C 
HETATM    4  C11 UNL     1      25.669   1.453  53.743  1.00  0.00     0.094 C 
HETATM    5  C12 UNL     1      24.676   2.193  52.895  1.00  0.00     0.151 C 
ENDROOT
BRANCH   1   6
HETATM    6  C3  UNL     1      25.217   3.693  50.889  1.00  0.00     0.192 A 
HETATM    7  S1  UNL     1      26.477   3.950  49.570  1.00  0.00    -0.058 SA
HETATM    8  C2  UNL     1      25.578   5.524  48.992  1.00  0.00     0.111 A 
HETATM    9  C1  UNL     1      24.539   5.536  49.885  1.00  0.00     0.171 A 
HETATM   10  N3  UNL     1      24.455   4.562  50.799  1.00  0.00    -0.198 NA
BRANCH   9  11
HETATM   11  O1  UNL     1      23.534   6.526  49.902  1.00  0.00    -0.344 OA
HETATM   12  H1  UNL     1      23.512   7.253  50.585  1.00  0.00     0.219 HD
ENDBRANCH   9  11
ENDBRANCH   1   6
BRANCH   5  13
HETATM   13  C13 UNL     1      23.481   1.349  52.669  1.00  0.00    -0.033 A 
HETATM   14  C14 UNL     1      23.204   0.260  53.503  1.00  0.00     0.009 A 
HETATM   15  C15 UNL     1      22.122  -0.586  53.378  1.00  0.00     0.001 A 
HETATM   16  C16 UNL     1      21.247  -0.321  52.335  1.00  0.00     0.000 A 
HETATM   17  C17 UNL     1      21.466   0.735  51.482  1.00  0.00     0.001 A 
HETATM   18  C18 UNL     1      22.565   1.542  51.662  1.00  0.00     0.009 A 
ENDBRANCH   5  13
BRANCH   3  19
HETATM   19  C5  UNL     1      27.447  -0.279  52.900  1.00  0.00    -0.010 A 
HETATM   20  C6  UNL     1      27.034  -1.561  52.607  1.00  0.00     0.013 A 
HETATM   21  C7  UNL     1      27.930  -2.598  52.809  1.00  0.00     0.001 A 
HETATM   22  C8  UNL     1      29.226  -2.434  53.292  1.00  0.00     0.000 A 
HETATM   23  C9  UNL     1      29.582  -1.123  53.570  1.00  0.00     0.001 A 
HETATM   24  C10 UNL     1      28.721  -0.077  53.379  1.00  0.00     0.013 A 
ENDBRANCH   3  19
TORSDOF 4
ENDMDL
MODEL 4
REMARK VINA RESULT:      -8.1      3.011      5.281
REMARK  4 active torsions:
REMARK  status: ('A' for Active; 'I' for Inactive)
REMARK    1  A    between atoms: O1_1  and  C1_2 
REMARK    2  A    between atoms: C3_5  and  N1_6 
REMARK    3  A    between atoms: C4_8  and  C5_9 
REMARK    4  A    between atoms: C12_16  and  C13_17 
ROOT
HETATM    1  N1  UNL     1      23.833   1.742  51.380  1.00  0.00    -0.236 N 
HETATM    2  N2  UNL     1      25.087   1.126  51.416  1.00  0.00    -0.173 NA
HETATM    3  C4  UNL     1      25.635   1.282  52.579  1.00  0.00     0.067 C 
HETATM    4  C11 UNL     1      24.722   2.064  53.454  1.00  0.00     0.094 C 
HETATM    5  C12 UNL     1      23.417   1.902  52.731  1.00  0.00     0.151 C 
ENDROOT
BRANCH   1   6
HETATM    6  C3  UNL     1      23.037   2.170  50.211  1.00  0.00     0.192 A 
HETATM    7  S1  UNL     1      23.729   3.605  49.287  1.00  0.00    -0.058 SA
HETATM    8  C2  UNL     1      22.275   3.540  48.061  1.00  0.00     0.111 A 
HETATM    9  C1  UNL     1      21.582   2.479  48.581  1.00  0.00     0.171 A 
HETATM   10  N3  UNL     1      22.059   1.861  49.669  1.00  0.00    -0.198 NA
BRANCH   9  11
HETATM   11  O1  UNL     1      20.378   1.988  48.035  1.00  0.00    -0.344 OA
HETATM   12  H1  UNL     1      19.543   2.532  48.007  1.00  0.00     0.219 HD
ENDBRANCH   9  11
ENDBRANCH   1   6
BRANCH   5  13
HETATM   13  C13 UNL     1      22.665   0.761  53.302  1.00  0.00    -0.033 A 
HETATM   14  C14 UNL     1      23.295  -0.164  54.142  1.00  0.00     0.009 A 
HETATM   15  C15 UNL     1      22.687  -1.258  54.723  1.00  0.00     0.001 A 
HETATM   16  C16 UNL     1      21.342  -1.439  54.441  1.00  0.00     0.000 A 
HETATM   17  C17 UNL     1      20.667  -0.563  53.623  1.00  0.00     0.001 A 
HETATM   18  C18 UNL     1      21.333   0.509  53.075  1.00  0.00     0.009 A 
ENDBRANCH   5  13
BRANCH   3  19
HETATM   19  C5  UNL     1      26.944   0.766  52.959  1.00  0.00    -0.010 A 
HETATM   20  C6  UNL     1      27.211  -0.583  52.865  1.00  0.00     0.013 A 
HETATM   21  C7  UNL     1      28.469  -1.028  53.236  1.00  0.00     0.001 A 
HETATM   22  C8  UNL     1      29.489  -0.201  53.701  1.00  0.00     0.000 A 
HETATM   23  C9  UNL     1      29.161   1.144  53.774  1.00  0.00     0.001 A 
HETATM   24  C10 UNL     1      27.927   1.614  53.414  1.00  0.00     0.013 A 
ENDBRANCH   3  19
TORSDOF 4
ENDMDL
MODEL 5
REMARK VINA RESULT:      -7.8      3.075      7.103
REMARK  4 active torsions:
REMARK  status: ('A' for Active; 'I' for Inactive)
REMARK    1  A    between atoms: O1_1  and  C1_2 
REMARK    2  A    between atoms: C3_5  and  N1_6 
REMARK    3  A    between atoms: C4_8  and  C5_9 
REMARK    4  A    between atoms: C12_16  and  C13_17 
ROOT
HETATM    1  N1  UNL     1      23.034   1.097  52.776  1.00  0.00    -0.236 N 
HETATM    2  N2  UNL     1      22.108   0.057  52.890  1.00  0.00    -0.173 NA
HETATM    3  C4  UNL     1      20.899   0.514  52.789  1.00  0.00     0.067 C 
HETATM    4  C11 UNL     1      20.944   1.987  52.586  1.00  0.00     0.094 C 
HETATM    5  C12 UNL     1      22.363   2.175  52.134  1.00  0.00     0.151 C 
ENDROOT
BRANCH   1   6
HETATM    6  C3  UNL     1      24.446   1.141  53.210  1.00  0.00     0.192 A 
HETATM    7  S1  UNL     1      25.188  -0.500  53.595  1.00  0.00    -0.058 SA
HETATM    8  C2  UNL     1      26.844   0.329  54.031  1.00  0.00     0.111 A 
HETATM    9  C1  UNL     1      26.512   1.639  53.803  1.00  0.00     0.171 A 
HETATM   10  N3  UNL     1      25.273   1.934  53.390  1.00  0.00    -0.198 NA
BRANCH   9  11
HETATM   11  O1  UNL     1      27.407   2.714  53.979  1.00  0.00    -0.344 OA
HETATM   12  H1  UNL     1      27.122   3.590  54.362  1.00  0.00     0.219 HD
ENDBRANCH   9  11
ENDBRANCH   1   6
BRANCH   5  13
HETATM   13  C13 UNL     1      22.423   2.170  50.655  1.00  0.00    -0.033 A 
HETATM   14  C14 UNL     1      21.546   1.378  49.905  1.00  0.00     0.009 A 
HETATM   15  C15 UNL     1      21.521   1.301  48.527  1.00  0.00     0.001 A 
HETATM   16  C16 UNL     1      22.447   2.077  47.848  1.00  0.00     0.000 A 
HETATM   17  C17 UNL     1      23.335   2.876  48.530  1.00  0.00     0.001 A 
HETATM   18  C18 UNL     1      23.308   2.907  49.905  1.00  0.00     0.009 A 
ENDBRANCH   5  13
BRANCH   3  19
HETATM   19  C5  UNL     1      19.693  -0.299  52.863  1.00  0.00    -0.010 A 
HETATM   20  C6  UNL     1      19.631  -1.370  53.730  1.00  0.00     0.013 A 
HETATM   21  C7  UNL     1      18.464  -2.114  53.767  1.00  0.00     0.001 A 
HETATM   22  C8  UNL     1      17.341  -1.855  52.984  1.00  0.00     0.000 A 
HETATM   23  C9  UNL     1      17.464  -0.768  52.132  1.00  0.00     0.001 A 
HETATM   24  C10 UNL     1      18.603  -0.012  52.073  1.00  0.00     0.013 A 
ENDBRANCH   3  19
TORSDOF 4
ENDMDL
MODEL 6
REMARK VINA RESULT:      -7.8      3.385      6.589
REMARK  4 active torsions:
REMARK  status: ('A' for Active; 'I' for Inactive)
REMARK    1  A    between atoms: O1_1  and  C1_2 
REMARK    2  A    between atoms: C3_5  and  N1_6 
REMARK    3  A    between atoms: C4_8  and  C5_9 
REMARK    4  A    between atoms: C12_16  and  C13_17 
ROOT
HETATM    1  N1  UNL     1      22.108   2.750  51.742  1.00  0.00    -0.236 N 
HETATM    2  N2  UNL     1      20.929   2.225  52.276  1.00  0.00    -0.173 NA
HETATM    3  C4  UNL     1      20.749   1.008  51.868  1.00  0.00     0.067 C 
HETATM    4  C11 UNL     1      21.873   0.616  50.976  1.00  0.00     0.094 C 
HETATM    5  C12 UNL     1      22.906   1.641  51.341  1.00  0.00     0.151 C 
ENDROOT
BRANCH   1   6
HETATM    6  C3  UNL     1      22.517   4.162  51.590  1.00  0.00     0.192 A 
HETATM    7  S1  UNL     1      21.368   5.197  50.590  1.00  0.00    -0.058 SA
HETATM    8  C2  UNL     1      22.485   6.716  50.844  1.00  0.00     0.111 A 
HETATM    9  C1  UNL     1      23.470   6.152  51.611  1.00  0.00     0.171 A 
HETATM   10  N3  UNL     1      23.385   4.854  51.928  1.00  0.00    -0.198 NA
BRANCH   9  11
HETATM   11  O1  UNL     1      24.588   6.862  52.095  1.00  0.00    -0.344 OA
HETATM   12  H1  UNL     1      25.340   6.414  52.573  1.00  0.00     0.219 HD
ENDBRANCH   9  11
ENDBRANCH   1   6
BRANCH   5  13
HETATM   13  C13 UNL     1      23.805   1.098  52.384  1.00  0.00    -0.033 A 
HETATM   14  C14 UNL     1      24.947   1.802  52.783  1.00  0.00     0.009 A 
HETATM   15  C15 UNL     1      25.847   1.385  53.742  1.00  0.00     0.001 A 
HETATM   16  C16 UNL     1      25.583   0.167  54.349  1.00  0.00     0.000 A 
HETATM   17  C17 UNL     1      24.476  -0.571  54.000  1.00  0.00     0.001 A 
HETATM   18  C18 UNL     1      23.617  -0.098  53.035  1.00  0.00     0.009 A 
ENDBRANCH   5  13
BRANCH   3  19
HETATM   19  C5  UNL     1      19.617   0.166  52.234  1.00  0.00    -0.010 A 
HETATM   20  C6  UNL     1      18.448   0.221  51.506  1.00  0.00     0.013 A 
HETATM   21  C7  UNL     1      17.399  -0.598  51.891  1.00  0.00     0.001 A 
HETATM   22  C8  UNL     1      17.445  -1.478  52.969  1.00  0.00     0.000 A 
HETATM   23  C9  UNL     1      18.645  -1.487  53.663  1.00  0.00     0.001 A 
HETATM   24  C10 UNL     1      19.700  -0.691  53.307  1.00  0.00     0.013 A 
ENDBRANCH   3  19
TORSDOF 4
ENDMDL
MODEL 7
REMARK VINA RESULT:      -7.6      2.303      2.832
REMARK  4 active torsions:
REMARK  status: ('A' for Active; 'I' for Inactive)
REMARK    1  A    between atoms: O1_1  and  C1_2 
REMARK    2  A    between atoms: C3_5  and  N1_6 
REMARK    3  A    between atoms: C4_8  and  C5_9 
REMARK    4  A    between atoms: C12_16  and  C13_17 
ROOT
HETATM    1  N1  UNL     1      22.851   2.616  51.031  1.00  0.00    -0.236 N 
HETATM    2  N2  UNL     1      23.635   3.182  50.022  1.00  0.00    -0.173 NA
HETATM    3  C4  UNL     1      24.590   3.892  50.534  1.00  0.00     0.067 C 
HETATM    4  C11 UNL     1      24.501   3.841  52.018  1.00  0.00     0.094 C 
HETATM    5  C12 UNL     1      23.639   2.629  52.216  1.00  0.00     0.151 C 
ENDROOT
BRANCH   1   6
HETATM    6  C3  UNL     1      21.474   2.087  50.956  1.00  0.00     0.192 A 
HETATM    7  S1  UNL     1      20.634   1.884  52.583  1.00  0.00    -0.058 SA
HETATM    8  C2  UNL     1      19.072   1.228  51.716  1.00  0.00     0.111 A 
HETATM    9  C1  UNL     1      19.488   1.293  50.412  1.00  0.00     0.171 A 
HETATM   10  N3  UNL     1      20.720   1.742  50.144  1.00  0.00    -0.198 NA
BRANCH   9  11
HETATM   11  O1  UNL     1      18.688   0.910  49.316  1.00  0.00    -0.344 OA
HETATM   12  H1  UNL     1      17.912   1.454  49.005  1.00  0.00     0.219 HD
ENDBRANCH   9  11
ENDBRANCH   1   6
BRANCH   5  13
HETATM   13  C13 UNL     1      24.490   1.436  52.425  1.00  0.00    -0.033 A 
HETATM   14  C14 UNL     1      24.039   0.360  53.198  1.00  0.00     0.009 A 
HETATM   15  C15 UNL     1      24.752  -0.793  53.453  1.00  0.00     0.001 A 
HETATM   16  C16 UNL     1      26.016  -0.876  52.890  1.00  0.00     0.000 A 
HETATM   17  C17 UNL     1      26.514   0.149  52.120  1.00  0.00     0.001 A 
HETATM   18  C18 UNL     1      25.751   1.273  51.903  1.00  0.00     0.009 A 
ENDBRANCH   5  13
BRANCH   3  19
HETATM   19  C5  UNL     1      25.590   4.621  49.765  1.00  0.00    -0.010 A 
HETATM   20  C6  UNL     1      26.758   3.997  49.379  1.00  0.00     0.013 A 
HETATM   21  C7  UNL     1      27.679   4.729  48.649  1.00  0.00     0.001 A 
HETATM   22  C8  UNL     1      27.507   6.060  48.276  1.00  0.00     0.000 A 
HETATM   23  C9  UNL     1      26.316   6.632  48.693  1.00  0.00     0.001 A 
HETATM   24  C10 UNL     1      25.385   5.936  49.415  1.00  0.00     0.013 A 
ENDBRANCH   3  19
TORSDOF 4
ENDMDL
MODEL 8
REMARK VINA RESULT:      -7.6      2.787      3.509
REMARK  4 active torsions:
REMARK  status: ('A' for Active; 'I' for Inactive)
REMARK    1  A    between atoms: O1_1  and  C1_2 
REMARK    2  A    between atoms: C3_5  and  N1_6 
REMARK    3  A    between atoms: C4_8  and  C5_9 
REMARK    4  A    between atoms: C12_16  and  C13_17 
ROOT
HETATM    1  N1  UNL     1      22.052   3.453  51.271  1.00  0.00    -0.236 N 
HETATM    2  N2  UNL     1      22.962   3.764  50.257  1.00  0.00    -0.173 NA
HETATM    3  C4  UNL     1      24.051   4.255  50.760  1.00  0.00     0.067 C 
HETATM    4  C11 UNL     1      23.931   4.304  52.241  1.00  0.00     0.094 C 
HETATM    5  C12 UNL     1      22.803   3.342  52.475  1.00  0.00     0.151 C 
ENDROOT
BRANCH   1   6
HETATM    6  C3  UNL     1      20.590   3.261  51.185  1.00  0.00     0.192 A 
HETATM    7  S1  UNL     1      20.042   2.050  49.910  1.00  0.00    -0.058 SA
HETATM    8  C2  UNL     1      18.223   2.344  50.386  1.00  0.00     0.111 A 
HETATM    9  C1  UNL     1      18.392   3.269  51.382  1.00  0.00     0.171 A 
HETATM   10  N3  UNL     1      19.632   3.660  51.703  1.00  0.00    -0.198 NA
BRANCH   9  11
HETATM   11  O1  UNL     1      17.326   3.845  52.103  1.00  0.00    -0.344 OA
HETATM   12  H1  UNL     1      17.470   4.394  52.923  1.00  0.00     0.219 HD
ENDBRANCH   9  11
ENDBRANCH   1   6
BRANCH   5  13
HETATM   13  C13 UNL     1      23.344   1.995  52.763  1.00  0.00    -0.033 A 
HETATM   14  C14 UNL     1      24.709   1.808  53.008  1.00  0.00     0.009 A 
HETATM   15  C15 UNL     1      25.312   0.598  53.284  1.00  0.00     0.001 A 
HETATM   16  C16 UNL     1      24.482  -0.512  53.318  1.00  0.00     0.000 A 
HETATM   17  C17 UNL     1      23.132  -0.392  53.085  1.00  0.00     0.001 A 
HETATM   18  C18 UNL     1      22.593   0.845  52.815  1.00  0.00     0.009 A 
ENDBRANCH   5  13
BRANCH   3  19
HETATM   19  C5  UNL     1      25.207   4.685  49.984  1.00  0.00    -0.010 A 
HETATM   20  C6  UNL     1      26.233   3.803  49.721  1.00  0.00     0.013 A 
HETATM   21  C7  UNL     1      27.311   4.256  48.979  1.00  0.00     0.001 A 
HETATM   22  C8  UNL     1      27.430   5.550  48.476  1.00  0.00     0.000 A 
HETATM   23  C9  UNL     1      26.369   6.390  48.774  1.00  0.00     0.001 A 
HETATM   24  C10 UNL     1      25.289   5.972  49.504  1.00  0.00     0.013 A 
ENDBRANCH   3  19
TORSDOF 4
ENDMDL
MODEL 9
REMARK VINA RESULT:      -7.6      3.174      5.949
REMARK  4 active torsions:
REMARK  status: ('A' for Active; 'I' for Inactive)
REMARK    1  A    between atoms: O1_1  and  C1_2 
REMARK    2  A    between atoms: C3_5  and  N1_6 
REMARK    3  A    between atoms: C4_8  and  C5_9 
REMARK    4  A    between atoms: C12_16  and  C13_17 
ROOT
HETATM    1  N1  UNL     1      24.411   3.473  50.979  1.00  0.00    -0.236 N 
HETATM    2  N2  UNL     1      25.217   3.069  52.047  1.00  0.00    -0.173 NA
HETATM    3  C4  UNL     1      26.182   2.314  51.625  1.00  0.00     0.067 C 
HETATM    4  C11 UNL     1      26.076   2.155  50.151  1.00  0.00     0.094 C 
HETATM    5  C12 UNL     1      25.186   3.310  49.797  1.00  0.00     0.151 C 
ENDROOT
BRANCH   1   6
HETATM    6  C3  UNL     1      23.023   3.980  50.997  1.00  0.00     0.192 A 
HETATM    7  S1  UNL     1      21.834   2.943  51.948  1.00  0.00    -0.058 SA
HETATM    8  C2  UNL     1      20.421   4.147  51.529  1.00  0.00     0.111 A 
HETATM    9  C1  UNL     1      21.113   5.062  50.779  1.00  0.00     0.171 A 
HETATM   10  N3  UNL     1      22.423   4.878  50.575  1.00  0.00    -0.198 NA
BRANCH   9  11
HETATM   11  O1  UNL     1      20.523   6.204  50.199  1.00  0.00    -0.344 OA
HETATM   12  H1  UNL     1      19.560   6.235  49.942  1.00  0.00     0.219 HD
ENDBRANCH   9  11
ENDBRANCH   1   6
BRANCH   5  13
HETATM   13  C13 UNL     1      26.009   4.479  49.412  1.00  0.00    -0.033 A 
HETATM   14  C14 UNL     1      27.288   4.308  48.871  1.00  0.00     0.009 A 
HETATM   15  C15 UNL     1      28.133   5.327  48.481  1.00  0.00     0.001 A 
HETATM   16  C16 UNL     1      27.659   6.619  48.648  1.00  0.00     0.000 A 
HETATM   17  C17 UNL     1      26.410   6.851  49.174  1.00  0.00     0.001 A 
HETATM   18  C18 UNL     1      25.617   5.789  49.543  1.00  0.00     0.009 A 
ENDBRANCH   5  13
BRANCH   3  19
HETATM   19  C5  UNL     1      27.206   1.720  52.476  1.00  0.00    -0.010 A 
HETATM   20  C6  UNL     1      27.315   0.349  52.575  1.00  0.00     0.013 A 
HETATM   21  C7  UNL     1      28.303  -0.170  53.395  1.00  0.00     0.001 A 
HETATM   22  C8  UNL     1      29.201   0.601  54.130  1.00  0.00     0.000 A 
HETATM   23  C9  UNL     1      29.041   1.971  53.989  1.00  0.00     0.001 A 
HETATM   24  C10 UNL     1      28.075   2.515  53.187  1.00  0.00     0.013 A 
ENDBRANCH   3  19
TORSDOF 4
ENDMDL
