MODEL 1
REMARK VINA RESULT:      -8.6      0.000      0.000
REMARK  3 active torsions:
REMARK  status: ('A' for Active; 'I' for Inactive)
REMARK    1  A    between atoms: C3_3  and  C4_4 
REMARK    2  A    between atoms: C5_5  and  C6_6 
REMARK    3  A    between atoms: C6_6  and  N1_7 
ROOT
HETATM    1  N1  UNL     1      24.790  -0.696  53.739  1.00  0.00    -0.270 N 
HETATM    2  N2  UNL     1      25.246  -1.124  55.001  1.00  0.00    -0.168 NA
HETATM    3  C7  UNL     1      24.374  -1.425  55.929  1.00  0.00     0.257 A 
HETATM    4  N3  UNL     1      22.968  -1.342  55.737  1.00  0.00    -0.216 NA
HETATM    5  C8  UNL     1      22.552  -0.939  54.558  1.00  0.00     0.191 A 
HETATM    6  O1  UNL     1      21.144  -0.937  54.604  1.00  0.00    -0.291 OA
HETATM    7  C9  UNL     1      20.310  -0.604  53.542  1.00  0.00     0.085 A 
HETATM    8  C10 UNL     1      19.040  -1.188  53.470  1.00  0.00     0.039 A 
HETATM    9  C11 UNL     1      18.188  -0.898  52.455  1.00  0.00     0.022 A 
HETATM   10  C12 UNL     1      18.519  -0.031  51.461  1.00  0.00     0.011 A 
HETATM   11 BR1  UNL     1      17.345   0.405  50.015  1.00  0.00    -0.051 Br
HETATM   12  C13 UNL     1      19.766   0.558  51.509  1.00  0.00     0.030 A 
HETATM   13  C14 UNL     1      20.692   0.299  52.532  1.00  0.00    -0.006 A 
HETATM   14  C15 UNL     1      21.925   1.090  52.287  1.00  0.00     0.158 C 
HETATM   15  N4  UNL     1      23.126   0.677  52.817  1.00  0.00    -0.390 N 
HETATM   16  C16 UNL     1      23.390  -0.556  53.398  1.00  0.00     0.276 A 
HETATM   17  H16 UNL     1      23.743   1.396  53.253  1.00  0.00     0.156 HD
ENDROOT
BRANCH   1  18
HETATM   18  C6  UNL     1      25.794  -0.393  52.738  1.00  0.00     0.174 C 
BRANCH  18  19
HETATM   19  C5  UNL     1      26.937  -1.338  52.804  1.00  0.00    -0.009 C 
HETATM   20  C4  UNL     1      28.266  -1.263  53.061  1.00  0.00    -0.023 C 
BRANCH  20  21
HETATM   21  C3  UNL     1      28.425   0.157  53.308  1.00  0.00     0.020 C 
HETATM   22  C2  UNL     1      29.058   1.090  54.046  1.00  0.00    -0.006 C 
HETATM   23  C1  UNL     1      28.675   2.476  53.703  1.00  0.00     0.011 C 
ENDBRANCH  20  21
ENDBRANCH  18  19
ENDBRANCH   1  18
TORSDOF 3
ENDMDL
MODEL 2
REMARK VINA RESULT:      -8.0      1.584      1.933
REMARK  3 active torsions:
REMARK  status: ('A' for Active; 'I' for Inactive)
REMARK    1  A    between atoms: C3_3  and  C4_4 
REMARK    2  A    between atoms: C5_5  and  C6_6 
REMARK    3  A    between atoms: C6_6  and  N1_7 
ROOT
HETATM    1  N1  UNL     1      24.676  -0.471  53.571  1.00  0.00    -0.270 N 
HETATM    2  N2  UNL     1      25.306  -0.897  54.757  1.00  0.00    -0.168 NA
HETATM    3  C7  UNL     1      24.574  -1.347  55.744  1.00  0.00     0.257 A 
HETATM    4  N3  UNL     1      23.156  -1.431  55.692  1.00  0.00    -0.216 NA
HETATM    5  C8  UNL     1      22.578  -1.028  54.583  1.00  0.00     0.191 A 
HETATM    6  O1  UNL     1      21.192  -1.204  54.763  1.00  0.00    -0.291 OA
HETATM    7  C9  UNL     1      20.220  -0.929  53.806  1.00  0.00     0.085 A 
HETATM    8  C10 UNL     1      19.029  -1.662  53.821  1.00  0.00     0.039 A 
HETATM    9  C11 UNL     1      18.050  -1.434  52.910  1.00  0.00     0.022 A 
HETATM   10  C12 UNL     1      18.173  -0.488  51.941  1.00  0.00     0.011 A 
HETATM   11 BR1  UNL     1      16.815  -0.135  50.641  1.00  0.00    -0.051 Br
HETATM   12  C13 UNL     1      19.339   0.250  51.905  1.00  0.00     0.030 A 
HETATM   13  C14 UNL     1      20.388   0.061  52.819  1.00  0.00    -0.006 A 
HETATM   14  C15 UNL     1      21.486   1.010  52.504  1.00  0.00     0.158 C 
HETATM   15  N4  UNL     1      22.776   0.725  52.893  1.00  0.00    -0.390 N 
HETATM   16  C16 UNL     1      23.243  -0.491  53.373  1.00  0.00     0.276 A 
HETATM   17  H16 UNL     1      23.343   1.495  53.310  1.00  0.00     0.156 HD
ENDROOT
BRANCH   1  18
HETATM   18  C6  UNL     1      25.530   0.001  52.499  1.00  0.00     0.174 C 
BRANCH  18  19
HETATM   19  C5  UNL     1      26.699   0.753  53.020  1.00  0.00    -0.009 C 
HETATM   20  C4  UNL     1      27.318   1.928  52.747  1.00  0.00    -0.023 C 
BRANCH  20  21
HETATM   21  C3  UNL     1      26.502   2.430  51.659  1.00  0.00     0.020 C 
HETATM   22  C2  UNL     1      26.497   2.847  50.377  1.00  0.00    -0.006 C 
HETATM   23  C1  UNL     1      25.160   3.250  49.892  1.00  0.00     0.011 C 
ENDBRANCH  20  21
ENDBRANCH  18  19
ENDBRANCH   1  18
TORSDOF 3
ENDMDL
MODEL 3
REMARK VINA RESULT:      -7.9      3.811      4.855
REMARK  3 active torsions:
REMARK  status: ('A' for Active; 'I' for Inactive)
REMARK    1  A    between atoms: C3_3  and  C4_4 
REMARK    2  A    between atoms: C5_5  and  C6_6 
REMARK    3  A    between atoms: C6_6  and  N1_7 
ROOT
HETATM    1  N1  UNL     1      25.822   2.532  51.048  1.00  0.00    -0.270 N 
HETATM    2  N2  UNL     1      27.142   2.500  51.541  1.00  0.00    -0.168 NA
HETATM    3  C7  UNL     1      27.404   1.813  52.623  1.00  0.00     0.257 A 
HETATM    4  N3  UNL     1      26.420   1.085  53.345  1.00  0.00    -0.216 NA
HETATM    5  C8  UNL     1      25.192   1.123  52.880  1.00  0.00     0.191 A 
HETATM    6  O1  UNL     1      24.406   0.340  53.747  1.00  0.00    -0.291 OA
HETATM    7  C9  UNL     1      23.046   0.092  53.589  1.00  0.00     0.085 A 
HETATM    8  C10 UNL     1      22.514  -1.104  54.082  1.00  0.00     0.039 A 
HETATM    9  C11 UNL     1      21.195  -1.395  53.953  1.00  0.00     0.022 A 
HETATM   10  C12 UNL     1      20.326  -0.546  53.344  1.00  0.00     0.011 A 
HETATM   11 BR1  UNL     1      18.460  -0.919  53.145  1.00  0.00    -0.051 Br
HETATM   12  C13 UNL     1      20.826   0.641  52.849  1.00  0.00     0.030 A 
HETATM   13  C14 UNL     1      22.179   1.000  52.950  1.00  0.00    -0.006 A 
HETATM   14  C15 UNL     1      22.381   2.330  52.323  1.00  0.00     0.158 C 
HETATM   15  N4  UNL     1      23.624   2.688  51.850  1.00  0.00    -0.390 N 
HETATM   16  C16 UNL     1      24.714   1.847  51.679  1.00  0.00     0.276 A 
HETATM   17  H16 UNL     1      23.967   3.652  52.055  1.00  0.00     0.156 HD
ENDROOT
BRANCH   1  18
HETATM   18  C6  UNL     1      25.585   3.291  49.836  1.00  0.00     0.174 C 
BRANCH  18  19
HETATM   19  C5  UNL     1      26.853   3.781  49.239  1.00  0.00    -0.009 C 
HETATM   20  C4  UNL     1      27.323   4.953  48.745  1.00  0.00    -0.023 C 
BRANCH  20  21
HETATM   21  C3  UNL     1      26.172   5.817  48.927  1.00  0.00     0.020 C 
HETATM   22  C2  UNL     1      25.364   6.725  48.345  1.00  0.00    -0.006 C 
HETATM   23  C1  UNL     1      24.294   7.222  49.236  1.00  0.00     0.011 C 
ENDBRANCH  20  21
ENDBRANCH  18  19
ENDBRANCH   1  18
TORSDOF 3
ENDMDL
MODEL 4
REMARK VINA RESULT:      -7.9      3.476      7.420
REMARK  3 active torsions:
REMARK  status: ('A' for Active; 'I' for Inactive)
REMARK    1  A    between atoms: C3_3  and  C4_4 
REMARK    2  A    between atoms: C5_5  and  C6_6 
REMARK    3  A    between atoms: C6_6  and  N1_7 
ROOT
HETATM    1  N1  UNL     1      22.268   1.679  51.522  1.00  0.00    -0.270 N 
HETATM    2  N2  UNL     1      21.597   2.913  51.620  1.00  0.00    -0.168 NA
HETATM    3  C7  UNL     1      22.196   3.923  52.198  1.00  0.00     0.257 A 
HETATM    4  N3  UNL     1      23.505   3.847  52.745  1.00  0.00    -0.216 NA
HETATM    5  C8  UNL     1      24.121   2.691  52.653  1.00  0.00     0.191 A 
HETATM    6  O1  UNL     1      25.384   2.856  53.254  1.00  0.00    -0.291 OA
HETATM    7  C9  UNL     1      26.366   1.874  53.336  1.00  0.00     0.085 A 
HETATM    8  C10 UNL     1      27.710   2.261  53.372  1.00  0.00     0.039 A 
HETATM    9  C11 UNL     1      28.705   1.342  53.451  1.00  0.00     0.022 A 
HETATM   10  C12 UNL     1      28.453   0.007  53.499  1.00  0.00     0.011 A 
HETATM   11 BR1  UNL     1      29.828  -1.317  53.612  1.00  0.00    -0.051 Br
HETATM   12  C13 UNL     1      27.135  -0.400  53.465  1.00  0.00     0.030 A 
HETATM   13  C14 UNL     1      26.061   0.499  53.383  1.00  0.00    -0.006 A 
HETATM   14  C15 UNL     1      24.786  -0.261  53.368  1.00  0.00     0.158 C 
HETATM   15  N4  UNL     1      23.656   0.298  52.814  1.00  0.00    -0.390 N 
HETATM   16  C16 UNL     1      23.600   1.447  52.039  1.00  0.00     0.276 A 
HETATM   17  H16 UNL     1      22.754   0.192  53.328  1.00  0.00     0.156 HD
ENDROOT
BRANCH   1  18
HETATM   18  C6  UNL     1      21.571   0.595  50.856  1.00  0.00     0.174 C 
BRANCH  18  19
HETATM   19  C5  UNL     1      20.098   0.745  50.961  1.00  0.00    -0.009 C 
HETATM   20  C4  UNL     1      19.126   0.357  51.822  1.00  0.00    -0.023 C 
BRANCH  20  21
HETATM   21  C3  UNL     1      19.899  -0.364  52.814  1.00  0.00     0.020 C 
HETATM   22  C2  UNL     1      20.337  -0.371  54.089  1.00  0.00    -0.006 C 
HETATM   23  C1  UNL     1      21.164  -1.549  54.424  1.00  0.00     0.011 C 
ENDBRANCH  20  21
ENDBRANCH  18  19
ENDBRANCH   1  18
TORSDOF 3
ENDMDL
MODEL 5
REMARK VINA RESULT:      -7.7      4.118      6.947
REMARK  3 active torsions:
REMARK  status: ('A' for Active; 'I' for Inactive)
REMARK    1  A    between atoms: C3_3  and  C4_4 
REMARK    2  A    between atoms: C5_5  and  C6_6 
REMARK    3  A    between atoms: C6_6  and  N1_7 
ROOT
HETATM    1  N1  UNL     1      24.070   0.578  52.908  1.00  0.00    -0.270 N 
HETATM    2  N2  UNL     1      24.936  -0.459  53.307  1.00  0.00    -0.168 NA
HETATM    3  C7  UNL     1      26.142  -0.515  52.801  1.00  0.00     0.257 A 
HETATM    4  N3  UNL     1      26.638   0.422  51.855  1.00  0.00    -0.216 NA
HETATM    5  C8  UNL     1      25.821   1.383  51.486  1.00  0.00     0.191 A 
HETATM    6  O1  UNL     1      26.523   2.176  50.558  1.00  0.00    -0.291 OA
HETATM    7  C9  UNL     1      26.024   3.322  49.948  1.00  0.00     0.085 A 
HETATM    8  C10 UNL     1      26.918   4.327  49.562  1.00  0.00     0.039 A 
HETATM    9  C11 UNL     1      26.484   5.465  48.964  1.00  0.00     0.022 A 
HETATM   10  C12 UNL     1      25.167   5.689  48.710  1.00  0.00     0.011 A 
HETATM   11 BR1  UNL     1      24.517   7.279  47.868  1.00  0.00    -0.051 Br
HETATM   12  C13 UNL     1      24.265   4.713  49.082  1.00  0.00     0.030 A 
HETATM   13  C14 UNL     1      24.651   3.515  49.703  1.00  0.00    -0.006 A 
HETATM   14  C15 UNL     1      23.445   2.691  49.967  1.00  0.00     0.158 C 
HETATM   15  N4  UNL     1      23.461   1.744  50.966  1.00  0.00    -0.390 N 
HETATM   16  C16 UNL     1      24.431   1.600  51.949  1.00  0.00     0.276 A 
HETATM   17  H16 UNL     1      23.042   0.810  50.764  1.00  0.00     0.156 HD
ENDROOT
BRANCH   1  18
HETATM   18  C6  UNL     1      22.751   0.610  53.511  1.00  0.00     0.174 C 
BRANCH  18  19
HETATM   19  C5  UNL     1      22.502  -0.591  54.348  1.00  0.00    -0.009 C 
HETATM   20  C4  UNL     1      21.493  -1.478  54.525  1.00  0.00    -0.023 C 
BRANCH  20  21
HETATM   21  C3  UNL     1      20.507  -0.974  53.588  1.00  0.00     0.020 C 
HETATM   22  C2  UNL     1      19.200  -0.716  53.385  1.00  0.00    -0.006 C 
HETATM   23  C1  UNL     1      18.910  -0.151  52.051  1.00  0.00     0.011 C 
ENDBRANCH  20  21
ENDBRANCH  18  19
ENDBRANCH   1  18
TORSDOF 3
ENDMDL
MODEL 6
REMARK VINA RESULT:      -7.3      2.657      3.547
REMARK  3 active torsions:
REMARK  status: ('A' for Active; 'I' for Inactive)
REMARK    1  A    between atoms: C3_3  and  C4_4 
REMARK    2  A    between atoms: C5_5  and  C6_6 
REMARK    3  A    between atoms: C6_6  and  N1_7 
ROOT
HETATM    1  N1  UNL     1      25.764   1.048  52.666  1.00  0.00    -0.270 N 
HETATM    2  N2  UNL     1      25.814  -0.099  53.483  1.00  0.00    -0.168 NA
HETATM    3  C7  UNL     1      24.706  -0.564  54.000  1.00  0.00     0.257 A 
HETATM    4  N3  UNL     1      23.433   0.029  53.786  1.00  0.00    -0.216 NA
HETATM    5  C8  UNL     1      23.397   1.100  53.026  1.00  0.00     0.191 A 
HETATM    6  O1  UNL     1      22.049   1.504  52.959  1.00  0.00    -0.291 OA
HETATM    7  C9  UNL     1      21.574   2.584  52.222  1.00  0.00     0.085 A 
HETATM    8  C10 UNL     1      20.264   2.546  51.732  1.00  0.00     0.039 A 
HETATM    9  C11 UNL     1      19.752   3.572  51.008  1.00  0.00     0.022 A 
HETATM   10  C12 UNL     1      20.479   4.685  50.721  1.00  0.00     0.011 A 
HETATM   11 BR1  UNL     1      19.792   6.153  49.704  1.00  0.00    -0.051 Br
HETATM   12  C13 UNL     1      21.774   4.747  51.193  1.00  0.00     0.030 A 
HETATM   13  C14 UNL     1      22.361   3.719  51.947  1.00  0.00    -0.006 A 
HETATM   14  C15 UNL     1      23.753   4.101  52.294  1.00  0.00     0.158 C 
HETATM   15  N4  UNL     1      24.684   3.128  52.579  1.00  0.00    -0.390 N 
HETATM   16  C16 UNL     1      24.544   1.764  52.364  1.00  0.00     0.276 A 
HETATM   17  H16 UNL     1      25.317   3.279  53.395  1.00  0.00     0.156 HD
ENDROOT
BRANCH   1  18
HETATM   18  C6  UNL     1      27.015   1.514  52.100  1.00  0.00     0.174 C 
BRANCH  18  19
HETATM   19  C5  UNL     1      27.821   2.264  53.097  1.00  0.00    -0.009 C 
HETATM   20  C4  UNL     1      28.830   1.987  53.959  1.00  0.00    -0.023 C 
BRANCH  20  21
HETATM   21  C3  UNL     1      29.038   0.575  53.705  1.00  0.00     0.020 C 
HETATM   22  C2  UNL     1      29.949  -0.415  53.624  1.00  0.00    -0.006 C 
HETATM   23  C1  UNL     1      29.364  -1.731  53.289  1.00  0.00     0.011 C 
ENDBRANCH  20  21
ENDBRANCH  18  19
ENDBRANCH   1  18
TORSDOF 3
ENDMDL
MODEL 7
REMARK VINA RESULT:      -7.2      5.029      7.431
REMARK  3 active torsions:
REMARK  status: ('A' for Active; 'I' for Inactive)
REMARK    1  A    between atoms: C3_3  and  C4_4 
REMARK    2  A    between atoms: C5_5  and  C6_6 
REMARK    3  A    between atoms: C6_6  and  N1_7 
ROOT
HETATM    1  N1  UNL     1      24.507   1.845  52.256  1.00  0.00    -0.270 N 
HETATM    2  N2  UNL     1      25.357   0.776  52.605  1.00  0.00    -0.168 NA
HETATM    3  C7  UNL     1      26.540   0.693  52.053  1.00  0.00     0.257 A 
HETATM    4  N3  UNL     1      27.028   1.631  51.104  1.00  0.00    -0.216 NA
HETATM    5  C8  UNL     1      26.227   2.622  50.782  1.00  0.00     0.191 A 
HETATM    6  O1  UNL     1      26.917   3.410  49.840  1.00  0.00    -0.291 OA
HETATM    7  C9  UNL     1      26.431   4.581  49.268  1.00  0.00     0.085 A 
HETATM    8  C10 UNL     1      27.340   5.566  48.865  1.00  0.00     0.039 A 
HETATM    9  C11 UNL     1      26.918   6.726  48.303  1.00  0.00     0.022 A 
HETATM   10  C12 UNL     1      25.600   6.993  48.103  1.00  0.00     0.011 A 
HETATM   11 BR1  UNL     1      24.966   8.615  47.312  1.00  0.00    -0.051 Br
HETATM   12  C13 UNL     1      24.683   6.038  48.492  1.00  0.00     0.030 A 
HETATM   13  C14 UNL     1      25.056   4.818  49.079  1.00  0.00    -0.006 A 
HETATM   14  C15 UNL     1      23.836   4.025  49.375  1.00  0.00     0.158 C 
HETATM   15  N4  UNL     1      23.862   3.061  50.358  1.00  0.00    -0.390 N 
HETATM   16  C16 UNL     1      24.862   2.872  51.301  1.00  0.00     0.276 A 
HETATM   17  H16 UNL     1      23.408   2.143  50.156  1.00  0.00     0.156 HD
ENDROOT
BRANCH   1  18
HETATM   18  C6  UNL     1      23.214   1.905  52.909  1.00  0.00     0.174 C 
BRANCH  18  19
HETATM   19  C5  UNL     1      22.192   1.120  52.172  1.00  0.00    -0.009 C 
HETATM   20  C4  UNL     1      21.572  -0.077  52.318  1.00  0.00    -0.023 C 
BRANCH  20  21
HETATM   21  C3  UNL     1      22.180  -0.561  53.542  1.00  0.00     0.020 C 
HETATM   22  C2  UNL     1      22.071  -1.430  54.566  1.00  0.00    -0.006 C 
HETATM   23  C1  UNL     1      23.182  -1.342  55.538  1.00  0.00     0.011 C 
ENDBRANCH  20  21
ENDBRANCH  18  19
ENDBRANCH   1  18
TORSDOF 3
ENDMDL
MODEL 8
REMARK VINA RESULT:      -7.1      3.675      7.822
REMARK  3 active torsions:
REMARK  status: ('A' for Active; 'I' for Inactive)
REMARK    1  A    between atoms: C3_3  and  C4_4 
REMARK    2  A    between atoms: C5_5  and  C6_6 
REMARK    3  A    between atoms: C6_6  and  N1_7 
ROOT
HETATM    1  N1  UNL     1      22.425   1.913  51.372  1.00  0.00    -0.270 N 
HETATM    2  N2  UNL     1      21.764   3.143  51.557  1.00  0.00    -0.168 NA
HETATM    3  C7  UNL     1      22.342   4.079  52.266  1.00  0.00     0.257 A 
HETATM    4  N3  UNL     1      23.618   3.926  52.873  1.00  0.00    -0.216 NA
HETATM    5  C8  UNL     1      24.225   2.774  52.698  1.00  0.00     0.191 A 
HETATM    6  O1  UNL     1      25.454   2.856  53.381  1.00  0.00    -0.291 OA
HETATM    7  C9  UNL     1      26.417   1.853  53.416  1.00  0.00     0.085 A 
HETATM    8  C10 UNL     1      27.762   2.211  53.563  1.00  0.00     0.039 A 
HETATM    9  C11 UNL     1      28.740   1.272  53.603  1.00  0.00     0.022 A 
HETATM   10  C12 UNL     1      28.469  -0.056  53.502  1.00  0.00     0.011 A 
HETATM   11 BR1  UNL     1      29.821  -1.409  53.555  1.00  0.00    -0.051 Br
HETATM   12  C13 UNL     1      27.151  -0.435  53.356  1.00  0.00     0.030 A 
HETATM   13  C14 UNL     1      26.094   0.487  53.308  1.00  0.00    -0.006 A 
HETATM   14  C15 UNL     1      24.813  -0.246  53.146  1.00  0.00     0.158 C 
HETATM   15  N4  UNL     1      23.722   0.385  52.591  1.00  0.00    -0.390 N 
HETATM   16  C16 UNL     1      23.723   1.608  51.934  1.00  0.00     0.276 A 
HETATM   17  H16 UNL     1      22.792   0.244  53.042  1.00  0.00     0.156 HD
ENDROOT
BRANCH   1  18
HETATM   18  C6  UNL     1      21.754   0.914  50.563  1.00  0.00     0.174 C 
BRANCH  18  19
HETATM   19  C5  UNL     1      20.542   0.386  51.239  1.00  0.00    -0.009 C 
HETATM   20  C4  UNL     1      19.200   0.510  51.098  1.00  0.00    -0.023 C 
BRANCH  20  21
HETATM   21  C3  UNL     1      19.118   1.413  49.966  1.00  0.00     0.020 C 
HETATM   22  C2  UNL     1      18.515   2.506  49.460  1.00  0.00    -0.006 C 
HETATM   23  C1  UNL     1      18.994   2.876  48.112  1.00  0.00     0.011 C 
ENDBRANCH  20  21
ENDBRANCH  18  19
ENDBRANCH   1  18
TORSDOF 3
ENDMDL
MODEL 9
REMARK VINA RESULT:      -7.0      5.033      7.818
REMARK  3 active torsions:
REMARK  status: ('A' for Active; 'I' for Inactive)
REMARK    1  A    between atoms: C3_3  and  C4_4 
REMARK    2  A    between atoms: C5_5  and  C6_6 
REMARK    3  A    between atoms: C6_6  and  N1_7 
ROOT
HETATM    1  N1  UNL     1      25.031   5.411  49.156  1.00  0.00    -0.270 N 
HETATM    2  N2  UNL     1      26.160   5.890  48.465  1.00  0.00    -0.168 NA
HETATM    3  C7  UNL     1      27.313   5.294  48.631  1.00  0.00     0.257 A 
HETATM    4  N3  UNL     1      27.498   4.173  49.485  1.00  0.00    -0.216 NA
HETATM    5  C8  UNL     1      26.440   3.735  50.129  1.00  0.00     0.191 A 
HETATM    6  O1  UNL     1      26.861   2.634  50.900  1.00  0.00    -0.291 OA
HETATM    7  C9  UNL     1      26.034   1.860  51.706  1.00  0.00     0.085 A 
HETATM    8  C10 UNL     1      26.363   0.517  51.922  1.00  0.00     0.039 A 
HETATM    9  C11 UNL     1      25.590  -0.282  52.700  1.00  0.00     0.022 A 
HETATM   10  C12 UNL     1      24.463   0.176  53.306  1.00  0.00     0.011 A 
HETATM   11 BR1  UNL     1      23.348  -0.918  54.411  1.00  0.00    -0.051 Br
HETATM   12  C13 UNL     1      24.116   1.497  53.109  1.00  0.00     0.030 A 
HETATM   13  C14 UNL     1      24.873   2.373  52.317  1.00  0.00    -0.006 A 
HETATM   14  C15 UNL     1      24.229   3.711  52.315  1.00  0.00     0.158 C 
HETATM   15  N4  UNL     1      24.456   4.585  51.275  1.00  0.00    -0.390 N 
HETATM   16  C16 UNL     1      25.065   4.285  50.065  1.00  0.00     0.276 A 
HETATM   17  H16 UNL     1      24.638   5.586  51.507  1.00  0.00     0.156 HD
ENDROOT
BRANCH   1  18
HETATM   18  C6  UNL     1      23.772   6.092  48.925  1.00  0.00     0.174 C 
BRANCH  18  19
HETATM   19  C5  UNL     1      23.013   5.476  47.807  1.00  0.00    -0.009 C 
HETATM   20  C4  UNL     1      21.881   4.744  47.669  1.00  0.00    -0.023 C 
BRANCH  20  21
HETATM   21  C3  UNL     1      21.445   4.636  49.048  1.00  0.00     0.020 C 
HETATM   22  C2  UNL     1      20.427   4.303  49.866  1.00  0.00    -0.006 C 
HETATM   23  C1  UNL     1      20.745   4.467  51.301  1.00  0.00     0.011 C 
ENDBRANCH  20  21
ENDBRANCH  18  19
ENDBRANCH   1  18
TORSDOF 3
ENDMDL
