MODEL 1
REMARK VINA RESULT:      -9.1      0.000      0.000
REMARK  2 active torsions:
REMARK  status: ('A' for Active; 'I' for Inactive)
REMARK    1  A    between atoms: N1_7  and  C7_8 
REMARK    2  A    between atoms: C11_14  and  O1_15 
ROOT
HETATM    1  C1  UNL     1      29.467  -1.832  53.397  1.00  0.00     0.017 C 
HETATM    2  C2  UNL     1      28.630  -0.979  53.231  1.00  0.00    -0.080 C 
HETATM    3  C3  UNL     1      27.609   0.033  53.015  1.00  0.00     0.023 C 
HETATM    4  C4  UNL     1      27.955   1.267  53.252  1.00  0.00    -0.011 C 
HETATM    5  C5  UNL     1      26.981   2.133  53.469  1.00  0.00     0.006 C 
HETATM    6  C6  UNL     1      25.673   1.858  52.759  1.00  0.00     0.153 C 
HETATM    7  N1  UNL     1      25.210   0.516  53.143  1.00  0.00    -0.357 N 
HETATM    8  C18 UNL     1      26.228  -0.344  52.542  1.00  0.00     0.173 C 
ENDROOT
BRANCH   7   9
HETATM    9  C7  UNL     1      24.194  -0.181  53.850  1.00  0.00     0.143 A 
HETATM   10  N2  UNL     1      24.742  -0.805  54.911  1.00  0.00    -0.224 NA
HETATM   11  C8  UNL     1      24.003  -1.543  55.783  1.00  0.00     0.236 A 
HETATM   12  N3  UNL     1      22.687  -1.611  55.515  1.00  0.00    -0.241 NA
HETATM   13  C9  UNL     1      22.069  -1.030  54.495  1.00  0.00     0.077 A 
HETATM   14  C10 UNL     1      20.740  -1.088  54.206  1.00  0.00     0.072 A 
HETATM   15  C15 UNL     1      22.840  -0.287  53.627  1.00  0.00     0.075 A 
HETATM   16  C11 UNL     1      20.220  -0.425  53.088  1.00  0.00     0.106 A 
HETATM   17  C13 UNL     1      21.049   0.310  52.245  1.00  0.00     0.136 A 
HETATM   18  C14 UNL     1      22.403   0.382  52.522  1.00  0.00     0.121 A 
HETATM   19  O3  UNL     1      20.545   0.975  51.126  1.00  0.00    -0.344 OA
HETATM   20  O2  UNL     1      23.235   1.104  51.700  1.00  0.00    -0.345 OA
HETATM   21  C16 UNL     1      22.787   1.615  50.461  1.00  0.00     0.202 C 
HETATM   22  C17 UNL     1      21.446   1.113  50.044  1.00  0.00     0.202 C 
BRANCH  16  23
HETATM   23  O1  UNL     1      18.849  -0.509  52.823  1.00  0.00    -0.353 OA
HETATM   24  C12 UNL     1      18.146  -1.593  53.394  1.00  0.00     0.210 C 
ENDBRANCH  16  23
ENDBRANCH   7   9
TORSDOF 2
ENDMDL
MODEL 2
REMARK VINA RESULT:      -8.0      3.158      4.656
REMARK  2 active torsions:
REMARK  status: ('A' for Active; 'I' for Inactive)
REMARK    1  A    between atoms: N1_7  and  C7_8 
REMARK    2  A    between atoms: C11_14  and  O1_15 
ROOT
HETATM    1  C1  UNL     1      29.271   5.265  48.113  1.00  0.00     0.017 C 
HETATM    2  C2  UNL     1      28.146   5.133  48.530  1.00  0.00    -0.080 C 
HETATM    3  C3  UNL     1      26.791   4.951  49.023  1.00  0.00     0.023 C 
HETATM    4  C4  UNL     1      26.110   6.036  49.267  1.00  0.00    -0.011 C 
HETATM    5  C5  UNL     1      25.076   5.926  50.081  1.00  0.00     0.006 C 
HETATM    6  C6  UNL     1      24.358   4.593  50.072  1.00  0.00     0.153 C 
HETATM    7  N1  UNL     1      25.333   3.541  50.397  1.00  0.00    -0.357 N 
HETATM    8  C18 UNL     1      26.220   3.572  49.235  1.00  0.00     0.173 C 
ENDROOT
BRANCH   7   9
HETATM    9  C7  UNL     1      25.688   2.579  51.382  1.00  0.00     0.143 A 
HETATM   10  N2  UNL     1      26.983   2.746  51.715  1.00  0.00    -0.224 NA
HETATM   11  C8  UNL     1      27.599   1.972  52.650  1.00  0.00     0.236 A 
HETATM   12  N3  UNL     1      26.830   1.027  53.218  1.00  0.00    -0.241 NA
HETATM   13  C9  UNL     1      25.551   0.796  52.947  1.00  0.00     0.077 A 
HETATM   14  C10 UNL     1      24.759  -0.157  53.509  1.00  0.00     0.072 A 
HETATM   15  C15 UNL     1      24.951   1.594  51.998  1.00  0.00     0.075 A 
HETATM   16  C11 UNL     1      23.419  -0.292  53.124  1.00  0.00     0.106 A 
HETATM   17  C13 UNL     1      22.867   0.543  52.158  1.00  0.00     0.136 A 
HETATM   18  C14 UNL     1      23.657   1.519  51.574  1.00  0.00     0.121 A 
HETATM   19  O3  UNL     1      21.534   0.420  51.762  1.00  0.00    -0.344 OA
HETATM   20  O2  UNL     1      23.127   2.352  50.618  1.00  0.00    -0.345 OA
HETATM   21  C16 UNL     1      21.850   2.118  50.062  1.00  0.00     0.202 C 
HETATM   22  C17 UNL     1      21.257   0.799  50.428  1.00  0.00     0.202 C 
BRANCH  16  23
HETATM   23  O1  UNL     1      22.635  -1.283  53.724  1.00  0.00    -0.353 OA
HETATM   24  C12 UNL     1      21.937  -0.932  54.900  1.00  0.00     0.210 C 
ENDBRANCH  16  23
ENDBRANCH   7   9
TORSDOF 2
ENDMDL
MODEL 3
REMARK VINA RESULT:      -7.8      2.835      6.739
REMARK  2 active torsions:
REMARK  status: ('A' for Active; 'I' for Inactive)
REMARK    1  A    between atoms: N1_7  and  C7_8 
REMARK    2  A    between atoms: C11_14  and  O1_15 
ROOT
HETATM    1  C1  UNL     1      21.867   3.705  45.913  1.00  0.00     0.017 C 
HETATM    2  C2  UNL     1      21.792   3.641  47.116  1.00  0.00    -0.080 C 
HETATM    3  C3  UNL     1      21.710   3.540  48.564  1.00  0.00     0.023 C 
HETATM    4  C4  UNL     1      20.973   4.430  49.167  1.00  0.00    -0.011 C 
HETATM    5  C5  UNL     1      21.201   4.626  50.453  1.00  0.00     0.006 C 
HETATM    6  C6  UNL     1      21.695   3.427  51.234  1.00  0.00     0.153 C 
HETATM    7  N1  UNL     1      22.931   2.941  50.601  1.00  0.00    -0.357 N 
HETATM    8  C18 UNL     1      22.445   2.456  49.310  1.00  0.00     0.173 C 
ENDROOT
BRANCH   7   9
HETATM    9  C7  UNL     1      24.331   2.795  50.795  1.00  0.00     0.143 A 
HETATM   10  N2  UNL     1      24.981   3.637  49.969  1.00  0.00    -0.224 NA
HETATM   11  C8  UNL     1      26.338   3.728  49.944  1.00  0.00     0.236 A 
HETATM   12  N3  UNL     1      26.990   2.918  50.797  1.00  0.00    -0.241 NA
HETATM   13  C9  UNL     1      26.428   2.061  51.640  1.00  0.00     0.077 A 
HETATM   14  C10 UNL     1      27.070   1.234  52.509  1.00  0.00     0.072 A 
HETATM   15  C15 UNL     1      25.052   1.990  51.647  1.00  0.00     0.075 A 
HETATM   16  C11 UNL     1      26.347   0.373  53.345  1.00  0.00     0.106 A 
HETATM   17  C13 UNL     1      24.956   0.343  53.306  1.00  0.00     0.136 A 
HETATM   18  C14 UNL     1      24.285   1.178  52.430  1.00  0.00     0.121 A 
HETATM   19  O3  UNL     1      24.222  -0.511  54.132  1.00  0.00    -0.344 OA
HETATM   20  O2  UNL     1      22.911   1.161  52.380  1.00  0.00    -0.345 OA
HETATM   21  C16 UNL     1      22.161   0.173  53.054  1.00  0.00     0.202 C 
HETATM   22  C17 UNL     1      22.981  -0.943  53.609  1.00  0.00     0.202 C 
BRANCH  16  23
HETATM   23  O1  UNL     1      27.041  -0.465  54.224  1.00  0.00    -0.353 OA
HETATM   24  C12 UNL     1      28.250   0.026  54.765  1.00  0.00     0.210 C 
ENDBRANCH  16  23
ENDBRANCH   7   9
TORSDOF 2
ENDMDL
MODEL 4
REMARK VINA RESULT:      -7.3      2.718      6.877
REMARK  2 active torsions:
REMARK  status: ('A' for Active; 'I' for Inactive)
REMARK    1  A    between atoms: N1_7  and  C7_8 
REMARK    2  A    between atoms: C11_14  and  O1_15 
ROOT
HETATM    1  C1  UNL     1      20.799   2.741  47.356  1.00  0.00     0.017 C 
HETATM    2  C2  UNL     1      21.014   2.604  48.536  1.00  0.00    -0.080 C 
HETATM    3  C3  UNL     1      21.286   2.417  49.952  1.00  0.00     0.023 C 
HETATM    4  C4  UNL     1      20.514   3.062  50.781  1.00  0.00    -0.011 C 
HETATM    5  C5  UNL     1      20.973   3.248  52.006  1.00  0.00     0.006 C 
HETATM    6  C6  UNL     1      21.899   2.178  52.542  1.00  0.00     0.153 C 
HETATM    7  N1  UNL     1      23.039   2.050  51.623  1.00  0.00    -0.357 N 
HETATM    8  C18 UNL     1      22.405   1.520  50.417  1.00  0.00     0.173 C 
ENDROOT
BRANCH   7   9
HETATM    9  C7  UNL     1      24.441   2.253  51.508  1.00  0.00     0.143 A 
HETATM   10  N2  UNL     1      24.682   3.097  50.486  1.00  0.00    -0.224 NA
HETATM   11  C8  UNL     1      25.941   3.489  50.147  1.00  0.00     0.236 A 
HETATM   12  N3  UNL     1      26.930   2.975  50.899  1.00  0.00    -0.241 NA
HETATM   13  C9  UNL     1      26.779   2.140  51.919  1.00  0.00     0.077 A 
HETATM   14  C10 UNL     1      27.767   1.609  52.690  1.00  0.00     0.072 A 
HETATM   15  C15 UNL     1      25.495   1.760  52.243  1.00  0.00     0.075 A 
HETATM   16  C11 UNL     1      27.464   0.732  53.740  1.00  0.00     0.106 A 
HETATM   17  C13 UNL     1      26.146   0.384  54.018  1.00  0.00     0.136 A 
HETATM   18  C14 UNL     1      25.127   0.914  53.246  1.00  0.00     0.121 A 
HETATM   19  O3  UNL     1      25.828  -0.490  55.060  1.00  0.00    -0.344 OA
HETATM   20  O2  UNL     1      23.820   0.579  53.509  1.00  0.00    -0.345 OA
HETATM   21  C16 UNL     1      23.490  -0.449  54.419  1.00  0.00     0.202 C 
HETATM   22  C17 UNL     1      24.657  -1.262  54.871  1.00  0.00     0.202 C 
BRANCH  16  23
HETATM   23  O1  UNL     1      28.506   0.206  54.510  1.00  0.00    -0.353 OA
HETATM   24  C12 UNL     1      29.426  -0.644  53.857  1.00  0.00     0.210 C 
ENDBRANCH  16  23
ENDBRANCH   7   9
TORSDOF 2
ENDMDL
MODEL 5
REMARK VINA RESULT:      -7.3      2.265      3.051
REMARK  2 active torsions:
REMARK  status: ('A' for Active; 'I' for Inactive)
REMARK    1  A    between atoms: N1_7  and  C7_8 
REMARK    2  A    between atoms: C11_14  and  O1_15 
ROOT
HETATM    1  C1  UNL     1      27.021  -0.711  52.770  1.00  0.00     0.017 C 
HETATM    2  C2  UNL     1      26.234   0.201  52.690  1.00  0.00    -0.080 C 
HETATM    3  C3  UNL     1      25.276   1.288  52.573  1.00  0.00     0.023 C 
HETATM    4  C4  UNL     1      25.564   2.387  53.212  1.00  0.00    -0.011 C 
HETATM    5  C5  UNL     1      24.564   3.211  53.469  1.00  0.00     0.006 C 
HETATM    6  C6  UNL     1      23.430   3.218  52.468  1.00  0.00     0.153 C 
HETATM    7  N1  UNL     1      22.901   1.850  52.359  1.00  0.00    -0.357 N 
HETATM    8  C18 UNL     1      24.022   1.134  51.750  1.00  0.00     0.173 C 
ENDROOT
BRANCH   7   9
HETATM    9  C7  UNL     1      21.763   1.041  52.625  1.00  0.00     0.143 A 
HETATM   10  N2  UNL     1      21.952   0.384  53.785  1.00  0.00    -0.224 NA
HETATM   11  C8  UNL     1      21.016  -0.459  54.304  1.00  0.00     0.236 A 
HETATM   12  N3  UNL     1      19.892  -0.593  53.580  1.00  0.00    -0.241 NA
HETATM   13  C9  UNL     1      19.628   0.016  52.431  1.00  0.00     0.077 A 
HETATM   14  C10 UNL     1      18.497  -0.108  51.684  1.00  0.00     0.072 A 
HETATM   15  C15 UNL     1      20.590   0.864  51.928  1.00  0.00     0.075 A 
HETATM   16  C11 UNL     1      18.352   0.596  50.481  1.00  0.00     0.106 A 
HETATM   17  C13 UNL     1      19.360   1.438  50.023  1.00  0.00     0.136 A 
HETATM   18  C14 UNL     1      20.517   1.579  50.768  1.00  0.00     0.121 A 
HETATM   19  O3  UNL     1      19.231   2.145  48.825  1.00  0.00    -0.344 OA
HETATM   20  O2  UNL     1      21.523   2.406  50.329  1.00  0.00    -0.345 OA
HETATM   21  C16 UNL     1      21.500   2.971  49.034  1.00  0.00     0.202 C 
HETATM   22  C17 UNL     1      20.441   2.414  48.144  1.00  0.00     0.202 C 
BRANCH  16  23
HETATM   23  O1  UNL     1      17.176   0.442  49.740  1.00  0.00    -0.353 OA
HETATM   24  C12 UNL     1      15.957   0.719  50.397  1.00  0.00     0.210 C 
ENDBRANCH  16  23
ENDBRANCH   7   9
TORSDOF 2
ENDMDL
MODEL 6
REMARK VINA RESULT:      -6.9      2.940      6.251
REMARK  2 active torsions:
REMARK  status: ('A' for Active; 'I' for Inactive)
REMARK    1  A    between atoms: N1_7  and  C7_8 
REMARK    2  A    between atoms: C11_14  and  O1_15 
ROOT
HETATM    1  C1  UNL     1      19.832   6.509  49.801  1.00  0.00     0.017 C 
HETATM    2  C2  UNL     1      20.645   5.666  49.508  1.00  0.00    -0.080 C 
HETATM    3  C3  UNL     1      21.637   4.657  49.177  1.00  0.00     0.023 C 
HETATM    4  C4  UNL     1      21.731   4.323  47.921  1.00  0.00    -0.011 C 
HETATM    5  C5  UNL     1      22.294   3.160  47.648  1.00  0.00     0.006 C 
HETATM    6  C6  UNL     1      23.360   2.691  48.615  1.00  0.00     0.153 C 
HETATM    7  N1  UNL     1      22.768   2.629  49.961  1.00  0.00    -0.357 N 
HETATM    8  C18 UNL     1      22.504   4.039  50.246  1.00  0.00     0.173 C 
ENDROOT
BRANCH   7   9
HETATM    9  C7  UNL     1      22.389   1.738  51.000  1.00  0.00     0.143 A 
HETATM   10  N2  UNL     1      21.054   1.561  50.964  1.00  0.00    -0.224 NA
HETATM   11  C8  UNL     1      20.404   0.743  51.837  1.00  0.00     0.236 A 
HETATM   12  N3  UNL     1      21.184   0.124  52.741  1.00  0.00    -0.241 NA
HETATM   13  C9  UNL     1      22.502   0.244  52.845  1.00  0.00     0.077 A 
HETATM   14  C10 UNL     1      23.306  -0.373  53.753  1.00  0.00     0.072 A 
HETATM   15  C15 UNL     1      23.135   1.077  51.949  1.00  0.00     0.075 A 
HETATM   16  C11 UNL     1      24.689  -0.152  53.751  1.00  0.00     0.106 A 
HETATM   17  C13 UNL     1      25.273   0.703  52.821  1.00  0.00     0.136 A 
HETATM   18  C14 UNL     1      24.472   1.339  51.889  1.00  0.00     0.121 A 
HETATM   19  O3  UNL     1      26.650   0.934  52.807  1.00  0.00    -0.344 OA
HETATM   20  O2  UNL     1      25.033   2.186  50.964  1.00  0.00    -0.345 OA
HETATM   21  C16 UNL     1      26.384   2.589  51.055  1.00  0.00     0.202 C 
HETATM   22  C17 UNL     1      27.048   2.207  52.335  1.00  0.00     0.202 C 
BRANCH  16  23
HETATM   23  O1  UNL     1      25.484  -0.802  54.701  1.00  0.00    -0.353 OA
HETATM   24  C12 UNL     1      24.839  -1.289  55.859  1.00  0.00     0.210 C 
ENDBRANCH  16  23
ENDBRANCH   7   9
TORSDOF 2
ENDMDL
MODEL 7
REMARK VINA RESULT:      -6.8      4.344      6.501
REMARK  2 active torsions:
REMARK  status: ('A' for Active; 'I' for Inactive)
REMARK    1  A    between atoms: N1_7  and  C7_8 
REMARK    2  A    between atoms: C11_14  and  O1_15 
ROOT
HETATM    1  C1  UNL     1      25.664   9.465  49.099  1.00  0.00     0.017 C 
HETATM    2  C2  UNL     1      25.939   8.293  49.187  1.00  0.00    -0.080 C 
HETATM    3  C3  UNL     1      26.254   6.879  49.312  1.00  0.00     0.023 C 
HETATM    4  C4  UNL     1      27.333   6.469  48.707  1.00  0.00    -0.011 C 
HETATM    5  C5  UNL     1      27.423   5.176  48.452  1.00  0.00     0.006 C 
HETATM    6  C6  UNL     1      26.731   4.252  49.430  1.00  0.00     0.153 C 
HETATM    7  N1  UNL     1      25.310   4.626  49.493  1.00  0.00    -0.357 N 
HETATM    8  C18 UNL     1      25.367   5.952  50.105  1.00  0.00     0.173 C 
ENDROOT
BRANCH   7   9
HETATM    9  C7  UNL     1      23.997   4.178  49.182  1.00  0.00     0.143 A 
HETATM   10  N2  UNL     1      23.502   4.927  48.178  1.00  0.00    -0.224 NA
HETATM   11  C8  UNL     1      22.262   4.718  47.658  1.00  0.00     0.236 A 
HETATM   12  N3  UNL     1      21.562   3.713  48.213  1.00  0.00    -0.241 NA
HETATM   13  C9  UNL     1      21.975   2.930  49.203  1.00  0.00     0.077 A 
HETATM   14  C10 UNL     1      21.281   1.911  49.779  1.00  0.00     0.072 A 
HETATM   15  C15 UNL     1      23.234   3.163  49.711  1.00  0.00     0.075 A 
HETATM   16  C11 UNL     1      21.840   1.164  50.823  1.00  0.00     0.106 A 
HETATM   17  C13 UNL     1      23.118   1.447  51.296  1.00  0.00     0.136 A 
HETATM   18  C14 UNL     1      23.840   2.479  50.723  1.00  0.00     0.121 A 
HETATM   19  O3  UNL     1      23.688   0.712  52.338  1.00  0.00    -0.344 OA
HETATM   20  O2  UNL     1      25.103   2.770  51.180  1.00  0.00    -0.345 OA
HETATM   21  C16 UNL     1      25.618   2.178  52.354  1.00  0.00     0.202 C 
HETATM   22  C17 UNL     1      24.609   1.418  53.147  1.00  0.00     0.202 C 
BRANCH  16  23
HETATM   23  O1  UNL     1      21.096   0.125  51.391  1.00  0.00    -0.353 OA
HETATM   24  C12 UNL     1      20.092   0.480  52.318  1.00  0.00     0.210 C 
ENDBRANCH  16  23
ENDBRANCH   7   9
TORSDOF 2
ENDMDL
MODEL 8
REMARK VINA RESULT:      -6.8      2.863      6.932
REMARK  2 active torsions:
REMARK  status: ('A' for Active; 'I' for Inactive)
REMARK    1  A    between atoms: N1_7  and  C7_8 
REMARK    2  A    between atoms: C11_14  and  O1_15 
ROOT
HETATM    1  C1  UNL     1      18.732   3.187  46.859  1.00  0.00     0.017 C 
HETATM    2  C2  UNL     1      18.879   3.039  48.048  1.00  0.00    -0.080 C 
HETATM    3  C3  UNL     1      19.066   2.838  49.476  1.00  0.00     0.023 C 
HETATM    4  C4  UNL     1      18.363   3.599  50.266  1.00  0.00    -0.011 C 
HETATM    5  C5  UNL     1      18.795   3.738  51.506  1.00  0.00     0.006 C 
HETATM    6  C6  UNL     1      19.539   2.557  52.091  1.00  0.00     0.153 C 
HETATM    7  N1  UNL     1      20.685   2.255  51.220  1.00  0.00    -0.357 N 
HETATM    8  C18 UNL     1      20.028   1.800  49.995  1.00  0.00     0.173 C 
ENDROOT
BRANCH   7   9
HETATM    9  C7  UNL     1      22.104   2.257  51.160  1.00  0.00     0.143 A 
HETATM   10  N2  UNL     1      22.506   3.160  50.245  1.00  0.00    -0.224 NA
HETATM   11  C8  UNL     1      23.821   3.392  49.980  1.00  0.00     0.236 A 
HETATM   12  N3  UNL     1      24.694   2.658  50.691  1.00  0.00    -0.241 NA
HETATM   13  C9  UNL     1      24.383   1.750  51.608  1.00  0.00     0.077 A 
HETATM   14  C10 UNL     1      25.252   0.997  52.337  1.00  0.00     0.072 A 
HETATM   15  C15 UNL     1      23.045   1.535  51.858  1.00  0.00     0.075 A 
HETATM   16  C11 UNL     1      24.782   0.068  53.274  1.00  0.00     0.106 A 
HETATM   17  C13 UNL     1      23.418  -0.107  53.482  1.00  0.00     0.136 A 
HETATM   18  C14 UNL     1      22.518   0.650  52.752  1.00  0.00     0.121 A 
HETATM   19  O3  UNL     1      22.935  -1.030  54.412  1.00  0.00    -0.344 OA
HETATM   20  O2  UNL     1      21.167   0.489  52.946  1.00  0.00    -0.345 OA
HETATM   21  C16 UNL     1      20.655  -0.570  53.728  1.00  0.00     0.202 C 
HETATM   22  C17 UNL     1      21.672  -1.592  54.112  1.00  0.00     0.202 C 
BRANCH  16  23
HETATM   23  O1  UNL     1      25.705  -0.689  54.004  1.00  0.00    -0.353 OA
HETATM   24  C12 UNL     1      26.607   0.015  54.832  1.00  0.00     0.210 C 
ENDBRANCH  16  23
ENDBRANCH   7   9
TORSDOF 2
ENDMDL
MODEL 9
REMARK VINA RESULT:      -6.7      3.178      5.183
REMARK  2 active torsions:
REMARK  status: ('A' for Active; 'I' for Inactive)
REMARK    1  A    between atoms: N1_7  and  C7_8 
REMARK    2  A    between atoms: C11_14  and  O1_15 
ROOT
HETATM    1  C1  UNL     1      23.963   7.645  50.983  1.00  0.00     0.017 C 
HETATM    2  C2  UNL     1      24.093   6.445  50.948  1.00  0.00    -0.080 C 
HETATM    3  C3  UNL     1      24.240   4.999  50.929  1.00  0.00     0.023 C 
HETATM    4  C4  UNL     1      25.102   4.514  50.081  1.00  0.00    -0.011 C 
HETATM    5  C5  UNL     1      24.965   3.243  49.746  1.00  0.00     0.006 C 
HETATM    6  C6  UNL     1      24.381   2.333  50.805  1.00  0.00     0.153 C 
HETATM    7  N1  UNL     1      23.068   2.865  51.199  1.00  0.00    -0.357 N 
HETATM    8  C18 UNL     1      23.428   4.124  51.850  1.00  0.00     0.173 C 
ENDROOT
BRANCH   7   9
HETATM    9  C7  UNL     1      21.672   2.600  51.164  1.00  0.00     0.143 A 
HETATM   10  N2  UNL     1      21.062   3.548  50.426  1.00  0.00    -0.224 NA
HETATM   11  C8  UNL     1      19.719   3.544  50.205  1.00  0.00     0.236 A 
HETATM   12  N3  UNL     1      19.040   2.532  50.772  1.00  0.00    -0.241 NA
HETATM   13  C9  UNL     1      19.562   1.561  51.511  1.00  0.00     0.077 A 
HETATM   14  C10 UNL     1      18.892   0.530  52.094  1.00  0.00     0.072 A 
HETATM   15  C15 UNL     1      20.924   1.587  51.719  1.00  0.00     0.075 A 
HETATM   16  C11 UNL     1      19.574  -0.428  52.855  1.00  0.00     0.106 A 
HETATM   17  C13 UNL     1      20.952  -0.349  53.032  1.00  0.00     0.136 A 
HETATM   18  C14 UNL     1      21.652   0.692  52.446  1.00  0.00     0.121 A 
HETATM   19  O3  UNL     1      21.645  -1.296  53.789  1.00  0.00    -0.344 OA
HETATM   20  O2  UNL     1      23.013   0.784  52.612  1.00  0.00    -0.345 OA
HETATM   21  C16 UNL     1      23.702  -0.040  53.530  1.00  0.00     0.202 C 
HETATM   22  C17 UNL     1      22.812  -0.823  54.435  1.00  0.00     0.202 C 
BRANCH  16  23
HETATM   23  O1  UNL     1      18.851  -1.473  53.440  1.00  0.00    -0.353 OA
HETATM   24  C12 UNL     1      17.443  -1.414  53.350  1.00  0.00     0.210 C 
ENDBRANCH  16  23
ENDBRANCH   7   9
TORSDOF 2
ENDMDL
