MODEL 1
REMARK VINA RESULT:      -6.7      0.000      0.000
REMARK  10 active torsions:
REMARK  status: ('A' for Active; 'I' for Inactive)
REMARK    1  A    between atoms: C2_2  and  C3_3 
REMARK    2  A    between atoms: C3_3  and  C4_4 
REMARK    3  A    between atoms: C4_4  and  N1_5 
REMARK    4  A    between atoms: N1_5  and  C6_7 
REMARK    5  A    between atoms: C6_7  and  S1_8 
REMARK    6  A    between atoms: S1_8  and  C7_9 
REMARK    7  A    between atoms: C7_9  and  C8_10 
REMARK       I    between atoms: C8_10  and  N2_12 
REMARK    8  A    between atoms: N2_12  and  C9_13 
REMARK    9  A    between atoms: C14_20  and  C15_21 
REMARK   10  A    between atoms: C17_24  and  N5_25 
ROOT
HETATM    1  C9  UNL     1      24.437   1.640  51.849  1.00  0.00     0.062 A 
HETATM    2  C10 UNL     1      25.437   2.352  51.169  1.00  0.00     0.034 A 
HETATM    3  C11 UNL     1      26.730   2.168  51.658  1.00  0.00     0.035 A 
HETATM    4  C12 UNL     1      26.975   1.343  52.730  1.00  0.00     0.072 A 
HETATM    5  N3  UNL     1      28.222   1.138  53.197  1.00  0.00    -0.241 NA
HETATM    6  C13 UNL     1      28.442   0.311  54.231  1.00  0.00     0.234 A 
HETATM    7  N4  UNL     1      27.419  -0.327  54.817  1.00  0.00    -0.243 NA
HETATM    8  C14 UNL     1      26.121  -0.200  54.439  1.00  0.00     0.079 A 
HETATM    9  C16 UNL     1      25.975   0.658  53.377  1.00  0.00     0.049 A 
HETATM   10  C17 UNL     1      24.699   0.818  52.921  1.00  0.00     0.069 A 
ENDROOT
BRANCH   1  11
HETATM   11  N2  UNL     1      23.205   1.941  51.213  1.00  0.00    -0.325 N 
HETATM   12  C8  UNL     1      22.742   3.107  51.855  1.00  0.00     0.231 C 
HETATM   13  O1  UNL     1      23.222   3.833  52.793  1.00  0.00    -0.272 OA
HETATM   14  H17 UNL     1      22.479   1.730  50.514  1.00  0.00     0.169 HD
BRANCH  12  15
HETATM   15  C7  UNL     1      21.575   4.043  51.817  1.00  0.00     0.178 C 
BRANCH  15  16
HETATM   16  S1  UNL     1      22.053   5.537  50.968  1.00  0.00    -0.140 SA
BRANCH  16  17
HETATM   17  C6  UNL     1      23.088   5.229  49.560  1.00  0.00     0.191 C 
BRANCH  17  18
HETATM   18  N1  UNL     1      24.220   6.065  49.384  1.00  0.00    -0.408 N 
HETATM   19  C5  UNL     1      24.291   6.667  48.063  1.00  0.00     0.144 C 
BRANCH  18  20
HETATM   20  C4  UNL     1      25.485   5.634  49.865  1.00  0.00     0.117 C 
BRANCH  20  21
HETATM   21  C3  UNL     1      26.558   6.017  48.854  1.00  0.00     0.019 C 
BRANCH  21  22
HETATM   22  C2  UNL     1      27.589   4.954  48.668  1.00  0.00    -0.003 C 
HETATM   23  C1  UNL     1      28.904   5.477  48.189  1.00  0.00     0.005 C 
ENDBRANCH  21  22
ENDBRANCH  20  21
ENDBRANCH  18  20
ENDBRANCH  17  18
ENDBRANCH  16  17
ENDBRANCH  15  16
ENDBRANCH  12  15
ENDBRANCH   1  11
BRANCH  10  24
HETATM   24  N5  UNL     1      23.476   0.244  53.333  1.00  0.00    -0.392 N 
HETATM   25  C18 UNL     1      22.402  -0.679  53.060  1.00  0.00     0.146 C 
HETATM   26  H23 UNL     1      23.325   0.720  54.280  1.00  0.00     0.159 HD
ENDBRANCH  10  24
BRANCH   8  27
HETATM   27  C15 UNL     1      25.063  -0.883  55.176  1.00  0.00     0.282 C 
HETATM   28  F1  UNL     1      25.282  -0.887  56.545  1.00  0.00    -0.249 F 
ENDBRANCH   8  27
TORSDOF 10
ENDMDL
MODEL 2
REMARK VINA RESULT:      -6.2      1.615      1.824
REMARK  10 active torsions:
REMARK  status: ('A' for Active; 'I' for Inactive)
REMARK    1  A    between atoms: C2_2  and  C3_3 
REMARK    2  A    between atoms: C3_3  and  C4_4 
REMARK    3  A    between atoms: C4_4  and  N1_5 
REMARK    4  A    between atoms: N1_5  and  C6_7 
REMARK    5  A    between atoms: C6_7  and  S1_8 
REMARK    6  A    between atoms: S1_8  and  C7_9 
REMARK    7  A    between atoms: C7_9  and  C8_10 
REMARK       I    between atoms: C8_10  and  N2_12 
REMARK    8  A    between atoms: N2_12  and  C9_13 
REMARK    9  A    between atoms: C14_20  and  C15_21 
REMARK   10  A    between atoms: C17_24  and  N5_25 
ROOT
HETATM    1  C9  UNL     1      24.061   2.635  51.058  1.00  0.00     0.062 A 
HETATM    2  C10 UNL     1      25.335   3.042  50.634  1.00  0.00     0.034 A 
HETATM    3  C11 UNL     1      26.394   2.282  51.129  1.00  0.00     0.035 A 
HETATM    4  C12 UNL     1      26.174   1.217  51.971  1.00  0.00     0.072 A 
HETATM    5  N3  UNL     1      27.187   0.461  52.437  1.00  0.00    -0.241 NA
HETATM    6  C13 UNL     1      26.948  -0.588  53.241  1.00  0.00     0.234 A 
HETATM    7  N4  UNL     1      25.693  -0.900  53.592  1.00  0.00    -0.243 NA
HETATM    8  C14 UNL     1      24.593  -0.213  53.188  1.00  0.00     0.079 A 
HETATM    9  C16 UNL     1      24.915   0.841  52.371  1.00  0.00     0.049 A 
HETATM   10  C17 UNL     1      23.858   1.566  51.902  1.00  0.00     0.069 A 
ENDROOT
BRANCH   1  11
HETATM   11  N2  UNL     1      23.121   3.508  50.453  1.00  0.00    -0.325 N 
HETATM   12  C8  UNL     1      22.808   4.450  51.453  1.00  0.00     0.231 C 
HETATM   13  O1  UNL     1      23.210   4.608  52.657  1.00  0.00    -0.272 OA
HETATM   14  H17 UNL     1      22.551   3.795  49.645  1.00  0.00     0.169 HD
BRANCH  12  15
HETATM   15  C7  UNL     1      21.938   5.650  51.656  1.00  0.00     0.178 C 
BRANCH  15  16
HETATM   16  S1  UNL     1      22.153   6.767  50.282  1.00  0.00    -0.140 SA
BRANCH  16  17
HETATM   17  C6  UNL     1      23.741   7.561  50.281  1.00  0.00     0.191 C 
BRANCH  17  18
HETATM   18  N1  UNL     1      24.633   7.240  49.226  1.00  0.00    -0.408 N 
HETATM   19  C5  UNL     1      24.117   6.224  48.324  1.00  0.00     0.144 C 
BRANCH  18  20
HETATM   20  C4  UNL     1      26.015   7.079  49.509  1.00  0.00     0.117 C 
BRANCH  20  21
HETATM   21  C3  UNL     1      26.788   7.022  48.197  1.00  0.00     0.019 C 
BRANCH  21  22
HETATM   22  C2  UNL     1      28.058   6.246  48.302  1.00  0.00    -0.003 C 
HETATM   23  C1  UNL     1      27.846   4.795  48.593  1.00  0.00     0.005 C 
ENDBRANCH  21  22
ENDBRANCH  20  21
ENDBRANCH  18  20
ENDBRANCH  17  18
ENDBRANCH  16  17
ENDBRANCH  15  16
ENDBRANCH  12  15
ENDBRANCH   1  11
BRANCH  10  24
HETATM   24  N5  UNL     1      22.465   1.424  52.090  1.00  0.00    -0.392 N 
HETATM   25  C18 UNL     1      21.186   1.051  51.539  1.00  0.00     0.146 C 
HETATM   26  H23 UNL     1      22.358   1.718  53.114  1.00  0.00     0.159 HD
ENDBRANCH  10  24
BRANCH   8  27
HETATM   27  C15 UNL     1      23.268  -0.585  53.673  1.00  0.00     0.282 C 
HETATM   28  F1  UNL     1      22.694  -1.605  52.929  1.00  0.00    -0.249 F 
ENDBRANCH   8  27
TORSDOF 10
ENDMDL
MODEL 3
REMARK VINA RESULT:      -6.2      4.902      7.849
REMARK  10 active torsions:
REMARK  status: ('A' for Active; 'I' for Inactive)
REMARK    1  A    between atoms: C2_2  and  C3_3 
REMARK    2  A    between atoms: C3_3  and  C4_4 
REMARK    3  A    between atoms: C4_4  and  N1_5 
REMARK    4  A    between atoms: N1_5  and  C6_7 
REMARK    5  A    between atoms: C6_7  and  S1_8 
REMARK    6  A    between atoms: S1_8  and  C7_9 
REMARK    7  A    between atoms: C7_9  and  C8_10 
REMARK       I    between atoms: C8_10  and  N2_12 
REMARK    8  A    between atoms: N2_12  and  C9_13 
REMARK    9  A    between atoms: C14_20  and  C15_21 
REMARK   10  A    between atoms: C17_24  and  N5_25 
ROOT
HETATM    1  C9  UNL     1      20.789   0.353  52.446  1.00  0.00     0.062 A 
HETATM    2  C10 UNL     1      20.017  -0.429  53.317  1.00  0.00     0.034 A 
HETATM    3  C11 UNL     1      20.734  -1.079  54.322  1.00  0.00     0.035 A 
HETATM    4  C12 UNL     1      22.097  -0.941  54.425  1.00  0.00     0.072 A 
HETATM    5  N3  UNL     1      22.798  -1.544  55.405  1.00  0.00    -0.241 NA
HETATM    6  C13 UNL     1      24.128  -1.378  55.501  1.00  0.00     0.234 A 
HETATM    7  N4  UNL     1      24.780  -0.608  54.619  1.00  0.00    -0.243 NA
HETATM    8  C14 UNL     1      24.184   0.047  53.589  1.00  0.00     0.079 A 
HETATM    9  C16 UNL     1      22.829  -0.168  53.557  1.00  0.00     0.049 A 
HETATM   10  C17 UNL     1      22.155   0.480  52.563  1.00  0.00     0.069 A 
ENDROOT
BRANCH   1  11
HETATM   11  N2  UNL     1      19.898   0.935  51.507  1.00  0.00    -0.325 N 
HETATM   12  C8  UNL     1      19.671   2.241  51.986  1.00  0.00     0.231 C 
HETATM   13  O1  UNL     1      20.109   2.883  53.002  1.00  0.00    -0.272 OA
HETATM   14  H17 UNL     1      19.334   0.877  50.649  1.00  0.00     0.169 HD
BRANCH  12  15
HETATM   15  C7  UNL     1      18.891   3.466  51.630  1.00  0.00     0.178 C 
BRANCH  15  16
HETATM   16  S1  UNL     1      17.243   2.988  51.141  1.00  0.00    -0.140 SA
BRANCH  16  17
HETATM   17  C6  UNL     1      15.980   3.865  52.026  1.00  0.00     0.191 C 
BRANCH  17  18
HETATM   18  N1  UNL     1      14.644   3.410  51.885  1.00  0.00    -0.408 N 
HETATM   19  C5  UNL     1      13.886   4.150  50.890  1.00  0.00     0.144 C 
BRANCH  18  20
HETATM   20  C4  UNL     1      13.885   3.108  53.047  1.00  0.00     0.117 C 
BRANCH  20  21
HETATM   21  C3  UNL     1      13.554   4.403  53.776  1.00  0.00     0.019 C 
BRANCH  21  22
HETATM   22  C2  UNL     1      12.212   4.377  54.429  1.00  0.00    -0.003 C 
HETATM   23  C1  UNL     1      11.750   3.001  54.783  1.00  0.00     0.005 C 
ENDBRANCH  21  22
ENDBRANCH  20  21
ENDBRANCH  18  20
ENDBRANCH  17  18
ENDBRANCH  16  17
ENDBRANCH  15  16
ENDBRANCH  12  15
ENDBRANCH   1  11
BRANCH  10  24
HETATM   24  N5  UNL     1      22.594   1.360  51.549  1.00  0.00    -0.392 N 
HETATM   25  C18 UNL     1      22.723   1.639  50.140  1.00  0.00     0.146 C 
HETATM   26  H23 UNL     1      22.982   2.174  52.126  1.00  0.00     0.159 HD
ENDBRANCH  10  24
BRANCH   8  27
HETATM   27  C15 UNL     1      24.982   0.812  52.637  1.00  0.00     0.282 C 
HETATM   28  F1  UNL     1      25.353   2.055  53.128  1.00  0.00    -0.249 F 
ENDBRANCH   8  27
TORSDOF 10
ENDMDL
MODEL 4
REMARK VINA RESULT:      -6.1      1.474      2.766
REMARK  10 active torsions:
REMARK  status: ('A' for Active; 'I' for Inactive)
REMARK    1  A    between atoms: C2_2  and  C3_3 
REMARK    2  A    between atoms: C3_3  and  C4_4 
REMARK    3  A    between atoms: C4_4  and  N1_5 
REMARK    4  A    between atoms: N1_5  and  C6_7 
REMARK    5  A    between atoms: C6_7  and  S1_8 
REMARK    6  A    between atoms: S1_8  and  C7_9 
REMARK    7  A    between atoms: C7_9  and  C8_10 
REMARK       I    between atoms: C8_10  and  N2_12 
REMARK    8  A    between atoms: N2_12  and  C9_13 
REMARK    9  A    between atoms: C14_20  and  C15_21 
REMARK   10  A    between atoms: C17_24  and  N5_25 
ROOT
HETATM    1  C9  UNL     1      23.409   1.347  51.613  1.00  0.00     0.062 A 
HETATM    2  C10 UNL     1      22.192   0.708  51.892  1.00  0.00     0.034 A 
HETATM    3  C11 UNL     1      22.212  -0.150  52.991  1.00  0.00     0.035 A 
HETATM    4  C12 UNL     1      23.357  -0.335  53.728  1.00  0.00     0.072 A 
HETATM    5  N3  UNL     1      23.384  -1.143  54.806  1.00  0.00    -0.241 NA
HETATM    6  C13 UNL     1      24.507  -1.292  55.526  1.00  0.00     0.234 A 
HETATM    7  N4  UNL     1      25.625  -0.638  55.181  1.00  0.00    -0.243 NA
HETATM    8  C14 UNL     1      25.722   0.200  54.116  1.00  0.00     0.079 A 
HETATM    9  C16 UNL     1      24.537   0.304  53.432  1.00  0.00     0.049 A 
HETATM   10  C17 UNL     1      24.548   1.150  52.362  1.00  0.00     0.069 A 
ENDROOT
BRANCH   1  11
HETATM   11  N2  UNL     1      23.197   2.176  50.482  1.00  0.00    -0.325 N 
HETATM   12  C8  UNL     1      22.717   3.391  51.009  1.00  0.00     0.231 C 
HETATM   13  O1  UNL     1      22.492   3.794  52.202  1.00  0.00    -0.272 OA
HETATM   14  H17 UNL     1      23.218   2.330  49.464  1.00  0.00     0.169 HD
BRANCH  12  15
HETATM   15  C7  UNL     1      22.255   4.734  50.539  1.00  0.00     0.178 C 
BRANCH  15  16
HETATM   16  S1  UNL     1      23.200   6.000  51.367  1.00  0.00    -0.140 SA
BRANCH  16  17
HETATM   17  C6  UNL     1      23.620   7.355  50.300  1.00  0.00     0.191 C 
BRANCH  17  18
HETATM   18  N1  UNL     1      24.698   7.169  49.398  1.00  0.00    -0.408 N 
HETATM   19  C5  UNL     1      24.271   6.802  48.058  1.00  0.00     0.144 C 
BRANCH  18  20
HETATM   20  C4  UNL     1      25.849   6.455  49.827  1.00  0.00     0.117 C 
BRANCH  20  21
HETATM   21  C3  UNL     1      26.157   5.355  48.819  1.00  0.00     0.019 C 
BRANCH  21  22
HETATM   22  C2  UNL     1      27.620   5.107  48.657  1.00  0.00    -0.003 C 
HETATM   23  C1  UNL     1      28.363   6.277  48.100  1.00  0.00     0.005 C 
ENDBRANCH  21  22
ENDBRANCH  20  21
ENDBRANCH  18  20
ENDBRANCH  17  18
ENDBRANCH  16  17
ENDBRANCH  15  16
ENDBRANCH  12  15
ENDBRANCH   1  11
BRANCH  10  24
HETATM   24  N5  UNL     1      25.565   1.968  51.822  1.00  0.00    -0.392 N 
HETATM   25  C18 UNL     1      26.537   2.188  50.780  1.00  0.00     0.146 C 
HETATM   26  H23 UNL     1      25.574   2.783  52.517  1.00  0.00     0.159 HD
ENDBRANCH  10  24
BRANCH   8  27
HETATM   27  C15 UNL     1      26.998   0.821  53.776  1.00  0.00     0.282 C 
HETATM   28  F1  UNL     1      27.109   2.115  54.263  1.00  0.00    -0.249 F 
ENDBRANCH   8  27
TORSDOF 10
ENDMDL
MODEL 5
REMARK VINA RESULT:      -6.1      5.491      8.164
REMARK  10 active torsions:
REMARK  status: ('A' for Active; 'I' for Inactive)
REMARK    1  A    between atoms: C2_2  and  C3_3 
REMARK    2  A    between atoms: C3_3  and  C4_4 
REMARK    3  A    between atoms: C4_4  and  N1_5 
REMARK    4  A    between atoms: N1_5  and  C6_7 
REMARK    5  A    between atoms: C6_7  and  S1_8 
REMARK    6  A    between atoms: S1_8  and  C7_9 
REMARK    7  A    between atoms: C7_9  and  C8_10 
REMARK       I    between atoms: C8_10  and  N2_12 
REMARK    8  A    between atoms: N2_12  and  C9_13 
REMARK    9  A    between atoms: C14_20  and  C15_21 
REMARK   10  A    between atoms: C17_24  and  N5_25 
ROOT
HETATM    1  C9  UNL     1      20.319   1.186  51.366  1.00  0.00     0.062 A 
HETATM    2  C10 UNL     1      21.096   1.837  50.396  1.00  0.00     0.034 A 
HETATM    3  C11 UNL     1      22.474   1.777  50.604  1.00  0.00     0.035 A 
HETATM    4  C12 UNL     1      23.002   1.120  51.690  1.00  0.00     0.072 A 
HETATM    5  N3  UNL     1      24.332   1.035  51.889  1.00  0.00    -0.241 NA
HETATM    6  C13 UNL     1      24.827   0.369  52.945  1.00  0.00     0.234 A 
HETATM    7  N4  UNL     1      24.003  -0.223  53.820  1.00  0.00    -0.243 NA
HETATM    8  C14 UNL     1      22.648  -0.204  53.727  1.00  0.00     0.079 A 
HETATM    9  C16 UNL     1      22.217   0.491  52.625  1.00  0.00     0.049 A 
HETATM   10  C17 UNL     1      20.864   0.533  52.448  1.00  0.00     0.069 A 
ENDROOT
BRANCH   1  11
HETATM   11  N2  UNL     1      18.961   1.344  50.987  1.00  0.00    -0.325 N 
HETATM   12  C8  UNL     1      18.584   2.597  51.508  1.00  0.00     0.231 C 
HETATM   13  O1  UNL     1      19.217   3.490  52.172  1.00  0.00    -0.272 OA
HETATM   14  H17 UNL     1      18.112   0.996  50.521  1.00  0.00     0.169 HD
BRANCH  12  15
HETATM   15  C7  UNL     1      17.385   3.489  51.578  1.00  0.00     0.178 C 
BRANCH  15  16
HETATM   16  S1  UNL     1      15.915   2.515  51.310  1.00  0.00    -0.140 SA
BRANCH  16  17
HETATM   17  C6  UNL     1      14.823   2.517  52.708  1.00  0.00     0.191 C 
BRANCH  17  18
HETATM   18  N1  UNL     1      13.739   3.431  52.692  1.00  0.00    -0.408 N 
HETATM   19  C5  UNL     1      13.539   4.064  51.399  1.00  0.00     0.144 C 
BRANCH  18  20
HETATM   20  C4  UNL     1      13.569   4.328  53.779  1.00  0.00     0.117 C 
BRANCH  20  21
HETATM   21  C3  UNL     1      12.140   4.218  54.297  1.00  0.00     0.019 C 
BRANCH  21  22
HETATM   22  C2  UNL     1      11.623   2.818  54.283  1.00  0.00    -0.003 C 
HETATM   23  C1  UNL     1      11.702   2.141  55.613  1.00  0.00     0.005 C 
ENDBRANCH  21  22
ENDBRANCH  20  21
ENDBRANCH  18  20
ENDBRANCH  17  18
ENDBRANCH  16  17
ENDBRANCH  15  16
ENDBRANCH  12  15
ENDBRANCH   1  11
BRANCH  10  24
HETATM   24  N5  UNL     1      19.803  -0.029  53.191  1.00  0.00    -0.392 N 
HETATM   25  C18 UNL     1      18.701  -0.959  53.244  1.00  0.00     0.146 C 
HETATM   26  H23 UNL     1      19.910   0.473  54.130  1.00  0.00     0.159 HD
ENDBRANCH  10  24
BRANCH   8  27
HETATM   27  C15 UNL     1      21.825  -0.822  54.761  1.00  0.00     0.282 C 
HETATM   28  F1  UNL     1      21.780  -2.204  54.654  1.00  0.00    -0.249 F 
ENDBRANCH   8  27
TORSDOF 10
ENDMDL
MODEL 6
REMARK VINA RESULT:      -6.0      2.488      4.993
REMARK  10 active torsions:
REMARK  status: ('A' for Active; 'I' for Inactive)
REMARK    1  A    between atoms: C2_2  and  C3_3 
REMARK    2  A    between atoms: C3_3  and  C4_4 
REMARK    3  A    between atoms: C4_4  and  N1_5 
REMARK    4  A    between atoms: N1_5  and  C6_7 
REMARK    5  A    between atoms: C6_7  and  S1_8 
REMARK    6  A    between atoms: S1_8  and  C7_9 
REMARK    7  A    between atoms: C7_9  and  C8_10 
REMARK       I    between atoms: C8_10  and  N2_12 
REMARK    8  A    between atoms: N2_12  and  C9_13 
REMARK    9  A    between atoms: C14_20  and  C15_21 
REMARK   10  A    between atoms: C17_24  and  N5_25 
ROOT
HETATM    1  C9  UNL     1      24.598   1.660  51.764  1.00  0.00     0.062 A 
HETATM    2  C10 UNL     1      25.635   2.411  51.191  1.00  0.00     0.034 A 
HETATM    3  C11 UNL     1      26.888   2.235  51.780  1.00  0.00     0.035 A 
HETATM    4  C12 UNL     1      27.060   1.382  52.844  1.00  0.00     0.072 A 
HETATM    5  N3  UNL     1      28.268   1.185  53.406  1.00  0.00    -0.241 NA
HETATM    6  C13 UNL     1      28.419   0.330  54.430  1.00  0.00     0.234 A 
HETATM    7  N4  UNL     1      27.365  -0.344  54.910  1.00  0.00    -0.243 NA
HETATM    8  C14 UNL     1      26.100  -0.229  54.429  1.00  0.00     0.079 A 
HETATM    9  C16 UNL     1      26.025   0.659  53.385  1.00  0.00     0.049 A 
HETATM   10  C17 UNL     1      24.788   0.810  52.829  1.00  0.00     0.069 A 
ENDROOT
BRANCH   1  11
HETATM   11  N2  UNL     1      23.417   1.958  51.037  1.00  0.00    -0.325 N 
HETATM   12  C8  UNL     1      22.910   3.128  51.636  1.00  0.00     0.231 C 
HETATM   13  O1  UNL     1      23.320   3.861  52.601  1.00  0.00    -0.272 OA
HETATM   14  H17 UNL     1      22.744   1.743  50.288  1.00  0.00     0.169 HD
BRANCH  12  15
HETATM   15  C7  UNL     1      21.751   4.066  51.505  1.00  0.00     0.178 C 
BRANCH  15  16
HETATM   16  S1  UNL     1      20.238   3.172  51.811  1.00  0.00    -0.140 SA
BRANCH  16  17
HETATM   17  C6  UNL     1      19.276   2.922  50.341  1.00  0.00     0.191 C 
BRANCH  17  18
HETATM   18  N1  UNL     1      17.871   2.803  50.489  1.00  0.00    -0.408 N 
HETATM   19  C5  UNL     1      17.194   4.084  50.608  1.00  0.00     0.144 C 
BRANCH  18  20
HETATM   20  C4  UNL     1      17.344   1.816  51.365  1.00  0.00     0.117 C 
BRANCH  20  21
HETATM   21  C3  UNL     1      17.657   0.435  50.803  1.00  0.00     0.019 C 
BRANCH  21  22
HETATM   22  C2  UNL     1      17.594  -0.641  51.836  1.00  0.00    -0.003 C 
HETATM   23  C1  UNL     1      18.733  -0.604  52.803  1.00  0.00     0.005 C 
ENDBRANCH  21  22
ENDBRANCH  20  21
ENDBRANCH  18  20
ENDBRANCH  17  18
ENDBRANCH  16  17
ENDBRANCH  15  16
ENDBRANCH  12  15
ENDBRANCH   1  11
BRANCH  10  24
HETATM   24  N5  UNL     1      23.547   0.201  53.121  1.00  0.00    -0.392 N 
HETATM   25  C18 UNL     1      22.235   0.313  53.709  1.00  0.00     0.146 C 
HETATM   26  H23 UNL     1      23.674  -0.765  52.675  1.00  0.00     0.159 HD
ENDBRANCH  10  24
BRANCH   8  27
HETATM   27  C15 UNL     1      25.000  -0.954  55.055  1.00  0.00     0.282 C 
HETATM   28  F1  UNL     1      25.112  -1.008  56.436  1.00  0.00    -0.249 F 
ENDBRANCH   8  27
TORSDOF 10
ENDMDL
MODEL 7
REMARK VINA RESULT:      -6.0      2.193      3.029
REMARK  10 active torsions:
REMARK  status: ('A' for Active; 'I' for Inactive)
REMARK    1  A    between atoms: C2_2  and  C3_3 
REMARK    2  A    between atoms: C3_3  and  C4_4 
REMARK    3  A    between atoms: C4_4  and  N1_5 
REMARK    4  A    between atoms: N1_5  and  C6_7 
REMARK    5  A    between atoms: C6_7  and  S1_8 
REMARK    6  A    between atoms: S1_8  and  C7_9 
REMARK    7  A    between atoms: C7_9  and  C8_10 
REMARK       I    between atoms: C8_10  and  N2_12 
REMARK    8  A    between atoms: N2_12  and  C9_13 
REMARK    9  A    between atoms: C14_20  and  C15_21 
REMARK   10  A    between atoms: C17_24  and  N5_25 
ROOT
HETATM    1  C9  UNL     1      24.642   1.747  51.943  1.00  0.00     0.062 A 
HETATM    2  C10 UNL     1      25.676   2.456  51.314  1.00  0.00     0.034 A 
HETATM    3  C11 UNL     1      26.951   2.227  51.831  1.00  0.00     0.035 A 
HETATM    4  C12 UNL     1      27.148   1.362  52.881  1.00  0.00     0.072 A 
HETATM    5  N3  UNL     1      28.377   1.114  53.374  1.00  0.00    -0.241 NA
HETATM    6  C13 UNL     1      28.550   0.249  54.386  1.00  0.00     0.234 A 
HETATM    7  N4  UNL     1      27.498  -0.384  54.924  1.00  0.00    -0.243 NA
HETATM    8  C14 UNL     1      26.213  -0.214  54.515  1.00  0.00     0.079 A 
HETATM    9  C16 UNL     1      26.116   0.681  53.479  1.00  0.00     0.049 A 
HETATM   10  C17 UNL     1      24.857   0.885  52.994  1.00  0.00     0.069 A 
ENDROOT
BRANCH   1  11
HETATM   11  N2  UNL     1      23.435   2.097  51.285  1.00  0.00    -0.325 N 
HETATM   12  C8  UNL     1      23.011   3.283  51.915  1.00  0.00     0.231 C 
HETATM   13  O1  UNL     1      23.504   3.992  52.859  1.00  0.00    -0.272 OA
HETATM   14  H17 UNL     1      22.713   1.913  50.574  1.00  0.00     0.169 HD
BRANCH  12  15
HETATM   15  C7  UNL     1      21.885   4.267  51.853  1.00  0.00     0.178 C 
BRANCH  15  16
HETATM   16  S1  UNL     1      20.335   3.387  51.920  1.00  0.00    -0.140 SA
BRANCH  16  17
HETATM   17  C6  UNL     1      19.088   4.108  50.884  1.00  0.00     0.191 C 
BRANCH  17  18
HETATM   18  N1  UNL     1      19.476   4.524  49.584  1.00  0.00    -0.408 N 
HETATM   19  C5  UNL     1      18.445   5.274  48.888  1.00  0.00     0.144 C 
BRANCH  18  20
HETATM   20  C4  UNL     1      20.165   3.614  48.739  1.00  0.00     0.117 C 
BRANCH  20  21
HETATM   21  C3  UNL     1      21.388   4.307  48.153  1.00  0.00     0.019 C 
BRANCH  21  22
HETATM   22  C2  UNL     1      22.585   3.418  48.087  1.00  0.00    -0.003 C 
HETATM   23  C1  UNL     1      22.247   1.981  47.861  1.00  0.00     0.005 C 
ENDBRANCH  21  22
ENDBRANCH  20  21
ENDBRANCH  18  20
ENDBRANCH  17  18
ENDBRANCH  16  17
ENDBRANCH  15  16
ENDBRANCH  12  15
ENDBRANCH   1  11
BRANCH  10  24
HETATM   24  N5  UNL     1      23.610   0.326  53.355  1.00  0.00    -0.392 N 
HETATM   25  C18 UNL     1      22.391  -0.321  52.937  1.00  0.00     0.146 C 
HETATM   26  H23 UNL     1      23.627   0.437  54.419  1.00  0.00     0.159 HD
ENDBRANCH  10  24
BRANCH   8  27
HETATM   27  C15 UNL     1      25.121  -0.896  55.201  1.00  0.00     0.282 C 
HETATM   28  F1  UNL     1      25.286  -0.919  56.577  1.00  0.00    -0.249 F 
ENDBRANCH   8  27
TORSDOF 10
ENDMDL
MODEL 8
REMARK VINA RESULT:      -5.9      2.000      2.814
REMARK  10 active torsions:
REMARK  status: ('A' for Active; 'I' for Inactive)
REMARK    1  A    between atoms: C2_2  and  C3_3 
REMARK    2  A    between atoms: C3_3  and  C4_4 
REMARK    3  A    between atoms: C4_4  and  N1_5 
REMARK    4  A    between atoms: N1_5  and  C6_7 
REMARK    5  A    between atoms: C6_7  and  S1_8 
REMARK    6  A    between atoms: S1_8  and  C7_9 
REMARK    7  A    between atoms: C7_9  and  C8_10 
REMARK       I    between atoms: C8_10  and  N2_12 
REMARK    8  A    between atoms: N2_12  and  C9_13 
REMARK    9  A    between atoms: C14_20  and  C15_21 
REMARK   10  A    between atoms: C17_24  and  N5_25 
ROOT
HETATM    1  C9  UNL     1      23.672   1.309  51.802  1.00  0.00     0.062 A 
HETATM    2  C10 UNL     1      25.067   1.296  51.948  1.00  0.00     0.034 A 
HETATM    3  C11 UNL     1      25.541   0.544  53.023  1.00  0.00     0.035 A 
HETATM    4  C12 UNL     1      24.679  -0.124  53.860  1.00  0.00     0.072 A 
HETATM    5  N3  UNL     1      25.126  -0.872  54.888  1.00  0.00    -0.241 NA
HETATM    6  C13 UNL     1      24.268  -1.534  55.680  1.00  0.00     0.234 A 
HETATM    7  N4  UNL     1      22.948  -1.460  55.460  1.00  0.00    -0.243 NA
HETATM    8  C14 UNL     1      22.379  -0.738  54.460  1.00  0.00     0.079 A 
HETATM    9  C16 UNL     1      23.316  -0.092  53.693  1.00  0.00     0.049 A 
HETATM   10  C17 UNL     1      22.822   0.635  52.649  1.00  0.00     0.069 A 
ENDROOT
BRANCH   1  11
HETATM   11  N2  UNL     1      23.379   2.107  50.665  1.00  0.00    -0.325 N 
HETATM   12  C8  UNL     1      23.043   3.371  51.188  1.00  0.00     0.231 C 
HETATM   13  O1  UNL     1      22.987   3.833  52.380  1.00  0.00    -0.272 OA
HETATM   14  H17 UNL     1      23.290   2.220  49.646  1.00  0.00     0.169 HD
BRANCH  12  15
HETATM   15  C7  UNL     1      22.615   4.724  50.713  1.00  0.00     0.178 C 
BRANCH  15  16
HETATM   16  S1  UNL     1      23.839   5.928  51.196  1.00  0.00    -0.140 SA
BRANCH  16  17
HETATM   17  C6  UNL     1      25.202   6.017  50.062  1.00  0.00     0.191 C 
BRANCH  17  18
HETATM   18  N1  UNL     1      25.501   7.282  49.496  1.00  0.00    -0.408 N 
HETATM   19  C5  UNL     1      24.924   8.394  50.232  1.00  0.00     0.144 C 
BRANCH  18  20
HETATM   20  C4  UNL     1      25.421   7.450  48.087  1.00  0.00     0.117 C 
BRANCH  20  21
HETATM   21  C3  UNL     1      26.828   7.426  47.503  1.00  0.00     0.019 C 
BRANCH  21  22
HETATM   22  C2  UNL     1      27.876   7.119  48.521  1.00  0.00    -0.003 C 
HETATM   23  C1  UNL     1      28.803   6.023  48.107  1.00  0.00     0.005 C 
ENDBRANCH  21  22
ENDBRANCH  20  21
ENDBRANCH  18  20
ENDBRANCH  17  18
ENDBRANCH  16  17
ENDBRANCH  15  16
ENDBRANCH  12  15
ENDBRANCH   1  11
BRANCH  10  24
HETATM   24  N5  UNL     1      21.503   0.840  52.190  1.00  0.00    -0.392 N 
HETATM   25  C18 UNL     1      20.499   0.578  51.188  1.00  0.00     0.146 C 
HETATM   26  H23 UNL     1      21.099   1.455  52.969  1.00  0.00     0.159 HD
ENDBRANCH  10  24
BRANCH   8  27
HETATM   27  C15 UNL     1      20.927  -0.663  54.333  1.00  0.00     0.282 C 
HETATM   28  F1  UNL     1      20.326  -1.912  54.323  1.00  0.00    -0.249 F 
ENDBRANCH   8  27
TORSDOF 10
ENDMDL
MODEL 9
REMARK VINA RESULT:      -5.9      2.177      4.237
REMARK  10 active torsions:
REMARK  status: ('A' for Active; 'I' for Inactive)
REMARK    1  A    between atoms: C2_2  and  C3_3 
REMARK    2  A    between atoms: C3_3  and  C4_4 
REMARK    3  A    between atoms: C4_4  and  N1_5 
REMARK    4  A    between atoms: N1_5  and  C6_7 
REMARK    5  A    between atoms: C6_7  and  S1_8 
REMARK    6  A    between atoms: S1_8  and  C7_9 
REMARK    7  A    between atoms: C7_9  and  C8_10 
REMARK       I    between atoms: C8_10  and  N2_12 
REMARK    8  A    between atoms: N2_12  and  C9_13 
REMARK    9  A    between atoms: C14_20  and  C15_21 
REMARK   10  A    between atoms: C17_24  and  N5_25 
ROOT
HETATM    1  C9  UNL     1      24.026   3.203  52.014  1.00  0.00     0.062 A 
HETATM    2  C10 UNL     1      22.716   3.465  51.587  1.00  0.00     0.034 A 
HETATM    3  C11 UNL     1      21.798   2.444  51.832  1.00  0.00     0.035 A 
HETATM    4  C12 UNL     1      22.181   1.277  52.450  1.00  0.00     0.072 A 
HETATM    5  N3  UNL     1      21.299   0.293  52.714  1.00  0.00    -0.241 NA
HETATM    6  C13 UNL     1      21.689  -0.830  53.338  1.00  0.00     0.234 A 
HETATM    7  N4  UNL     1      22.967  -0.989  53.710  1.00  0.00    -0.243 NA
HETATM    8  C14 UNL     1      23.945  -0.071  53.497  1.00  0.00     0.079 A 
HETATM    9  C16 UNL     1      23.472   1.047  52.858  1.00  0.00     0.049 A 
HETATM   10  C17 UNL     1      24.392   2.029  52.631  1.00  0.00     0.069 A 
ENDROOT
BRANCH   1  11
HETATM   11  N2  UNL     1      24.806   4.344  51.692  1.00  0.00    -0.325 N 
HETATM   12  C8  UNL     1      25.220   4.135  50.362  1.00  0.00     0.231 C 
HETATM   13  O1  UNL     1      25.008   3.193  49.522  1.00  0.00    -0.272 OA
HETATM   14  H17 UNL     1      25.221   5.250  51.949  1.00  0.00     0.169 HD
BRANCH  12  15
HETATM   15  C7  UNL     1      26.041   4.804  49.305  1.00  0.00     0.178 C 
BRANCH  15  16
HETATM   16  S1  UNL     1      25.821   6.570  49.424  1.00  0.00    -0.140 SA
BRANCH  16  17
HETATM   17  C6  UNL     1      24.206   7.098  48.912  1.00  0.00     0.191 C 
BRANCH  17  18
HETATM   18  N1  UNL     1      23.521   6.291  47.969  1.00  0.00    -0.408 N 
HETATM   19  C5  UNL     1      23.217   6.986  46.729  1.00  0.00     0.144 C 
BRANCH  18  20
HETATM   20  C4  UNL     1      22.460   5.455  48.409  1.00  0.00     0.117 C 
BRANCH  20  21
HETATM   21  C3  UNL     1      22.335   4.270  47.460  1.00  0.00     0.019 C 
BRANCH  21  22
HETATM   22  C2  UNL     1      21.471   3.180  48.001  1.00  0.00    -0.003 C 
HETATM   23  C1  UNL     1      22.151   1.850  48.049  1.00  0.00     0.005 C 
ENDBRANCH  21  22
ENDBRANCH  20  21
ENDBRANCH  18  20
ENDBRANCH  17  18
ENDBRANCH  16  17
ENDBRANCH  15  16
ENDBRANCH  12  15
ENDBRANCH   1  11
BRANCH  10  24
HETATM   24  N5  UNL     1      25.765   2.120  52.951  1.00  0.00    -0.392 N 
HETATM   25  C18 UNL     1      27.135   2.028  52.509  1.00  0.00     0.146 C 
HETATM   26  H23 UNL     1      25.726   2.401  53.983  1.00  0.00     0.159 HD
ENDBRANCH  10  24
BRANCH   8  27
HETATM   27  C15 UNL     1      25.325  -0.356  53.878  1.00  0.00     0.282 C 
HETATM   28  F1  UNL     1      25.976  -1.169  52.963  1.00  0.00    -0.249 F 
ENDBRANCH   8  27
TORSDOF 10
ENDMDL
