MODEL 1
REMARK VINA RESULT:      -8.7      0.000      0.000
REMARK  4 active torsions:
REMARK  status: ('A' for Active; 'I' for Inactive)
REMARK    1  A    between atoms: C5_6  and  C6_7 
REMARK    2  A    between atoms: C10_11  and  O1_12 
REMARK    3  A    between atoms: O1_12  and  C11_13 
REMARK    4  A    between atoms: C11_13  and  C12_16 
ROOT
HETATM    1  C6  UNL     1      23.907   4.599  49.846  1.00  0.00     0.066 C 
HETATM    2  C7  UNL     1      24.397   3.234  50.308  1.00  0.00     0.042 C 
HETATM    3  C8  UNL     1      24.370   3.034  51.755  1.00  0.00    -0.023 C 
HETATM    4  C9  UNL     1      23.463   2.188  52.227  1.00  0.00     0.032 C 
HETATM    5  C10 UNL     1      22.382   1.313  51.799  1.00  0.00     0.073 C 
HETATM    6  C13 UNL     1      21.815   0.977  50.624  1.00  0.00     0.030 C 
HETATM    7  C14 UNL     1      21.615   0.981  49.173  1.00  0.00     0.168 C 
HETATM    8  N2  UNL     1      20.383   1.690  48.821  1.00  0.00    -0.219 N 
HETATM    9  C15 UNL     1      20.770   3.032  49.296  1.00  0.00     0.722 A 
HETATM   10  N3  UNL     1      19.821   3.925  49.630  1.00  0.00    -0.075 NA
HETATM   11  C16 UNL     1      20.131   5.157  50.073  1.00  0.00     0.138 A 
HETATM   12  C17 UNL     1      21.444   5.556  50.203  1.00  0.00     0.048 A 
HETATM   13  C18 UNL     1      22.412   4.639  49.860  1.00  0.00     0.063 A 
HETATM   14  N4  UNL     1      22.003   3.459  49.436  1.00  0.00    -0.067 NA
HETATM   15  H18 UNL     1      19.429   1.613  48.404  1.00  0.00     0.178 HD
ENDROOT
BRANCH   1  16
HETATM   16  C5  UNL     1      24.591   5.729  50.436  1.00  0.00     0.009 C 
HETATM   17  C4  UNL     1      25.605   6.452  50.000  1.00  0.00     0.002 C 
HETATM   18  N1  UNL     1      26.282   7.570  50.581  1.00  0.00    -0.393 N 
HETATM   19  C19 UNL     1      26.240   6.150  48.685  1.00  0.00     0.062 C 
HETATM   20  C3  UNL     1      26.926   8.234  49.439  1.00  0.00     0.124 C 
HETATM   21  H7  UNL     1      26.237   7.745  51.606  1.00  0.00     0.159 HD
HETATM   22  C2  UNL     1      27.480   7.017  48.719  1.00  0.00     0.005 C 
HETATM   23  C1  UNL     1      28.000   7.373  47.363  1.00  0.00     0.012 C 
ENDBRANCH   1  16
BRANCH   5  24
HETATM   24  O1  UNL     1      21.811   0.675  52.936  1.00  0.00    -0.280 OA
BRANCH  24  25
HETATM   25  C11 UNL     1      22.373  -0.456  53.529  1.00  0.00     0.418 C 
HETATM   26  F1  UNL     1      23.671  -0.208  53.938  1.00  0.00    -0.169 F 
HETATM   27  F2  UNL     1      22.354  -1.528  52.670  1.00  0.00    -0.169 F 
BRANCH  25  28
HETATM   28  C12 UNL     1      21.602  -0.794  54.804  1.00  0.00     0.455 C 
HETATM   29  F3  UNL     1      20.860   0.273  55.244  1.00  0.00    -0.205 F 
HETATM   30  F4  UNL     1      20.761  -1.880  54.548  1.00  0.00    -0.205 F 
ENDBRANCH  25  28
ENDBRANCH  24  25
ENDBRANCH   5  24
TORSDOF 4
ENDMDL
MODEL 2
REMARK VINA RESULT:      -8.6      3.751      5.474
REMARK  4 active torsions:
REMARK  status: ('A' for Active; 'I' for Inactive)
REMARK    1  A    between atoms: C5_6  and  C6_7 
REMARK    2  A    between atoms: C10_11  and  O1_12 
REMARK    3  A    between atoms: O1_12  and  C11_13 
REMARK    4  A    between atoms: C11_13  and  C12_16 
ROOT
HETATM    1  C6  UNL     1      24.532   0.603  52.717  1.00  0.00     0.066 C 
HETATM    2  C7  UNL     1      23.458  -0.462  52.549  1.00  0.00     0.042 C 
HETATM    3  C8  UNL     1      22.466  -0.502  53.621  1.00  0.00    -0.023 C 
HETATM    4  C9  UNL     1      21.241  -0.091  53.321  1.00  0.00     0.032 C 
HETATM    5  C10 UNL     1      20.449   0.441  52.222  1.00  0.00     0.073 C 
HETATM    6  C13 UNL     1      20.673   0.758  50.932  1.00  0.00     0.030 C 
HETATM    7  C14 UNL     1      21.440   0.907  49.693  1.00  0.00     0.168 C 
HETATM    8  N2  UNL     1      21.698   2.320  49.408  1.00  0.00    -0.219 N 
HETATM    9  C15 UNL     1      22.541   2.621  50.580  1.00  0.00     0.722 A 
HETATM   10  N3  UNL     1      22.641   3.885  51.029  1.00  0.00    -0.075 NA
HETATM   11  C16 UNL     1      23.394   4.201  52.098  1.00  0.00     0.138 A 
HETATM   12  C17 UNL     1      24.099   3.233  52.782  1.00  0.00     0.048 A 
HETATM   13  C18 UNL     1      23.994   1.941  52.320  1.00  0.00     0.063 A 
HETATM   14  N4  UNL     1      23.231   1.737  51.264  1.00  0.00    -0.067 NA
HETATM   15  H18 UNL     1      21.527   3.116  48.755  1.00  0.00     0.178 HD
ENDROOT
BRANCH   1  16
HETATM   16  C5  UNL     1      25.266   0.545  53.963  1.00  0.00     0.009 C 
HETATM   17  C4  UNL     1      26.515   0.203  54.217  1.00  0.00     0.002 C 
HETATM   18  N1  UNL     1      27.243   0.145  55.447  1.00  0.00    -0.393 N 
HETATM   19  C19 UNL     1      27.426  -0.213  53.113  1.00  0.00     0.062 C 
HETATM   20  C3  UNL     1      28.651   0.215  55.035  1.00  0.00     0.124 C 
HETATM   21  H7  UNL     1      26.744   0.070  56.357  1.00  0.00     0.159 HD
HETATM   22  C2  UNL     1      28.621  -0.754  53.867  1.00  0.00     0.005 C 
HETATM   23  C1  UNL     1      29.894  -0.709  53.084  1.00  0.00     0.012 C 
ENDBRANCH   1  16
BRANCH   5  24
HETATM   24  O1  UNL     1      19.116   0.668  52.665  1.00  0.00    -0.280 OA
BRANCH  24  25
HETATM   25  C11 UNL     1      18.023  -0.037  52.160  1.00  0.00     0.418 C 
HETATM   26  F1  UNL     1      18.374  -0.754  51.030  1.00  0.00    -0.169 F 
HETATM   27  F2  UNL     1      16.979   0.807  51.867  1.00  0.00    -0.169 F 
BRANCH  25  28
HETATM   28  C12 UNL     1      17.579  -1.081  53.182  1.00  0.00     0.455 C 
HETATM   29  F3  UNL     1      16.436  -1.726  52.785  1.00  0.00    -0.205 F 
HETATM   30  F4  UNL     1      18.609  -2.011  53.353  1.00  0.00    -0.205 F 
ENDBRANCH  25  28
ENDBRANCH  24  25
ENDBRANCH   5  24
TORSDOF 4
ENDMDL
MODEL 3
REMARK VINA RESULT:      -8.2      1.621      2.065
REMARK  4 active torsions:
REMARK  status: ('A' for Active; 'I' for Inactive)
REMARK    1  A    between atoms: C5_6  and  C6_7 
REMARK    2  A    between atoms: C10_11  and  O1_12 
REMARK    3  A    between atoms: O1_12  and  C11_13 
REMARK    4  A    between atoms: C11_13  and  C12_16 
ROOT
HETATM    1  C6  UNL     1      25.431   4.389  49.411  1.00  0.00     0.066 C 
HETATM    2  C7  UNL     1      25.714   2.925  49.719  1.00  0.00     0.042 C 
HETATM    3  C8  UNL     1      26.328   2.684  51.022  1.00  0.00    -0.023 C 
HETATM    4  C9  UNL     1      25.573   2.096  51.941  1.00  0.00     0.032 C 
HETATM    5  C10 UNL     1      24.236   1.561  52.154  1.00  0.00     0.073 C 
HETATM    6  C13 UNL     1      23.115   1.437  51.417  1.00  0.00     0.030 C 
HETATM    7  C14 UNL     1      22.258   1.551  50.235  1.00  0.00     0.168 C 
HETATM    8  N2  UNL     1      21.234   2.579  50.434  1.00  0.00    -0.219 N 
HETATM    9  C15 UNL     1      22.128   3.748  50.542  1.00  0.00     0.722 A 
HETATM   10  N3  UNL     1      21.716   4.850  51.195  1.00  0.00    -0.075 NA
HETATM   11  C16 UNL     1      22.501   5.934  51.322  1.00  0.00     0.138 A 
HETATM   12  C17 UNL     1      23.770   5.959  50.785  1.00  0.00     0.048 A 
HETATM   13  C18 UNL     1      24.189   4.830  50.118  1.00  0.00     0.063 A 
HETATM   14  N4  UNL     1      23.342   3.821  50.049  1.00  0.00    -0.067 NA
HETATM   15  H18 UNL     1      20.212   2.778  50.520  1.00  0.00     0.178 HD
ENDROOT
BRANCH   1  16
HETATM   16  C5  UNL     1      26.575   5.269  49.503  1.00  0.00     0.009 C 
HETATM   17  C4  UNL     1      26.848   6.403  48.885  1.00  0.00     0.002 C 
HETATM   18  N1  UNL     1      27.978   7.274  48.974  1.00  0.00    -0.393 N 
HETATM   19  C19 UNL     1      25.889   6.977  47.899  1.00  0.00     0.062 C 
HETATM   20  C3  UNL     1      27.477   8.564  48.480  1.00  0.00     0.124 C 
HETATM   21  H7  UNL     1      28.891   6.927  49.332  1.00  0.00     0.159 HD
HETATM   22  C2  UNL     1      26.702   8.085  47.266  1.00  0.00     0.005 C 
HETATM   23  C1  UNL     1      25.869   9.180  46.680  1.00  0.00     0.012 C 
ENDBRANCH   1  16
BRANCH   5  24
HETATM   24  O1  UNL     1      24.132   1.057  53.481  1.00  0.00    -0.280 OA
BRANCH  24  25
HETATM   25  C11 UNL     1      24.294  -0.294  53.789  1.00  0.00     0.418 C 
HETATM   26  F1  UNL     1      25.139  -0.458  54.873  1.00  0.00    -0.169 F 
HETATM   27  F2  UNL     1      24.780  -0.995  52.712  1.00  0.00    -0.169 F 
BRANCH  25  28
HETATM   28  C12 UNL     1      22.952  -0.876  54.229  1.00  0.00     0.455 C 
HETATM   29  F3  UNL     1      23.066  -1.585  55.398  1.00  0.00    -0.205 F 
HETATM   30  F4  UNL     1      22.041   0.171  54.400  1.00  0.00    -0.205 F 
ENDBRANCH  25  28
ENDBRANCH  24  25
ENDBRANCH   5  24
TORSDOF 4
ENDMDL
MODEL 4
REMARK VINA RESULT:      -8.2      3.725      7.297
REMARK  4 active torsions:
REMARK  status: ('A' for Active; 'I' for Inactive)
REMARK    1  A    between atoms: C5_6  and  C6_7 
REMARK    2  A    between atoms: C10_11  and  O1_12 
REMARK    3  A    between atoms: O1_12  and  C11_13 
REMARK    4  A    between atoms: C11_13  and  C12_16 
ROOT
HETATM    1  C6  UNL     1      20.554   0.941  52.450  1.00  0.00     0.066 C 
HETATM    2  C7  UNL     1      21.661   0.898  53.495  1.00  0.00     0.042 C 
HETATM    3  C8  UNL     1      22.432  -0.342  53.514  1.00  0.00    -0.023 C 
HETATM    4  C9  UNL     1      23.685  -0.276  53.080  1.00  0.00     0.032 C 
HETATM    5  C10 UNL     1      24.660   0.656  52.535  1.00  0.00     0.073 C 
HETATM    6  C13 UNL     1      24.677   1.967  52.225  1.00  0.00     0.030 C 
HETATM    7  C14 UNL     1      24.155   3.329  52.094  1.00  0.00     0.168 C 
HETATM    8  N2  UNL     1      23.931   3.665  50.686  1.00  0.00    -0.219 N 
HETATM    9  C15 UNL     1      22.875   2.675  50.399  1.00  0.00     0.722 A 
HETATM   10  N3  UNL     1      22.670   2.260  49.136  1.00  0.00    -0.075 NA
HETATM   11  C16 UNL     1      21.723   1.354  48.832  1.00  0.00     0.138 A 
HETATM   12  C17 UNL     1      20.919   0.811  49.812  1.00  0.00     0.048 A 
HETATM   13  C18 UNL     1      21.133   1.237  51.103  1.00  0.00     0.063 A 
HETATM   14  N4  UNL     1      22.086   2.130  51.294  1.00  0.00    -0.067 NA
HETATM   15  H18 UNL     1      24.207   4.279  49.888  1.00  0.00     0.178 HD
ENDROOT
BRANCH   1  16
HETATM   16  C5  UNL     1      19.600  -0.144  52.520  1.00  0.00     0.009 C 
HETATM   17  C4  UNL     1      18.318  -0.191  52.209  1.00  0.00     0.002 C 
HETATM   18  N1  UNL     1      17.372  -1.262  52.278  1.00  0.00    -0.393 N 
HETATM   19  C19 UNL     1      17.621   1.018  51.686  1.00  0.00     0.062 C 
HETATM   20  C3  UNL     1      16.312  -0.865  51.340  1.00  0.00     0.124 C 
HETATM   21  H7  UNL     1      17.536  -2.078  52.902  1.00  0.00     0.159 HD
HETATM   22  C2  UNL     1      16.168   0.596  51.726  1.00  0.00     0.005 C 
HETATM   23  C1  UNL     1      15.302   1.335  50.757  1.00  0.00     0.012 C 
ENDBRANCH   1  16
BRANCH   5  24
HETATM   24  O1  UNL     1      25.881  -0.029  52.282  1.00  0.00    -0.280 OA
BRANCH  24  25
HETATM   25  C11 UNL     1      26.999   0.091  53.108  1.00  0.00     0.418 C 
HETATM   26  F1  UNL     1      26.628   0.405  54.403  1.00  0.00    -0.169 F 
HETATM   27  F2  UNL     1      27.869   1.042  52.632  1.00  0.00    -0.169 F 
BRANCH  25  28
HETATM   28  C12 UNL     1      27.704  -1.261  53.204  1.00  0.00     0.455 C 
HETATM   29  F3  UNL     1      27.174  -2.171  52.325  1.00  0.00    -0.205 F 
HETATM   30  F4  UNL     1      29.064  -1.081  52.934  1.00  0.00    -0.205 F 
ENDBRANCH  25  28
ENDBRANCH  24  25
ENDBRANCH   5  24
TORSDOF 4
ENDMDL
MODEL 5
REMARK VINA RESULT:      -7.9      3.949      6.037
REMARK  4 active torsions:
REMARK  status: ('A' for Active; 'I' for Inactive)
REMARK    1  A    between atoms: C5_6  and  C6_7 
REMARK    2  A    between atoms: C10_11  and  O1_12 
REMARK    3  A    between atoms: O1_12  and  C11_13 
REMARK    4  A    between atoms: C11_13  and  C12_16 
ROOT
HETATM    1  C6  UNL     1      23.286   1.136  51.999  1.00  0.00     0.066 C 
HETATM    2  C7  UNL     1      21.913   0.716  51.494  1.00  0.00     0.042 C 
HETATM    3  C8  UNL     1      20.853   0.766  52.498  1.00  0.00    -0.023 C 
HETATM    4  C9  UNL     1      19.938   1.716  52.358  1.00  0.00     0.032 C 
HETATM    5  C10 UNL     1      19.570   2.834  51.501  1.00  0.00     0.073 C 
HETATM    6  C13 UNL     1      20.068   3.404  50.387  1.00  0.00     0.030 C 
HETATM    7  C14 UNL     1      20.988   3.591  49.262  1.00  0.00     0.168 C 
HETATM    8  N2  UNL     1      21.813   4.784  49.459  1.00  0.00    -0.219 N 
HETATM    9  C15 UNL     1      22.545   4.339  50.660  1.00  0.00     0.722 A 
HETATM   10  N3  UNL     1      23.071   5.247  51.501  1.00  0.00    -0.075 NA
HETATM   11  C16 UNL     1      23.740   4.884  52.610  1.00  0.00     0.138 A 
HETATM   12  C17 UNL     1      23.913   3.554  52.931  1.00  0.00     0.048 A 
HETATM   13  C18 UNL     1      23.373   2.627  52.069  1.00  0.00     0.063 A 
HETATM   14  N4  UNL     1      22.736   3.088  51.009  1.00  0.00    -0.067 NA
HETATM   15  H18 UNL     1      22.055   5.737  49.107  1.00  0.00     0.178 HD
ENDROOT
BRANCH   1  16
HETATM   16  C5  UNL     1      23.768   0.405  53.151  1.00  0.00     0.009 C 
HETATM   17  C4  UNL     1      24.994   0.116  53.542  1.00  0.00     0.002 C 
HETATM   18  N1  UNL     1      25.473  -0.606  54.681  1.00  0.00    -0.393 N 
HETATM   19  C19 UNL     1      26.170   0.565  52.743  1.00  0.00     0.062 C 
HETATM   20  C3  UNL     1      26.860  -0.148  54.840  1.00  0.00     0.124 C 
HETATM   21  H7  UNL     1      24.856  -1.277  55.183  1.00  0.00     0.159 HD
HETATM   22  C2  UNL     1      27.308  -0.192  53.390  1.00  0.00     0.005 C 
HETATM   23  C1  UNL     1      28.642   0.459  53.210  1.00  0.00     0.012 C 
ENDBRANCH   1  16
BRANCH   5  24
HETATM   24  O1  UNL     1      18.386   3.445  52.001  1.00  0.00    -0.280 OA
BRANCH  24  25
HETATM   25  C11 UNL     1      17.116   3.153  51.501  1.00  0.00     0.418 C 
HETATM   26  F1  UNL     1      16.652   1.949  51.999  1.00  0.00    -0.169 F 
HETATM   27  F2  UNL     1      17.119   3.117  50.128  1.00  0.00    -0.169 F 
BRANCH  25  28
HETATM   28  C12 UNL     1      16.125   4.206  51.995  1.00  0.00     0.455 C 
HETATM   29  F3  UNL     1      15.232   4.558  51.015  1.00  0.00    -0.205 F 
HETATM   30  F4  UNL     1      15.438   3.695  53.099  1.00  0.00    -0.205 F 
ENDBRANCH  25  28
ENDBRANCH  24  25
ENDBRANCH   5  24
TORSDOF 4
ENDMDL
MODEL 6
REMARK VINA RESULT:      -7.8     10.041     12.915
REMARK  4 active torsions:
REMARK  status: ('A' for Active; 'I' for Inactive)
REMARK    1  A    between atoms: C5_6  and  C6_7 
REMARK    2  A    between atoms: C10_11  and  O1_12 
REMARK    3  A    between atoms: O1_12  and  C11_13 
REMARK    4  A    between atoms: C11_13  and  C12_16 
ROOT
HETATM    1  C6  UNL     1      33.975   5.594  44.762  1.00  0.00     0.066 C 
HETATM    2  C7  UNL     1      33.394   6.979  45.012  1.00  0.00     0.042 C 
HETATM    3  C8  UNL     1      31.979   6.989  45.375  1.00  0.00    -0.023 C 
HETATM    4  C9  UNL     1      31.684   7.309  46.629  1.00  0.00     0.032 C 
HETATM    5  C10 UNL     1      32.304   7.679  47.892  1.00  0.00     0.073 C 
HETATM    6  C13 UNL     1      33.562   7.866  48.335  1.00  0.00     0.030 C 
HETATM    7  C14 UNL     1      35.023   7.934  48.258  1.00  0.00     0.168 C 
HETATM    8  N2  UNL     1      35.634   6.809  48.969  1.00  0.00    -0.219 N 
HETATM    9  C15 UNL     1      35.119   5.718  48.120  1.00  0.00     0.722 A 
HETATM   10  N3  UNL     1      35.004   4.475  48.620  1.00  0.00    -0.075 NA
HETATM   11  C16 UNL     1      34.534   3.454  47.882  1.00  0.00     0.138 A 
HETATM   12  C17 UNL     1      34.147   3.644  46.572  1.00  0.00     0.048 A 
HETATM   13  C18 UNL     1      34.266   4.917  46.063  1.00  0.00     0.063 A 
HETATM   14  N4  UNL     1      34.740   5.847  46.870  1.00  0.00    -0.067 NA
HETATM   15  H18 UNL     1      36.235   6.516  49.771  1.00  0.00     0.178 HD
ENDROOT
BRANCH   1  16
HETATM   16  C5  UNL     1      33.282   4.808  43.764  1.00  0.00     0.009 C 
HETATM   17  C4  UNL     1      33.500   4.663  42.471  1.00  0.00     0.002 C 
HETATM   18  N1  UNL     1      32.817   3.886  41.483  1.00  0.00    -0.393 N 
HETATM   19  C19 UNL     1      34.626   5.381  41.808  1.00  0.00     0.062 C 
HETATM   20  C3  UNL     1      33.804   3.725  40.406  1.00  0.00     0.124 C 
HETATM   21  H7  UNL     1      31.836   3.576  41.635  1.00  0.00     0.159 HD
HETATM   22  C2  UNL     1      34.340   5.145  40.341  1.00  0.00     0.005 C 
HETATM   23  C1  UNL     1      35.553   5.232  39.471  1.00  0.00     0.012 C 
ENDBRANCH   1  16
BRANCH   5  24
HETATM   24  O1  UNL     1      31.294   7.884  48.874  1.00  0.00    -0.280 OA
BRANCH  24  25
HETATM   25  C11 UNL     1      30.637   9.104  49.038  1.00  0.00     0.418 C 
HETATM   26  F1  UNL     1      30.927   9.967  47.996  1.00  0.00    -0.169 F 
HETATM   27  F2  UNL     1      30.971   9.692  50.234  1.00  0.00    -0.169 F 
BRANCH  25  28
HETATM   28  C12 UNL     1      29.128   8.878  48.970  1.00  0.00     0.455 C 
HETATM   29  F3  UNL     1      28.822   7.556  48.766  1.00  0.00    -0.205 F 
HETATM   30  F4  UNL     1      28.552   9.316  50.166  1.00  0.00    -0.205 F 
ENDBRANCH  25  28
ENDBRANCH  24  25
ENDBRANCH   5  24
TORSDOF 4
ENDMDL
MODEL 7
REMARK VINA RESULT:      -7.8      3.777      5.538
REMARK  4 active torsions:
REMARK  status: ('A' for Active; 'I' for Inactive)
REMARK    1  A    between atoms: C5_6  and  C6_7 
REMARK    2  A    between atoms: C10_11  and  O1_12 
REMARK    3  A    between atoms: O1_12  and  C11_13 
REMARK    4  A    between atoms: C11_13  and  C12_16 
ROOT
HETATM    1  C6  UNL     1      24.554   1.015  52.233  1.00  0.00     0.066 C 
HETATM    2  C7  UNL     1      23.356   0.091  52.403  1.00  0.00     0.042 C 
HETATM    3  C8  UNL     1      22.407   0.508  53.431  1.00  0.00    -0.023 C 
HETATM    4  C9  UNL     1      21.228   0.954  53.015  1.00  0.00     0.032 C 
HETATM    5  C10 UNL     1      20.466   1.213  51.802  1.00  0.00     0.073 C 
HETATM    6  C13 UNL     1      20.679   1.085  50.479  1.00  0.00     0.030 C 
HETATM    7  C14 UNL     1      21.412   0.746  49.257  1.00  0.00     0.168 C 
HETATM    8  N2  UNL     1      21.824   1.958  48.546  1.00  0.00    -0.219 N 
HETATM    9  C15 UNL     1      22.740   2.501  49.568  1.00  0.00     0.722 A 
HETATM   10  N3  UNL     1      23.004   3.819  49.600  1.00  0.00    -0.075 NA
HETATM   11  C16 UNL     1      23.827   4.356  50.519  1.00  0.00     0.138 A 
HETATM   12  C17 UNL     1      24.437   3.568  51.472  1.00  0.00     0.048 A 
HETATM   13  C18 UNL     1      24.164   2.219  51.437  1.00  0.00     0.063 A 
HETATM   14  N4  UNL     1      23.344   1.794  50.495  1.00  0.00    -0.067 NA
HETATM   15  H18 UNL     1      21.725   2.528  47.677  1.00  0.00     0.178 HD
ENDROOT
BRANCH   1  16
HETATM   16  C5  UNL     1      25.321   1.255  53.436  1.00  0.00     0.009 C 
HETATM   17  C4  UNL     1      26.478   0.765  53.838  1.00  0.00     0.002 C 
HETATM   18  N1  UNL     1      27.238   1.001  55.027  1.00  0.00    -0.393 N 
HETATM   19  C19 UNL     1      27.220  -0.214  52.993  1.00  0.00     0.062 C 
HETATM   20  C3  UNL     1      28.605   0.605  54.664  1.00  0.00     0.124 C 
HETATM   21  H7  UNL     1      26.782   1.374  55.884  1.00  0.00     0.159 HD
HETATM   22  C2  UNL     1      28.307  -0.691  53.932  1.00  0.00     0.005 C 
HETATM   23  C1  UNL     1      29.519  -1.215  53.229  1.00  0.00     0.012 C 
ENDBRANCH   1  16
BRANCH   5  24
HETATM   24  O1  UNL     1      19.185   1.729  52.149  1.00  0.00    -0.280 OA
BRANCH  24  25
HETATM   25  C11 UNL     1      18.522   2.685  51.379  1.00  0.00     0.418 C 
HETATM   26  F1  UNL     1      17.291   2.996  51.926  1.00  0.00    -0.169 F 
HETATM   27  F2  UNL     1      18.360   2.254  50.084  1.00  0.00    -0.169 F 
BRANCH  25  28
HETATM   28  C12 UNL     1      19.317   3.990  51.400  1.00  0.00     0.455 C 
HETATM   29  F3  UNL     1      20.308   3.963  52.349  1.00  0.00    -0.205 F 
HETATM   30  F4  UNL     1      19.879   4.196  50.137  1.00  0.00    -0.205 F 
ENDBRANCH  25  28
ENDBRANCH  24  25
ENDBRANCH   5  24
TORSDOF 4
ENDMDL
MODEL 8
REMARK VINA RESULT:      -7.7      2.573      3.423
REMARK  4 active torsions:
REMARK  status: ('A' for Active; 'I' for Inactive)
REMARK    1  A    between atoms: C5_6  and  C6_7 
REMARK    2  A    between atoms: C10_11  and  O1_12 
REMARK    3  A    between atoms: O1_12  and  C11_13 
REMARK    4  A    between atoms: C11_13  and  C12_16 
ROOT
HETATM    1  C6  UNL     1      25.011   4.632  49.322  1.00  0.00     0.066 C 
HETATM    2  C7  UNL     1      25.640   3.257  49.502  1.00  0.00     0.042 C 
HETATM    3  C8  UNL     1      26.631   3.176  50.572  1.00  0.00    -0.023 C 
HETATM    4  C9  UNL     1      26.291   2.486  51.653  1.00  0.00     0.032 C 
HETATM    5  C10 UNL     1      25.194   1.717  52.223  1.00  0.00     0.073 C 
HETATM    6  C13 UNL     1      23.955   1.362  51.832  1.00  0.00     0.030 C 
HETATM    7  C14 UNL     1      22.793   1.277  50.944  1.00  0.00     0.168 C 
HETATM    8  N2  UNL     1      21.693   2.101  51.449  1.00  0.00    -0.219 N 
HETATM    9  C15 UNL     1      22.344   3.420  51.328  1.00  0.00     0.722 A 
HETATM   10  N3  UNL     1      21.934   4.444  52.096  1.00  0.00    -0.075 NA
HETATM   11  C16 UNL     1      22.504   5.660  52.022  1.00  0.00     0.138 A 
HETATM   12  C17 UNL     1      23.542   5.905  51.147  1.00  0.00     0.048 A 
HETATM   13  C18 UNL     1      23.960   4.855  50.363  1.00  0.00     0.063 A 
HETATM   14  N4  UNL     1      23.333   3.703  50.512  1.00  0.00    -0.067 NA
HETATM   15  H18 UNL     1      20.719   2.108  51.826  1.00  0.00     0.178 HD
ENDROOT
BRANCH   1  16
HETATM   16  C5  UNL     1      25.948   5.714  49.107  1.00  0.00     0.009 C 
HETATM   17  C4  UNL     1      25.850   6.812  48.383  1.00  0.00     0.002 C 
HETATM   18  N1  UNL     1      26.774   7.883  48.169  1.00  0.00    -0.393 N 
HETATM   19  C19 UNL     1      24.610   7.101  47.608  1.00  0.00     0.062 C 
HETATM   20  C3  UNL     1      25.931   9.003  47.730  1.00  0.00     0.124 C 
HETATM   21  H7  UNL     1      27.793   7.746  48.330  1.00  0.00     0.159 HD
HETATM   22  C2  UNL     1      25.031   8.273  46.749  1.00  0.00     0.005 C 
HETATM   23  C1  UNL     1      23.891   9.134  46.308  1.00  0.00     0.012 C 
ENDBRANCH   1  16
BRANCH   5  24
HETATM   24  O1  UNL     1      25.567   1.244  53.512  1.00  0.00    -0.280 OA
BRANCH  24  25
HETATM   25  C11 UNL     1      25.960  -0.074  53.748  1.00  0.00     0.418 C 
HETATM   26  F1  UNL     1      24.963  -0.961  53.386  1.00  0.00    -0.169 F 
HETATM   27  F2  UNL     1      26.295  -0.264  55.067  1.00  0.00    -0.169 F 
BRANCH  25  28
HETATM   28  C12 UNL     1      27.150  -0.413  52.852  1.00  0.00     0.455 C 
HETATM   29  F3  UNL     1      28.135  -1.069  53.545  1.00  0.00    -0.205 F 
HETATM   30  F4  UNL     1      26.705  -1.213  51.795  1.00  0.00    -0.205 F 
ENDBRANCH  25  28
ENDBRANCH  24  25
ENDBRANCH   5  24
TORSDOF 4
ENDMDL
MODEL 9
REMARK VINA RESULT:      -7.6      1.711      2.494
REMARK  4 active torsions:
REMARK  status: ('A' for Active; 'I' for Inactive)
REMARK    1  A    between atoms: C5_6  and  C6_7 
REMARK    2  A    between atoms: C10_11  and  O1_12 
REMARK    3  A    between atoms: O1_12  and  C11_13 
REMARK    4  A    between atoms: C11_13  and  C12_16 
ROOT
HETATM    1  C6  UNL     1      25.012   6.300  49.133  1.00  0.00     0.066 C 
HETATM    2  C7  UNL     1      25.462   4.863  48.906  1.00  0.00     0.042 C 
HETATM    3  C8  UNL     1      25.953   4.182  50.101  1.00  0.00    -0.023 C 
HETATM    4  C9  UNL     1      25.189   3.218  50.599  1.00  0.00     0.032 C 
HETATM    5  C10 UNL     1      23.926   2.530  50.379  1.00  0.00     0.073 C 
HETATM    6  C13 UNL     1      22.923   2.609  49.483  1.00  0.00     0.030 C 
HETATM    7  C14 UNL     1      22.197   3.106  48.312  1.00  0.00     0.168 C 
HETATM    8  N2  UNL     1      21.023   3.881  48.720  1.00  0.00    -0.219 N 
HETATM    9  C15 UNL     1      21.725   4.985  49.401  1.00  0.00     0.722 A 
HETATM   10  N3  UNL     1      21.092   5.701  50.347  1.00  0.00    -0.075 NA
HETATM   11  C16 UNL     1      21.698   6.711  50.997  1.00  0.00     0.138 A 
HETATM   12  C17 UNL     1      23.003   7.054  50.717  1.00  0.00     0.048 A 
HETATM   13  C18 UNL     1      23.649   6.319  49.749  1.00  0.00     0.063 A 
HETATM   14  N4  UNL     1      22.965   5.350  49.170  1.00  0.00    -0.067 NA
HETATM   15  H18 UNL     1      19.980   3.941  48.712  1.00  0.00     0.178 HD
ENDROOT
BRANCH   1  16
HETATM   16  C5  UNL     1      26.004   7.167  49.731  1.00  0.00     0.009 C 
HETATM   17  C4  UNL     1      27.157   7.611  49.268  1.00  0.00     0.002 C 
HETATM   18  N1  UNL     1      28.139   8.469  49.856  1.00  0.00    -0.393 N 
HETATM   19  C19 UNL     1      27.628   7.222  47.908  1.00  0.00     0.062 C 
HETATM   20  C3  UNL     1      28.889   8.996  48.708  1.00  0.00     0.124 C 
HETATM   21  H7  UNL     1      28.188   8.593  50.888  1.00  0.00     0.159 HD
HETATM   22  C2  UNL     1      29.057   7.717  47.908  1.00  0.00     0.005 C 
HETATM   23  C1  UNL     1      29.596   7.993  46.540  1.00  0.00     0.012 C 
ENDBRANCH   1  16
BRANCH   5  24
HETATM   24  O1  UNL     1      23.746   1.537  51.384  1.00  0.00    -0.280 OA
BRANCH  24  25
HETATM   25  C11 UNL     1      23.328   1.842  52.679  1.00  0.00     0.418 C 
HETATM   26  F1  UNL     1      22.545   2.983  52.693  1.00  0.00    -0.169 F 
HETATM   27  F2  UNL     1      24.400   2.005  53.522  1.00  0.00    -0.169 F 
BRANCH  25  28
HETATM   28  C12 UNL     1      22.423   0.723  53.194  1.00  0.00     0.455 C 
HETATM   29  F3  UNL     1      21.853   0.020  52.164  1.00  0.00    -0.205 F 
HETATM   30  F4  UNL     1      23.181  -0.139  53.991  1.00  0.00    -0.205 F 
ENDBRANCH  25  28
ENDBRANCH  24  25
ENDBRANCH   5  24
TORSDOF 4
ENDMDL
