MODEL 1
REMARK VINA RESULT:      -8.2      0.000      0.000
REMARK  1 active torsions:
REMARK  status: ('A' for Active; 'I' for Inactive)
REMARK    1  A    between atoms: C7_7  and  C8_8 
ROOT
HETATM    1  C1  UNL     1      22.576   2.527  48.442  1.00  0.00     0.068 C 
HETATM    2  C2  UNL     1      23.168   2.919  49.747  1.00  0.00     0.004 A 
HETATM    3  C3  UNL     1      23.882   4.033  49.812  1.00  0.00     0.024 A 
HETATM    4  C4  UNL     1      24.494   4.484  51.056  1.00  0.00     0.000 A 
HETATM    5  C5  UNL     1      24.310   3.728  52.155  1.00  0.00     0.005 A 
HETATM    6  C6  UNL     1      23.541   2.476  52.230  1.00  0.00     0.161 A 
HETATM    7  C7  UNL     1      24.160   1.342  52.876  1.00  0.00     0.068 C 
HETATM    8  N1  UNL     1      23.441   0.397  53.430  1.00  0.00    -0.260 NA
HETATM    9  C14 UNL     1      21.999   0.346  53.477  1.00  0.00     0.277 C 
HETATM   10  C15 UNL     1      21.539  -0.756  54.311  1.00  0.00     0.097 C 
HETATM   11  N2  UNL     1      21.168  -1.643  54.958  1.00  0.00    -0.194 NA
HETATM   12  S1  UNL     1      21.353   0.105  51.825  1.00  0.00    -0.108 SA
HETATM   13  C16 UNL     1      22.206   0.983  50.541  1.00  0.00     0.201 C 
HETATM   14  N3  UNL     1      22.988   2.111  50.933  1.00  0.00    -0.362 N 
ENDROOT
BRANCH   7  15
HETATM   15  C8  UNL     1      25.572   1.018  53.042  1.00  0.00    -0.009 A 
HETATM   16  C9  UNL     1      26.507   1.811  53.663  1.00  0.00     0.015 A 
HETATM   17  C10 UNL     1      27.840   1.508  53.828  1.00  0.00     0.024 A 
HETATM   18  C11 UNL     1      28.312   0.312  53.339  1.00  0.00     0.034 A 
HETATM   19 CL1  UNL     1      29.980  -0.192  53.482  1.00  0.00    -0.084 Cl
HETATM   20  C12 UNL     1      27.415  -0.519  52.707  1.00  0.00     0.024 A 
HETATM   21  C13 UNL     1      26.116  -0.159  52.580  1.00  0.00     0.015 A 
ENDBRANCH   7  15
TORSDOF 1
ENDMDL
MODEL 2
REMARK VINA RESULT:      -7.6      3.170      5.970
REMARK  1 active torsions:
REMARK  status: ('A' for Active; 'I' for Inactive)
REMARK    1  A    between atoms: C7_7  and  C8_8 
ROOT
HETATM    1  C1  UNL     1      21.747  -1.915  53.995  1.00  0.00     0.068 C 
HETATM    2  C2  UNL     1      21.645  -0.480  53.627  1.00  0.00     0.004 A 
HETATM    3  C3  UNL     1      20.450   0.092  53.622  1.00  0.00     0.024 A 
HETATM    4  C4  UNL     1      20.268   1.496  53.272  1.00  0.00     0.000 A 
HETATM    5  C5  UNL     1      21.365   2.208  52.952  1.00  0.00     0.005 A 
HETATM    6  C6  UNL     1      22.749   1.707  52.919  1.00  0.00     0.161 A 
HETATM    7  C7  UNL     1      23.543   1.997  51.749  1.00  0.00     0.068 C 
HETATM    8  N1  UNL     1      24.851   2.054  51.810  1.00  0.00    -0.260 NA
HETATM    9  C14 UNL     1      25.655   1.849  52.991  1.00  0.00     0.277 C 
HETATM   10  C15 UNL     1      27.056   2.149  52.733  1.00  0.00     0.097 C 
HETATM   11  N2  UNL     1      28.175   2.368  52.527  1.00  0.00    -0.194 NA
HETATM   12  S1  UNL     1      25.535   0.139  53.508  1.00  0.00    -0.108 SA
HETATM   13  C16 UNL     1      23.928  -0.594  53.344  1.00  0.00     0.201 C 
HETATM   14  N3  UNL     1      22.812   0.295  53.269  1.00  0.00    -0.362 N 
ENDROOT
BRANCH   7  15
HETATM   15  C8  UNL     1      23.124   2.259  50.377  1.00  0.00    -0.009 A 
HETATM   16  C9  UNL     1      22.216   1.514  49.662  1.00  0.00     0.015 A 
HETATM   17  C10 UNL     1      21.812   1.759  48.369  1.00  0.00     0.024 A 
HETATM   18  C11 UNL     1      22.344   2.839  47.703  1.00  0.00     0.034 A 
HETATM   19 CL1  UNL     1      21.915   3.259  46.062  1.00  0.00    -0.084 Cl
HETATM   20  C12 UNL     1      23.258   3.618  48.375  1.00  0.00     0.024 A 
HETATM   21  C13 UNL     1      23.611   3.319  49.648  1.00  0.00     0.015 A 
ENDBRANCH   7  15
TORSDOF 1
ENDMDL
MODEL 3
REMARK VINA RESULT:      -7.6      3.465      5.280
REMARK  1 active torsions:
REMARK  status: ('A' for Active; 'I' for Inactive)
REMARK    1  A    between atoms: C7_7  and  C8_8 
ROOT
HETATM    1  C1  UNL     1      21.864   6.435  51.056  1.00  0.00     0.068 C 
HETATM    2  C2  UNL     1      22.337   5.084  50.660  1.00  0.00     0.004 A 
HETATM    3  C3  UNL     1      21.483   4.073  50.705  1.00  0.00     0.024 A 
HETATM    4  C4  UNL     1      21.871   2.717  50.331  1.00  0.00     0.000 A 
HETATM    5  C5  UNL     1      23.142   2.519  49.931  1.00  0.00     0.005 A 
HETATM    6  C6  UNL     1      24.192   3.545  49.829  1.00  0.00     0.161 A 
HETATM    7  C7  UNL     1      25.477   3.255  50.421  1.00  0.00     0.068 C 
HETATM    8  N1  UNL     1      26.574   3.822  49.982  1.00  0.00    -0.260 NA
HETATM    9  C14 UNL     1      26.662   4.772  48.898  1.00  0.00     0.277 C 
HETATM   10  C15 UNL     1      28.049   5.070  48.571  1.00  0.00     0.097 C 
HETATM   11  N2  UNL     1      29.151   5.325  48.320  1.00  0.00    -0.194 NA
HETATM   12  S1  UNL     1      25.858   6.299  49.372  1.00  0.00    -0.108 SA
HETATM   13  C16 UNL     1      24.370   6.112  50.320  1.00  0.00     0.201 C 
HETATM   14  N3  UNL     1      23.701   4.853  50.239  1.00  0.00    -0.362 N 
ENDROOT
BRANCH   7  15
HETATM   15  C8  UNL     1      25.817   2.366  51.526  1.00  0.00    -0.009 A 
HETATM   16  C9  UNL     1      26.668   1.288  51.453  1.00  0.00     0.015 A 
HETATM   17  C10 UNL     1      26.998   0.449  52.493  1.00  0.00     0.024 A 
HETATM   18  C11 UNL     1      26.445   0.681  53.732  1.00  0.00     0.034 A 
HETATM   19 CL1  UNL     1      26.781  -0.308  55.133  1.00  0.00    -0.084 Cl
HETATM   20  C12 UNL     1      25.585   1.749  53.858  1.00  0.00     0.024 A 
HETATM   21  C13 UNL     1      25.305   2.535  52.792  1.00  0.00     0.015 A 
ENDBRANCH   7  15
TORSDOF 1
ENDMDL
MODEL 4
REMARK VINA RESULT:      -7.5      3.348      5.395
REMARK  1 active torsions:
REMARK  status: ('A' for Active; 'I' for Inactive)
REMARK    1  A    between atoms: C7_7  and  C8_8 
ROOT
HETATM    1  C1  UNL     1      22.878   5.548  51.502  1.00  0.00     0.068 C 
HETATM    2  C2  UNL     1      22.706   4.164  50.990  1.00  0.00     0.004 A 
HETATM    3  C3  UNL     1      21.979   3.977  49.898  1.00  0.00     0.024 A 
HETATM    4  C4  UNL     1      21.764   2.649  49.334  1.00  0.00     0.000 A 
HETATM    5  C5  UNL     1      22.335   1.603  49.960  1.00  0.00     0.005 A 
HETATM    6  C6  UNL     1      23.167   1.663  51.173  1.00  0.00     0.161 A 
HETATM    7  C7  UNL     1      22.858   0.750  52.248  1.00  0.00     0.068 C 
HETATM    8  N1  UNL     1      23.775   0.372  53.105  1.00  0.00    -0.260 NA
HETATM    9  C14 UNL     1      25.158   0.785  53.106  1.00  0.00     0.277 C 
HETATM   10  C15 UNL     1      25.928   0.046  54.096  1.00  0.00     0.097 C 
HETATM   11  N2  UNL     1      26.541  -0.526  54.895  1.00  0.00    -0.194 NA
HETATM   12  S1  UNL     1      25.262   2.528  53.503  1.00  0.00    -0.108 SA
HETATM   13  C16 UNL     1      23.992   3.546  52.797  1.00  0.00     0.201 C 
HETATM   14  N3  UNL     1      23.303   3.029  51.658  1.00  0.00    -0.362 N 
ENDROOT
BRANCH   7  15
HETATM   15  C8  UNL     1      21.595   0.111  52.597  1.00  0.00    -0.009 A 
HETATM   16  C9  UNL     1      20.368   0.415  52.056  1.00  0.00     0.015 A 
HETATM   17  C10 UNL     1      19.173  -0.188  52.376  1.00  0.00     0.024 A 
HETATM   18  C11 UNL     1      19.170  -1.191  53.319  1.00  0.00     0.034 A 
HETATM   19 CL1  UNL     1      17.723  -2.036  53.814  1.00  0.00    -0.084 Cl
HETATM   20  C12 UNL     1      20.374  -1.534  53.891  1.00  0.00     0.024 A 
HETATM   21  C13 UNL     1      21.513  -0.898  53.529  1.00  0.00     0.015 A 
ENDBRANCH   7  15
TORSDOF 1
ENDMDL
MODEL 5
REMARK VINA RESULT:      -7.3      4.265      6.429
REMARK  1 active torsions:
REMARK  status: ('A' for Active; 'I' for Inactive)
REMARK    1  A    between atoms: C7_7  and  C8_8 
ROOT
HETATM    1  C1  UNL     1      24.326   3.726  50.174  1.00  0.00     0.068 C 
HETATM    2  C2  UNL     1      23.296   2.728  49.787  1.00  0.00     0.004 A 
HETATM    3  C3  UNL     1      22.822   2.752  48.550  1.00  0.00     0.024 A 
HETATM    4  C4  UNL     1      21.810   1.805  48.094  1.00  0.00     0.000 A 
HETATM    5  C5  UNL     1      21.365   0.891  48.977  1.00  0.00     0.005 A 
HETATM    6  C6  UNL     1      21.803   0.746  50.375  1.00  0.00     0.161 A 
HETATM    7  C7  UNL     1      20.784   0.636  51.392  1.00  0.00     0.068 C 
HETATM    8  N1  UNL     1      21.019   0.026  52.528  1.00  0.00    -0.260 NA
HETATM    9  C14 UNL     1      22.263  -0.595  52.916  1.00  0.00     0.277 C 
HETATM   10  C15 UNL     1      22.121  -1.320  54.171  1.00  0.00     0.097 C 
HETATM   11  N2  UNL     1      22.017  -1.881  55.179  1.00  0.00    -0.194 NA
HETATM   12  S1  UNL     1      23.519   0.662  53.135  1.00  0.00    -0.108 SA
HETATM   13  C16 UNL     1      23.476   1.992  51.962  1.00  0.00     0.201 C 
HETATM   14  N3  UNL     1      22.800   1.748  50.727  1.00  0.00    -0.362 N 
ENDROOT
BRANCH   7  15
HETATM   15  C8  UNL     1      19.412   1.126  51.396  1.00  0.00    -0.009 A 
HETATM   16  C9  UNL     1      19.032   2.442  51.525  1.00  0.00     0.015 A 
HETATM   17  C10 UNL     1      17.738   2.912  51.523  1.00  0.00     0.024 A 
HETATM   18  C11 UNL     1      16.707   2.012  51.382  1.00  0.00     0.034 A 
HETATM   19 CL1  UNL     1      15.023   2.478  51.364  1.00  0.00    -0.084 Cl
HETATM   20  C12 UNL     1      17.034   0.681  51.250  1.00  0.00     0.024 A 
HETATM   21  C13 UNL     1      18.329   0.288  51.259  1.00  0.00     0.015 A 
ENDBRANCH   7  15
TORSDOF 1
ENDMDL
MODEL 6
REMARK VINA RESULT:      -7.3      2.815      4.817
REMARK  1 active torsions:
REMARK  status: ('A' for Active; 'I' for Inactive)
REMARK    1  A    between atoms: C7_7  and  C8_8 
ROOT
HETATM    1  C1  UNL     1      19.072   3.372  51.579  1.00  0.00     0.068 C 
HETATM    2  C2  UNL     1      20.211   2.810  50.807  1.00  0.00     0.004 A 
HETATM    3  C3  UNL     1      20.069   1.619  50.243  1.00  0.00     0.024 A 
HETATM    4  C4  UNL     1      21.140   1.001  49.470  1.00  0.00     0.000 A 
HETATM    5  C5  UNL     1      22.294   1.684  49.341  1.00  0.00     0.005 A 
HETATM    6  C6  UNL     1      22.588   3.010  49.907  1.00  0.00     0.161 A 
HETATM    7  C7  UNL     1      23.829   3.177  50.625  1.00  0.00     0.068 C 
HETATM    8  N1  UNL     1      24.409   4.348  50.722  1.00  0.00    -0.260 NA
HETATM    9  C14 UNL     1      23.923   5.584  50.156  1.00  0.00     0.277 C 
HETATM   10  C15 UNL     1      24.897   6.655  50.316  1.00  0.00     0.097 C 
HETATM   11  N2  UNL     1      25.661   7.514  50.458  1.00  0.00    -0.194 NA
HETATM   12  S1  UNL     1      22.414   6.071  50.987  1.00  0.00    -0.108 SA
HETATM   13  C16 UNL     1      21.310   4.745  51.398  1.00  0.00     0.201 C 
HETATM   14  N3  UNL     1      21.459   3.526  50.669  1.00  0.00    -0.362 N 
ENDROOT
BRANCH   7  15
HETATM   15  C8  UNL     1      24.636   2.192  51.336  1.00  0.00    -0.009 A 
HETATM   16  C9  UNL     1      24.167   1.293  52.264  1.00  0.00     0.015 A 
HETATM   17  C10 UNL     1      24.922   0.356  52.934  1.00  0.00     0.024 A 
HETATM   18  C11 UNL     1      26.271   0.287  52.675  1.00  0.00     0.034 A 
HETATM   19 CL1  UNL     1      27.340  -0.854  53.457  1.00  0.00    -0.084 Cl
HETATM   20  C12 UNL     1      26.791   1.166  51.753  1.00  0.00     0.024 A 
HETATM   21  C13 UNL     1      25.990   2.062  51.130  1.00  0.00     0.015 A 
ENDBRANCH   7  15
TORSDOF 1
ENDMDL
MODEL 7
REMARK VINA RESULT:      -6.9      4.117      6.408
REMARK  1 active torsions:
REMARK  status: ('A' for Active; 'I' for Inactive)
REMARK    1  A    between atoms: C7_7  and  C8_8 
ROOT
HETATM    1  C1  UNL     1      26.787   3.142  49.642  1.00  0.00     0.068 C 
HETATM    2  C2  UNL     1      25.860   3.081  50.801  1.00  0.00     0.004 A 
HETATM    3  C3  UNL     1      26.112   2.215  51.771  1.00  0.00     0.024 A 
HETATM    4  C4  UNL     1      25.249   2.096  52.942  1.00  0.00     0.000 A 
HETATM    5  C5  UNL     1      24.174   2.904  53.011  1.00  0.00     0.005 A 
HETATM    6  C6  UNL     1      23.776   3.910  52.014  1.00  0.00     0.161 A 
HETATM    7  C7  UNL     1      22.400   3.916  51.575  1.00  0.00     0.068 C 
HETATM    8  N1  UNL     1      21.836   5.007  51.117  1.00  0.00    -0.260 NA
HETATM    9  C14 UNL     1      22.467   6.299  50.990  1.00  0.00     0.277 C 
HETATM   10  C15 UNL     1      21.502   7.319  50.603  1.00  0.00     0.097 C 
HETATM   11  N2  UNL     1      20.743   8.131  50.277  1.00  0.00    -0.194 NA
HETATM   12  S1  UNL     1      23.738   6.224  49.732  1.00  0.00    -0.108 SA
HETATM   13  C16 UNL     1      24.685   4.725  49.696  1.00  0.00     0.201 C 
HETATM   14  N3  UNL     1      24.695   3.934  50.885  1.00  0.00    -0.362 N 
ENDROOT
BRANCH   7  15
HETATM   15  C8  UNL     1      21.428   2.831  51.536  1.00  0.00    -0.009 A 
HETATM   16  C9  UNL     1      21.576   1.648  50.851  1.00  0.00     0.015 A 
HETATM   17  C10 UNL     1      20.664   0.616  50.815  1.00  0.00     0.024 A 
HETATM   18  C11 UNL     1      19.489   0.748  51.518  1.00  0.00     0.034 A 
HETATM   19 CL1  UNL     1      18.250  -0.485  51.555  1.00  0.00    -0.084 Cl
HETATM   20  C12 UNL     1      19.291   1.915  52.221  1.00  0.00     0.024 A 
HETATM   21  C13 UNL     1      20.231   2.889  52.213  1.00  0.00     0.015 A 
ENDBRANCH   7  15
TORSDOF 1
ENDMDL
MODEL 8
REMARK VINA RESULT:      -6.8      7.428      9.720
REMARK  1 active torsions:
REMARK  status: ('A' for Active; 'I' for Inactive)
REMARK    1  A    between atoms: C7_7  and  C8_8 
ROOT
HETATM    1  C1  UNL     1      27.896  11.931  48.401  1.00  0.00     0.068 C 
HETATM    2  C2  UNL     1      27.741  10.673  47.625  1.00  0.00     0.004 A 
HETATM    3  C3  UNL     1      26.757  10.588  46.743  1.00  0.00     0.024 A 
HETATM    4  C4  UNL     1      26.540   9.388  45.942  1.00  0.00     0.000 A 
HETATM    5  C5  UNL     1      27.383   8.354  46.125  1.00  0.00     0.005 A 
HETATM    6  C6  UNL     1      28.516   8.310  47.063  1.00  0.00     0.161 A 
HETATM    7  C7  UNL     1      28.637   7.156  47.922  1.00  0.00     0.068 C 
HETATM    8  N1  UNL     1      29.798   6.778  48.397  1.00  0.00    -0.260 NA
HETATM    9  C14 UNL     1      31.066   7.422  48.148  1.00  0.00     0.277 C 
HETATM   10  C15 UNL     1      32.168   6.643  48.696  1.00  0.00     0.097 C 
HETATM   11  N2  UNL     1      33.046   6.036  49.147  1.00  0.00    -0.194 NA
HETATM   12  S1  UNL     1      31.082   9.035  48.923  1.00  0.00    -0.108 SA
HETATM   13  C16 UNL     1      29.556   9.935  48.836  1.00  0.00     0.201 C 
HETATM   14  N3  UNL     1      28.631   9.550  47.818  1.00  0.00    -0.362 N 
ENDROOT
BRANCH   7  15
HETATM   15  C8  UNL     1      27.609   6.245  48.412  1.00  0.00    -0.009 A 
HETATM   16  C9  UNL     1      26.311   6.588  48.707  1.00  0.00     0.015 A 
HETATM   17  C10 UNL     1      25.334   5.733  49.164  1.00  0.00     0.024 A 
HETATM   18  C11 UNL     1      25.651   4.407  49.353  1.00  0.00     0.034 A 
HETATM   19 CL1  UNL     1      24.505   3.219  49.928  1.00  0.00    -0.084 Cl
HETATM   20  C12 UNL     1      26.939   4.012  49.071  1.00  0.00     0.024 A 
HETATM   21  C13 UNL     1      27.851   4.907  48.624  1.00  0.00     0.015 A 
ENDBRANCH   7  15
TORSDOF 1
ENDMDL
MODEL 9
REMARK VINA RESULT:      -6.8      3.717      6.264
REMARK  1 active torsions:
REMARK  status: ('A' for Active; 'I' for Inactive)
REMARK    1  A    between atoms: C7_7  and  C8_8 
ROOT
HETATM    1  C1  UNL     1      20.335   2.532  52.492  1.00  0.00     0.068 C 
HETATM    2  C2  UNL     1      21.707   2.484  51.924  1.00  0.00     0.004 A 
HETATM    3  C3  UNL     1      22.710   2.137  52.716  1.00  0.00     0.024 A 
HETATM    4  C4  UNL     1      24.084   2.066  52.232  1.00  0.00     0.000 A 
HETATM    5  C5  UNL     1      24.309   2.366  50.939  1.00  0.00     0.005 A 
HETATM    6  C6  UNL     1      23.294   2.762  49.949  1.00  0.00     0.161 A 
HETATM    7  C7  UNL     1      23.559   3.931  49.143  1.00  0.00     0.068 C 
HETATM    8  N1  UNL     1      23.020   4.077  47.957  1.00  0.00    -0.260 NA
HETATM    9  C14 UNL     1      22.128   3.145  47.310  1.00  0.00     0.277 C 
HETATM   10  C15 UNL     1      21.853   3.546  45.937  1.00  0.00     0.097 C 
HETATM   11  N2  UNL     1      21.615   3.871  44.851  1.00  0.00    -0.194 NA
HETATM   12  S1  UNL     1      20.574   3.087  48.198  1.00  0.00    -0.108 SA
HETATM   13  C16 UNL     1      20.706   3.167  49.965  1.00  0.00     0.201 C 
HETATM   14  N3  UNL     1      21.965   2.814  50.540  1.00  0.00    -0.362 N 
ENDROOT
BRANCH   7  15
HETATM   15  C8  UNL     1      24.391   5.093  49.428  1.00  0.00    -0.009 A 
HETATM   16  C9  UNL     1      25.622   5.353  48.871  1.00  0.00     0.015 A 
HETATM   17  C10 UNL     1      26.410   6.451  49.131  1.00  0.00     0.024 A 
HETATM   18  C11 UNL     1      25.956   7.394  50.025  1.00  0.00     0.034 A 
HETATM   19 CL1  UNL     1      26.858   8.831  50.442  1.00  0.00    -0.084 Cl
HETATM   20  C12 UNL     1      24.729   7.181  50.611  1.00  0.00     0.024 A 
HETATM   21  C13 UNL     1      24.005   6.078  50.308  1.00  0.00     0.015 A 
ENDBRANCH   7  15
TORSDOF 1
ENDMDL
