MODEL 1
REMARK VINA RESULT:      -9.6      0.000      0.000
REMARK  6 active torsions:
REMARK  status: ('A' for Active; 'I' for Inactive)
REMARK    1  A    between atoms: C2_2  and  C3_3 
REMARK       I    between atoms: C3_3  and  N1_5 
REMARK    2  A    between atoms: N1_5  and  C4_6 
REMARK    3  A    between atoms: C7_9  and  N2_10 
REMARK    4  A    between atoms: N2_10  and  C8_11 
REMARK    5  A    between atoms: C15_19  and  C16_20 
REMARK    6  A    between atoms: C25_31  and  O2_32 
ROOT
HETATM    1  C4  UNL     1      30.493   6.597  47.522  1.00  0.00     0.069 A 
HETATM    2  C5  UNL     1      29.165   6.533  47.872  1.00  0.00     0.050 A 
HETATM    3  C6  UNL     1      28.500   7.489  48.590  1.00  0.00     0.041 A 
HETATM    4  C7  UNL     1      27.171   7.385  48.918  1.00  0.00     0.142 A 
HETATM    5  N4  UNL     1      26.494   8.308  49.622  1.00  0.00    -0.224 NA
HETATM    6  C22 UNL     1      27.193   9.410  50.024  1.00  0.00     0.236 A 
HETATM    7  N5  UNL     1      28.515   9.548  49.716  1.00  0.00    -0.241 NA
HETATM    8  C23 UNL     1      29.168   8.616  49.015  1.00  0.00     0.075 A 
HETATM    9  C24 UNL     1      30.498   8.707  48.679  1.00  0.00     0.071 A 
HETATM   10  C25 UNL     1      31.145   7.729  47.954  1.00  0.00     0.097 A 
ENDROOT
BRANCH   4  11
HETATM   11  N2  UNL     1      26.409   6.257  48.520  1.00  0.00    -0.340 N 
HETATM   12  H8  UNL     1      25.929   5.971  47.653  1.00  0.00     0.167 HD
BRANCH  11  13
HETATM   13  C8  UNL     1      26.110   5.135  49.352  1.00  0.00     0.033 A 
HETATM   14  C9  UNL     1      26.811   4.010  49.296  1.00  0.00     0.022 A 
HETATM   15  C10 UNL     1      26.611   2.779  50.093  1.00  0.00     0.153 A 
HETATM   16  N3  UNL     1      25.496   2.923  51.011  1.00  0.00    -0.372 N 
HETATM   17  C11 UNL     1      24.721   4.112  51.102  1.00  0.00     0.010 A 
HETATM   18  C15 UNL     1      24.988   1.946  51.956  1.00  0.00     0.118 C 
HETATM   19  C12 UNL     1      25.017   5.140  50.321  1.00  0.00     0.054 A 
HETATM   20  C13 UNL     1      23.679   3.890  52.139  1.00  0.00     0.059 C 
HETATM   21  C14 UNL     1      24.312   2.814  52.989  1.00  0.00     0.036 C 
BRANCH  18  22
HETATM   22  C16 UNL     1      26.036   1.089  52.543  1.00  0.00    -0.035 A 
HETATM   23  C17 UNL     1      26.255  -0.226  52.214  1.00  0.00     0.009 A 
HETATM   24  C18 UNL     1      27.263  -0.956  52.818  1.00  0.00     0.001 A 
HETATM   25  C19 UNL     1      28.092  -0.381  53.780  1.00  0.00     0.000 A 
HETATM   26  C20 UNL     1      27.909   0.952  54.147  1.00  0.00     0.001 A 
HETATM   27  C21 UNL     1      26.889   1.618  53.508  1.00  0.00     0.009 A 
ENDBRANCH  18  22
ENDBRANCH  11  13
ENDBRANCH   4  11
BRANCH   1  28
HETATM   28  N1  UNL     1      31.217   5.637  46.783  1.00  0.00    -0.325 N 
HETATM   29  C3  UNL     1      31.953   4.540  47.232  1.00  0.00     0.221 C 
HETATM   30  O1  UNL     1      32.038   4.295  48.453  1.00  0.00    -0.273 OA
HETATM   31  H6  UNL     1      31.246   5.701  45.742  1.00  0.00     0.169 HD
BRANCH  29  32
HETATM   32  C2  UNL     1      32.686   3.580  46.387  1.00  0.00     0.098 C 
HETATM   33  C1  UNL     1      32.768   2.224  47.012  1.00  0.00     0.014 C 
ENDBRANCH  29  32
ENDBRANCH   1  28
BRANCH  10  34
HETATM   34  O2  UNL     1      32.489   7.883  47.648  1.00  0.00    -0.354 OA
HETATM   35  C26 UNL     1      33.462   7.730  48.647  1.00  0.00     0.210 C 
ENDBRANCH  10  34
TORSDOF 6
ENDMDL
MODEL 2
REMARK VINA RESULT:      -9.2      1.474      2.158
REMARK  6 active torsions:
REMARK  status: ('A' for Active; 'I' for Inactive)
REMARK    1  A    between atoms: C2_2  and  C3_3 
REMARK       I    between atoms: C3_3  and  N1_5 
REMARK    2  A    between atoms: N1_5  and  C4_6 
REMARK    3  A    between atoms: C7_9  and  N2_10 
REMARK    4  A    between atoms: N2_10  and  C8_11 
REMARK    5  A    between atoms: C15_19  and  C16_20 
REMARK    6  A    between atoms: C25_31  and  O2_32 
ROOT
HETATM    1  C4  UNL     1      28.798   7.038  48.167  1.00  0.00     0.069 A 
HETATM    2  C5  UNL     1      27.584   6.454  48.443  1.00  0.00     0.050 A 
HETATM    3  C6  UNL     1      26.551   7.071  49.095  1.00  0.00     0.041 A 
HETATM    4  C7  UNL     1      25.354   6.451  49.350  1.00  0.00     0.142 A 
HETATM    5  N4  UNL     1      24.325   7.032  49.989  1.00  0.00    -0.224 NA
HETATM    6  C22 UNL     1      24.504   8.322  50.398  1.00  0.00     0.236 A 
HETATM    7  N5  UNL     1      25.681   8.972  50.162  1.00  0.00    -0.241 NA
HETATM    8  C23 UNL     1      26.692   8.372  49.525  1.00  0.00     0.075 A 
HETATM    9  C24 UNL     1      27.896   8.981  49.263  1.00  0.00     0.071 A 
HETATM   10  C25 UNL     1      28.921   8.337  48.604  1.00  0.00     0.097 A 
ENDROOT
BRANCH   4  11
HETATM   11  N2  UNL     1      25.126   5.111  48.941  1.00  0.00    -0.340 N 
HETATM   12  H8  UNL     1      24.831   4.659  48.063  1.00  0.00     0.167 HD
BRANCH  11  13
HETATM   13  C8  UNL     1      25.279   3.963  49.775  1.00  0.00     0.033 A 
HETATM   14  C9  UNL     1      26.407   3.266  49.815  1.00  0.00     0.022 A 
HETATM   15  C10 UNL     1      26.700   2.064  50.628  1.00  0.00     0.153 A 
HETATM   16  N3  UNL     1      25.557   1.686  51.437  1.00  0.00    -0.372 N 
HETATM   17  C11 UNL     1      24.330   2.407  51.424  1.00  0.00     0.010 A 
HETATM   18  C15 UNL     1      25.449   0.572  52.361  1.00  0.00     0.118 C 
HETATM   19  C12 UNL     1      24.212   3.469  50.642  1.00  0.00     0.054 A 
HETATM   20  C13 UNL     1      23.403   1.731  52.370  1.00  0.00     0.059 C 
HETATM   21  C14 UNL     1      24.365   1.037  53.304  1.00  0.00     0.036 C 
BRANCH  18  22
HETATM   22  C16 UNL     1      26.707   0.261  53.065  1.00  0.00    -0.035 A 
HETATM   23  C17 UNL     1      27.254   1.018  54.073  1.00  0.00     0.009 A 
HETATM   24  C18 UNL     1      28.442   0.649  54.679  1.00  0.00     0.001 A 
HETATM   25  C19 UNL     1      29.124  -0.501  54.287  1.00  0.00     0.000 A 
HETATM   26  C20 UNL     1      28.608  -1.302  53.269  1.00  0.00     0.001 A 
HETATM   27  C21 UNL     1      27.425  -0.878  52.710  1.00  0.00     0.009 A 
ENDBRANCH  18  22
ENDBRANCH  11  13
ENDBRANCH   4  11
BRANCH   1  28
HETATM   28  N1  UNL     1      29.887   6.441  47.498  1.00  0.00    -0.325 N 
HETATM   29  C3  UNL     1      30.910   5.639  48.004  1.00  0.00     0.221 C 
HETATM   30  O1  UNL     1      30.946   5.356  49.219  1.00  0.00    -0.273 OA
HETATM   31  H6  UNL     1      30.002   6.582  46.470  1.00  0.00     0.169 HD
BRANCH  29  32
HETATM   32  C2  UNL     1      32.019   5.052  47.230  1.00  0.00     0.098 C 
HETATM   33  C1  UNL     1      31.788   3.608  46.917  1.00  0.00     0.014 C 
ENDBRANCH  29  32
ENDBRANCH   1  28
BRANCH  10  34
HETATM   34  O2  UNL     1      30.112   9.009  48.370  1.00  0.00    -0.354 OA
HETATM   35  C26 UNL     1      30.150  10.082  47.467  1.00  0.00     0.210 C 
ENDBRANCH  10  34
TORSDOF 6
ENDMDL
MODEL 3
REMARK VINA RESULT:      -8.9      3.110      8.626
REMARK  6 active torsions:
REMARK  status: ('A' for Active; 'I' for Inactive)
REMARK    1  A    between atoms: C2_2  and  C3_3 
REMARK       I    between atoms: C3_3  and  N1_5 
REMARK    2  A    between atoms: N1_5  and  C4_6 
REMARK    3  A    between atoms: C7_9  and  N2_10 
REMARK    4  A    between atoms: N2_10  and  C8_11 
REMARK    5  A    between atoms: C15_19  and  C16_20 
REMARK    6  A    between atoms: C25_31  and  O2_32 
ROOT
HETATM    1  C4  UNL     1      24.877   2.281  53.217  1.00  0.00     0.069 A 
HETATM    2  C5  UNL     1      24.413   3.500  52.784  1.00  0.00     0.050 A 
HETATM    3  C6  UNL     1      23.167   3.721  52.260  1.00  0.00     0.041 A 
HETATM    4  C7  UNL     1      22.743   4.956  51.841  1.00  0.00     0.142 A 
HETATM    5  N4  UNL     1      21.528   5.200  51.322  1.00  0.00    -0.224 NA
HETATM    6  C22 UNL     1      20.679   4.136  51.217  1.00  0.00     0.236 A 
HETATM    7  N5  UNL     1      21.066   2.892  51.625  1.00  0.00    -0.241 NA
HETATM    8  C23 UNL     1      22.281   2.674  52.137  1.00  0.00     0.075 A 
HETATM    9  C24 UNL     1      22.719   1.442  52.561  1.00  0.00     0.071 A 
HETATM   10  C25 UNL     1      23.978   1.247  53.086  1.00  0.00     0.097 A 
ENDROOT
BRANCH   4  11
HETATM   11  N2  UNL     1      23.594   6.088  51.932  1.00  0.00    -0.340 N 
HETATM   12  H8  UNL     1      23.745   6.831  52.631  1.00  0.00     0.167 HD
BRANCH  11  13
HETATM   13  C8  UNL     1      24.543   6.483  50.940  1.00  0.00     0.033 A 
HETATM   14  C9  UNL     1      24.665   7.743  50.544  1.00  0.00     0.022 A 
HETATM   15  C10 UNL     1      25.598   8.287  49.532  1.00  0.00     0.153 A 
HETATM   16  N3  UNL     1      26.431   7.240  48.969  1.00  0.00    -0.372 N 
HETATM   17  C11 UNL     1      26.331   5.878  49.367  1.00  0.00     0.010 A 
HETATM   18  C15 UNL     1      27.462   7.370  47.957  1.00  0.00     0.118 C 
HETATM   19  C12 UNL     1      25.444   5.536  50.290  1.00  0.00     0.054 A 
HETATM   20  C13 UNL     1      27.332   5.108  48.582  1.00  0.00     0.059 C 
HETATM   21  C14 UNL     1      28.342   6.175  48.234  1.00  0.00     0.036 C 
BRANCH  18  22
HETATM   22  C16 UNL     1      28.206   8.642  48.029  1.00  0.00    -0.035 A 
HETATM   23  C17 UNL     1      27.991   9.728  47.217  1.00  0.00     0.009 A 
HETATM   24  C18 UNL     1      28.739  10.884  47.356  1.00  0.00     0.001 A 
HETATM   25  C19 UNL     1      29.736  10.985  48.324  1.00  0.00     0.000 A 
HETATM   26  C20 UNL     1      29.992   9.908  49.173  1.00  0.00     0.001 A 
HETATM   27  C21 UNL     1      29.212   8.791  48.980  1.00  0.00     0.009 A 
ENDBRANCH  18  22
ENDBRANCH  11  13
ENDBRANCH   4  11
BRANCH   1  28
HETATM   28  N1  UNL     1      26.149   2.010  53.763  1.00  0.00    -0.325 N 
HETATM   29  C3  UNL     1      27.410   2.107  53.173  1.00  0.00     0.221 C 
HETATM   30  O1  UNL     1      27.523   2.482  51.988  1.00  0.00    -0.273 OA
HETATM   31  H6  UNL     1      26.228   1.684  54.751  1.00  0.00     0.169 HD
BRANCH  29  32
HETATM   32  C2  UNL     1      28.699   1.802  53.819  1.00  0.00     0.098 C 
HETATM   33  C1  UNL     1      28.658   0.517  54.583  1.00  0.00     0.014 C 
ENDBRANCH  29  32
ENDBRANCH   1  28
BRANCH  10  34
HETATM   34  O2  UNL     1      24.359  -0.023  53.497  1.00  0.00    -0.354 OA
HETATM   35  C26 UNL     1      23.415  -0.892  54.065  1.00  0.00     0.210 C 
ENDBRANCH  10  34
TORSDOF 6
ENDMDL
MODEL 4
REMARK VINA RESULT:      -8.7      3.038      4.910
REMARK  6 active torsions:
REMARK  status: ('A' for Active; 'I' for Inactive)
REMARK    1  A    between atoms: C2_2  and  C3_3 
REMARK       I    between atoms: C3_3  and  N1_5 
REMARK    2  A    between atoms: N1_5  and  C4_6 
REMARK    3  A    between atoms: C7_9  and  N2_10 
REMARK    4  A    between atoms: N2_10  and  C8_11 
REMARK    5  A    between atoms: C15_19  and  C16_20 
REMARK    6  A    between atoms: C25_31  and  O2_32 
ROOT
HETATM    1  C4  UNL     1      26.220   7.395  48.647  1.00  0.00     0.069 A 
HETATM    2  C5  UNL     1      25.581   6.540  49.514  1.00  0.00     0.050 A 
HETATM    3  C6  UNL     1      24.323   6.034  49.327  1.00  0.00     0.041 A 
HETATM    4  C7  UNL     1      23.722   5.182  50.218  1.00  0.00     0.142 A 
HETATM    5  N4  UNL     1      22.489   4.672  50.060  1.00  0.00    -0.224 NA
HETATM    6  C22 UNL     1      21.812   5.040  48.934  1.00  0.00     0.236 A 
HETATM    7  N5  UNL     1      22.377   5.886  48.024  1.00  0.00    -0.241 NA
HETATM    8  C23 UNL     1      23.606   6.381  48.203  1.00  0.00     0.075 A 
HETATM    9  C24 UNL     1      24.220   7.236  47.320  1.00  0.00     0.071 A 
HETATM   10  C25 UNL     1      25.489   7.730  47.531  1.00  0.00     0.097 A 
ENDROOT
BRANCH   4  11
HETATM   11  N2  UNL     1      24.392   4.775  51.401  1.00  0.00    -0.340 N 
HETATM   12  H8  UNL     1      24.738   5.257  52.244  1.00  0.00     0.167 HD
BRANCH  11  13
HETATM   13  C8  UNL     1      24.774   3.433  51.706  1.00  0.00     0.033 A 
HETATM   14  C9  UNL     1      25.912   2.908  51.270  1.00  0.00     0.022 A 
HETATM   15  C10 UNL     1      26.428   1.541  51.508  1.00  0.00     0.153 A 
HETATM   16  N3  UNL     1      25.510   0.768  52.323  1.00  0.00    -0.372 N 
HETATM   17  C11 UNL     1      24.281   1.294  52.810  1.00  0.00     0.010 A 
HETATM   18  C15 UNL     1      25.656  -0.604  52.771  1.00  0.00     0.118 C 
HETATM   19  C12 UNL     1      23.948   2.541  52.515  1.00  0.00     0.054 A 
HETATM   20  C13 UNL     1      23.616   0.222  53.597  1.00  0.00     0.059 C 
HETATM   21  C14 UNL     1      24.789  -0.636  54.007  1.00  0.00     0.036 C 
BRANCH  18  22
HETATM   22  C16 UNL     1      27.052  -0.989  53.056  1.00  0.00    -0.035 A 
HETATM   23  C17 UNL     1      27.635  -2.175  52.682  1.00  0.00     0.009 A 
HETATM   24  C18 UNL     1      28.954  -2.452  52.993  1.00  0.00     0.001 A 
HETATM   25  C19 UNL     1      29.736  -1.538  53.696  1.00  0.00     0.000 A 
HETATM   26  C20 UNL     1      29.189  -0.319  54.097  1.00  0.00     0.001 A 
HETATM   27  C21 UNL     1      27.874  -0.109  53.756  1.00  0.00     0.009 A 
ENDBRANCH  18  22
ENDBRANCH  11  13
ENDBRANCH   4  11
BRANCH   1  28
HETATM   28  N1  UNL     1      27.514   7.937  48.800  1.00  0.00    -0.325 N 
HETATM   29  C3  UNL     1      27.925   9.074  49.496  1.00  0.00     0.221 C 
HETATM   30  O1  UNL     1      27.091   9.776  50.105  1.00  0.00    -0.273 OA
HETATM   31  H6  UNL     1      28.327   7.465  48.349  1.00  0.00     0.169 HD
BRANCH  29  32
HETATM   32  C2  UNL     1      29.306   9.575  49.605  1.00  0.00     0.098 C 
HETATM   33  C1  UNL     1      30.288   8.680  48.920  1.00  0.00     0.014 C 
ENDBRANCH  29  32
ENDBRANCH   1  28
BRANCH  10  34
HETATM   34  O2  UNL     1      26.052   8.589  46.598  1.00  0.00    -0.354 OA
HETATM   35  C26 UNL     1      25.653   8.530  45.255  1.00  0.00     0.210 C 
ENDBRANCH  10  34
TORSDOF 6
ENDMDL
MODEL 5
REMARK VINA RESULT:      -8.7      1.613      2.750
REMARK  6 active torsions:
REMARK  status: ('A' for Active; 'I' for Inactive)
REMARK    1  A    between atoms: C2_2  and  C3_3 
REMARK       I    between atoms: C3_3  and  N1_5 
REMARK    2  A    between atoms: N1_5  and  C4_6 
REMARK    3  A    between atoms: C7_9  and  N2_10 
REMARK    4  A    between atoms: N2_10  and  C8_11 
REMARK    5  A    between atoms: C15_19  and  C16_20 
REMARK    6  A    between atoms: C25_31  and  O2_32 
ROOT
HETATM    1  C4  UNL     1      30.453   6.768  47.660  1.00  0.00     0.069 A 
HETATM    2  C5  UNL     1      29.134   6.538  47.974  1.00  0.00     0.050 A 
HETATM    3  C6  UNL     1      28.328   7.416  48.647  1.00  0.00     0.041 A 
HETATM    4  C7  UNL     1      27.014   7.147  48.940  1.00  0.00     0.142 A 
HETATM    5  N4  UNL     1      26.202   7.989  49.600  1.00  0.00    -0.224 NA
HETATM    6  C22 UNL     1      26.738   9.182  49.991  1.00  0.00     0.236 A 
HETATM    7  N5  UNL     1      28.040   9.485  49.717  1.00  0.00    -0.241 NA
HETATM    8  C23 UNL     1      28.831   8.630  49.060  1.00  0.00     0.075 A 
HETATM    9  C24 UNL     1      30.147   8.886  48.760  1.00  0.00     0.071 A 
HETATM   10  C25 UNL     1      30.938   7.985  48.080  1.00  0.00     0.097 A 
ENDROOT
BRANCH   4  11
HETATM   11  N2  UNL     1      26.418   5.920  48.551  1.00  0.00    -0.340 N 
HETATM   12  H8  UNL     1      26.233   5.454  47.651  1.00  0.00     0.167 HD
BRANCH  11  13
HETATM   13  C8  UNL     1      25.879   4.950  49.450  1.00  0.00     0.033 A 
HETATM   14  C9  UNL     1      24.605   4.966  49.823  1.00  0.00     0.022 A 
HETATM   15  C10 UNL     1      23.920   4.030  50.742  1.00  0.00     0.153 A 
HETATM   16  N3  UNL     1      24.832   3.016  51.235  1.00  0.00    -0.372 N 
HETATM   17  C11 UNL     1      26.203   2.963  50.859  1.00  0.00     0.010 A 
HETATM   18  C15 UNL     1      24.543   1.926  52.149  1.00  0.00     0.118 C 
HETATM   19  C12 UNL     1      26.681   3.873  50.024  1.00  0.00     0.054 A 
HETATM   20  C13 UNL     1      26.815   1.801  51.556  1.00  0.00     0.059 C 
HETATM   21  C14 UNL     1      25.614   0.920  51.802  1.00  0.00     0.036 C 
BRANCH  18  22
HETATM   22  C16 UNL     1      23.184   1.372  51.999  1.00  0.00    -0.035 A 
HETATM   23  C17 UNL     1      22.550   1.153  50.801  1.00  0.00     0.009 A 
HETATM   24  C18 UNL     1      21.271   0.628  50.755  1.00  0.00     0.001 A 
HETATM   25  C19 UNL     1      20.583   0.302  51.922  1.00  0.00     0.000 A 
HETATM   26  C20 UNL     1      21.186   0.505  53.163  1.00  0.00     0.001 A 
HETATM   27  C21 UNL     1      22.457   1.030  53.137  1.00  0.00     0.009 A 
ENDBRANCH  18  22
ENDBRANCH  11  13
ENDBRANCH   4  11
BRANCH   1  28
HETATM   28  N1  UNL     1      31.318   5.893  46.969  1.00  0.00    -0.325 N 
HETATM   29  C3  UNL     1      31.994   4.762  47.429  1.00  0.00     0.221 C 
HETATM   30  O1  UNL     1      31.872   4.396  48.615  1.00  0.00    -0.273 OA
HETATM   31  H6  UNL     1      31.525   6.063  45.960  1.00  0.00     0.169 HD
BRANCH  29  32
HETATM   32  C2  UNL     1      32.886   3.899  46.635  1.00  0.00     0.098 C 
HETATM   33  C1  UNL     1      32.828   2.471  47.072  1.00  0.00     0.014 C 
ENDBRANCH  29  32
ENDBRANCH   1  28
BRANCH  10  34
HETATM   34  O2  UNL     1      32.260   8.305  47.808  1.00  0.00    -0.354 OA
HETATM   35  C26 UNL     1      32.566   9.406  46.994  1.00  0.00     0.210 C 
ENDBRANCH  10  34
TORSDOF 6
ENDMDL
MODEL 6
REMARK VINA RESULT:      -8.5      3.029      7.536
REMARK  6 active torsions:
REMARK  status: ('A' for Active; 'I' for Inactive)
REMARK    1  A    between atoms: C2_2  and  C3_3 
REMARK       I    between atoms: C3_3  and  N1_5 
REMARK    2  A    between atoms: N1_5  and  C4_6 
REMARK    3  A    between atoms: C7_9  and  N2_10 
REMARK    4  A    between atoms: N2_10  and  C8_11 
REMARK    5  A    between atoms: C15_19  and  C16_20 
REMARK    6  A    between atoms: C25_31  and  O2_32 
ROOT
HETATM    1  C4  UNL     1      26.501   7.764  49.444  1.00  0.00     0.069 A 
HETATM    2  C5  UNL     1      27.653   8.507  49.545  1.00  0.00     0.050 A 
HETATM    3  C6  UNL     1      27.759   9.832  49.217  1.00  0.00     0.041 A 
HETATM    4  C7  UNL     1      28.930  10.537  49.333  1.00  0.00     0.142 A 
HETATM    5  N4  UNL     1      29.062  11.836  49.017  1.00  0.00    -0.224 NA
HETATM    6  C22 UNL     1      27.947  12.474  48.556  1.00  0.00     0.236 A 
HETATM    7  N5  UNL     1      26.763  11.805  48.428  1.00  0.00    -0.241 NA
HETATM    8  C23 UNL     1      26.657  10.511  48.747  1.00  0.00     0.075 A 
HETATM    9  C24 UNL     1      25.491   9.792  48.636  1.00  0.00     0.071 A 
HETATM   10  C25 UNL     1      25.411   8.459  48.974  1.00  0.00     0.097 A 
ENDROOT
BRANCH   4  11
HETATM   11  N2  UNL     1      30.112   9.913  49.808  1.00  0.00    -0.340 N 
HETATM   12  H8  UNL     1      30.634   9.923  50.697  1.00  0.00     0.167 HD
BRANCH  11  13
HETATM   13  C8  UNL     1      30.932   9.024  49.048  1.00  0.00     0.033 A 
HETATM   14  C9  UNL     1      31.598   8.024  49.612  1.00  0.00     0.022 A 
HETATM   15  C10 UNL     1      32.478   7.036  48.949  1.00  0.00     0.153 A 
HETATM   16  N3  UNL     1      32.552   7.274  47.519  1.00  0.00    -0.372 N 
HETATM   17  C11 UNL     1      31.853   8.333  46.877  1.00  0.00     0.010 A 
HETATM   18  C15 UNL     1      33.305   6.526  46.530  1.00  0.00     0.118 C 
HETATM   19  C12 UNL     1      31.098   9.145  47.603  1.00  0.00     0.054 A 
HETATM   20  C13 UNL     1      32.168   8.263  45.426  1.00  0.00     0.059 C 
HETATM   21  C14 UNL     1      32.540   6.810  45.259  1.00  0.00     0.036 C 
BRANCH  18  22
HETATM   22  C16 UNL     1      33.394   5.082  46.819  1.00  0.00    -0.035 A 
HETATM   23  C17 UNL     1      34.467   4.462  47.412  1.00  0.00     0.009 A 
HETATM   24  C18 UNL     1      34.464   3.099  47.646  1.00  0.00     0.001 A 
HETATM   25  C19 UNL     1      33.373   2.309  47.290  1.00  0.00     0.000 A 
HETATM   26  C20 UNL     1      32.259   2.893  46.686  1.00  0.00     0.001 A 
HETATM   27  C21 UNL     1      32.329   4.251  46.482  1.00  0.00     0.009 A 
ENDBRANCH  18  22
ENDBRANCH  11  13
ENDBRANCH   4  11
BRANCH   1  28
HETATM   28  N1  UNL     1      26.348   6.400  49.772  1.00  0.00    -0.325 N 
HETATM   29  C3  UNL     1      26.905   5.272  49.167  1.00  0.00     0.221 C 
HETATM   30  O1  UNL     1      27.664   5.394  48.185  1.00  0.00    -0.273 OA
HETATM   31  H6  UNL     1      25.739   6.127  50.575  1.00  0.00     0.169 HD
BRANCH  29  32
HETATM   32  C2  UNL     1      26.690   3.872  49.575  1.00  0.00     0.098 C 
HETATM   33  C1  UNL     1      25.241   3.507  49.603  1.00  0.00     0.014 C 
ENDBRANCH  29  32
ENDBRANCH   1  28
BRANCH  10  34
HETATM   34  O2  UNL     1      24.202   7.791  48.839  1.00  0.00    -0.354 OA
HETATM   35  C26 UNL     1      23.101   8.158  49.627  1.00  0.00     0.210 C 
ENDBRANCH  10  34
TORSDOF 6
ENDMDL
MODEL 7
REMARK VINA RESULT:      -8.5      3.071      8.619
REMARK  6 active torsions:
REMARK  status: ('A' for Active; 'I' for Inactive)
REMARK    1  A    between atoms: C2_2  and  C3_3 
REMARK       I    between atoms: C3_3  and  N1_5 
REMARK    2  A    between atoms: N1_5  and  C4_6 
REMARK    3  A    between atoms: C7_9  and  N2_10 
REMARK    4  A    between atoms: N2_10  and  C8_11 
REMARK    5  A    between atoms: C15_19  and  C16_20 
REMARK    6  A    between atoms: C25_31  and  O2_32 
ROOT
HETATM    1  C4  UNL     1      26.319   1.609  52.088  1.00  0.00     0.069 A 
HETATM    2  C5  UNL     1      26.336   2.489  51.033  1.00  0.00     0.050 A 
HETATM    3  C6  UNL     1      25.226   3.080  50.491  1.00  0.00     0.041 A 
HETATM    4  C7  UNL     1      25.288   3.955  49.436  1.00  0.00     0.142 A 
HETATM    5  N4  UNL     1      24.216   4.549  48.885  1.00  0.00    -0.224 NA
HETATM    6  C22 UNL     1      23.000   4.248  49.427  1.00  0.00     0.236 A 
HETATM    7  N5  UNL     1      22.899   3.382  50.477  1.00  0.00    -0.241 NA
HETATM    8  C23 UNL     1      23.981   2.803  51.009  1.00  0.00     0.075 A 
HETATM    9  C24 UNL     1      23.934   1.925  52.065  1.00  0.00     0.071 A 
HETATM   10  C25 UNL     1      25.066   1.344  52.593  1.00  0.00     0.097 A 
ENDROOT
BRANCH   4  11
HETATM   11  N2  UNL     1      26.532   4.295  48.843  1.00  0.00    -0.340 N 
HETATM   12  H8  UNL     1      27.254   3.779  48.319  1.00  0.00     0.167 HD
BRANCH  11  13
HETATM   13  C8  UNL     1      27.116   5.598  48.855  1.00  0.00     0.033 A 
HETATM   14  C9  UNL     1      28.336   5.828  48.386  1.00  0.00     0.022 A 
HETATM   15  C10 UNL     1      29.059   7.118  48.338  1.00  0.00     0.153 A 
HETATM   16  N3  UNL     1      28.255   8.192  48.892  1.00  0.00    -0.372 N 
HETATM   17  C11 UNL     1      26.943   7.987  49.404  1.00  0.00     0.010 A 
HETATM   18  C15 UNL     1      28.608   9.593  49.022  1.00  0.00     0.118 C 
HETATM   19  C12 UNL     1      26.422   6.770  49.382  1.00  0.00     0.054 A 
HETATM   20  C13 UNL     1      26.438   9.302  49.880  1.00  0.00     0.059 C 
HETATM   21  C14 UNL     1      27.256  10.266  49.055  1.00  0.00     0.036 C 
BRANCH  18  22
HETATM   22  C16 UNL     1      29.456  10.095  47.924  1.00  0.00    -0.035 A 
HETATM   23  C17 UNL     1      29.050  10.246  46.620  1.00  0.00     0.009 A 
HETATM   24  C18 UNL     1      29.916  10.726  45.654  1.00  0.00     0.001 A 
HETATM   25  C19 UNL     1      31.228  11.072  45.969  1.00  0.00     0.000 A 
HETATM   26  C20 UNL     1      31.686  10.937  47.280  1.00  0.00     0.001 A 
HETATM   27  C21 UNL     1      30.775  10.455  48.189  1.00  0.00     0.009 A 
ENDBRANCH  18  22
ENDBRANCH  11  13
ENDBRANCH   4  11
BRANCH   1  28
HETATM   28  N1  UNL     1      27.435   0.979  52.677  1.00  0.00    -0.325 N 
HETATM   29  C3  UNL     1      28.340   1.471  53.619  1.00  0.00     0.221 C 
HETATM   30  O1  UNL     1      28.219   2.631  54.062  1.00  0.00    -0.273 OA
HETATM   31  H6  UNL     1      27.675  -0.002  52.411  1.00  0.00     0.169 HD
BRANCH  29  32
HETATM   32  C2  UNL     1      29.489   0.741  54.185  1.00  0.00     0.098 C 
HETATM   33  C1  UNL     1      29.714  -0.572  53.508  1.00  0.00     0.014 C 
ENDBRANCH  29  32
ENDBRANCH   1  28
BRANCH  10  34
HETATM   34  O2  UNL     1      24.950   0.466  53.661  1.00  0.00    -0.354 OA
HETATM   35  C26 UNL     1      23.907  -0.472  53.692  1.00  0.00     0.210 C 
ENDBRANCH  10  34
TORSDOF 6
ENDMDL
MODEL 8
REMARK VINA RESULT:      -8.5      2.804      8.850
REMARK  6 active torsions:
REMARK  status: ('A' for Active; 'I' for Inactive)
REMARK    1  A    between atoms: C2_2  and  C3_3 
REMARK       I    between atoms: C3_3  and  N1_5 
REMARK    2  A    between atoms: N1_5  and  C4_6 
REMARK    3  A    between atoms: C7_9  and  N2_10 
REMARK    4  A    between atoms: N2_10  and  C8_11 
REMARK    5  A    between atoms: C15_19  and  C16_20 
REMARK    6  A    between atoms: C25_31  and  O2_32 
ROOT
HETATM    1  C4  UNL     1      26.449   2.008  51.972  1.00  0.00     0.069 A 
HETATM    2  C5  UNL     1      26.749   2.859  50.935  1.00  0.00     0.050 A 
HETATM    3  C6  UNL     1      25.881   3.771  50.397  1.00  0.00     0.041 A 
HETATM    4  C7  UNL     1      26.222   4.603  49.360  1.00  0.00     0.142 A 
HETATM    5  N4  UNL     1      25.390   5.505  48.813  1.00  0.00    -0.224 NA
HETATM    6  C22 UNL     1      24.133   5.581  49.339  1.00  0.00     0.236 A 
HETATM    7  N5  UNL     1      23.758   4.770  50.371  1.00  0.00    -0.241 NA
HETATM    8  C23 UNL     1      24.603   3.879  50.899  1.00  0.00     0.075 A 
HETATM    9  C24 UNL     1      24.276   3.039  51.936  1.00  0.00     0.071 A 
HETATM   10  C25 UNL     1      25.169   2.130  52.460  1.00  0.00     0.097 A 
ENDROOT
BRANCH   4  11
HETATM   11  N2  UNL     1      27.518   4.556  48.785  1.00  0.00    -0.340 N 
HETATM   12  H8  UNL     1      28.182   3.805  48.548  1.00  0.00     0.167 HD
BRANCH  11  13
HETATM   13  C8  UNL     1      28.267   5.696  48.360  1.00  0.00     0.033 A 
HETATM   14  C9  UNL     1      27.699   6.879  48.163  1.00  0.00     0.022 A 
HETATM   15  C10 UNL     1      28.351   8.133  47.726  1.00  0.00     0.153 A 
HETATM   16  N3  UNL     1      29.774   7.941  47.516  1.00  0.00    -0.372 N 
HETATM   17  C11 UNL     1      30.421   6.689  47.717  1.00  0.00     0.010 A 
HETATM   18  C15 UNL     1      30.752   8.923  47.089  1.00  0.00     0.118 C 
HETATM   19  C12 UNL     1      29.705   5.647  48.111  1.00  0.00     0.054 A 
HETATM   20  C13 UNL     1      31.863   6.875  47.408  1.00  0.00     0.059 C 
HETATM   21  C14 UNL     1      32.041   8.357  47.637  1.00  0.00     0.036 C 
BRANCH  18  22
HETATM   22  C16 UNL     1      30.482  10.285  47.590  1.00  0.00    -0.035 A 
HETATM   23  C17 UNL     1      30.798  10.740  48.847  1.00  0.00     0.009 A 
HETATM   24  C18 UNL     1      30.507  12.036  49.232  1.00  0.00     0.001 A 
HETATM   25  C19 UNL     1      29.885  12.925  48.357  1.00  0.00     0.000 A 
HETATM   26  C20 UNL     1      29.546  12.510  47.069  1.00  0.00     0.001 A 
HETATM   27  C21 UNL     1      29.863  11.210  46.753  1.00  0.00     0.009 A 
ENDBRANCH  18  22
ENDBRANCH  11  13
ENDBRANCH   4  11
BRANCH   1  28
HETATM   28  N1  UNL     1      27.312   1.057  52.556  1.00  0.00    -0.325 N 
HETATM   29  C3  UNL     1      28.245   1.214  53.582  1.00  0.00     0.221 C 
HETATM   30  O1  UNL     1      28.406   2.327  54.122  1.00  0.00    -0.273 OA
HETATM   31  H6  UNL     1      27.300   0.071  52.215  1.00  0.00     0.169 HD
BRANCH  29  32
HETATM   32  C2  UNL     1      29.113   0.160  54.137  1.00  0.00     0.098 C 
HETATM   33  C1  UNL     1      29.008  -1.120  53.372  1.00  0.00     0.014 C 
ENDBRANCH  29  32
ENDBRANCH   1  28
BRANCH  10  34
HETATM   34  O2  UNL     1      24.775   1.311  53.509  1.00  0.00    -0.354 OA
HETATM   35  C26 UNL     1      23.863   0.269  53.286  1.00  0.00     0.210 C 
ENDBRANCH  10  34
TORSDOF 6
ENDMDL
MODEL 9
REMARK VINA RESULT:      -8.4      3.766      8.930
REMARK  6 active torsions:
REMARK  status: ('A' for Active; 'I' for Inactive)
REMARK    1  A    between atoms: C2_2  and  C3_3 
REMARK       I    between atoms: C3_3  and  N1_5 
REMARK    2  A    between atoms: N1_5  and  C4_6 
REMARK    3  A    between atoms: C7_9  and  N2_10 
REMARK    4  A    between atoms: N2_10  and  C8_11 
REMARK    5  A    between atoms: C15_19  and  C16_20 
REMARK    6  A    between atoms: C25_31  and  O2_32 
ROOT
HETATM    1  C4  UNL     1      24.766   0.244  52.904  1.00  0.00     0.069 A 
HETATM    2  C5  UNL     1      24.407   1.052  51.852  1.00  0.00     0.050 A 
HETATM    3  C6  UNL     1      23.134   1.487  51.600  1.00  0.00     0.041 A 
HETATM    4  C7  UNL     1      22.819   2.295  50.536  1.00  0.00     0.142 A 
HETATM    5  N4  UNL     1      21.579   2.734  50.265  1.00  0.00    -0.224 NA
HETATM    6  C22 UNL     1      20.587   2.341  51.116  1.00  0.00     0.236 A 
HETATM    7  N5  UNL     1      20.862   1.538  52.185  1.00  0.00    -0.241 NA
HETATM    8  C23 UNL     1      22.104   1.112  52.434  1.00  0.00     0.075 A 
HETATM    9  C24 UNL     1      22.434   0.303  53.495  1.00  0.00     0.071 A 
HETATM   10  C25 UNL     1      23.725  -0.120  53.727  1.00  0.00     0.097 A 
ENDROOT
BRANCH   4  11
HETATM   11  N2  UNL     1      23.820   2.726  49.628  1.00  0.00    -0.340 N 
HETATM   12  H8  UNL     1      24.278   2.317  48.801  1.00  0.00     0.167 HD
BRANCH  11  13
HETATM   13  C8  UNL     1      24.489   3.987  49.685  1.00  0.00     0.033 A 
HETATM   14  C9  UNL     1      25.714   4.158  49.204  1.00  0.00     0.022 A 
HETATM   15  C10 UNL     1      26.518   5.400  49.198  1.00  0.00     0.153 A 
HETATM   16  N3  UNL     1      25.794   6.498  49.809  1.00  0.00    -0.372 N 
HETATM   17  C11 UNL     1      24.480   6.357  50.335  1.00  0.00     0.010 A 
HETATM   18  C15 UNL     1      26.240   7.867  49.991  1.00  0.00     0.118 C 
HETATM   19  C12 UNL     1      23.880   5.178  50.271  1.00  0.00     0.054 A 
HETATM   20  C13 UNL     1      24.069   7.680  50.874  1.00  0.00     0.059 C 
HETATM   21  C14 UNL     1      24.936   8.624  50.076  1.00  0.00     0.036 C 
BRANCH  18  22
HETATM   22  C16 UNL     1      27.103   8.359  48.901  1.00  0.00    -0.035 A 
HETATM   23  C17 UNL     1      26.724   8.471  47.586  1.00  0.00     0.009 A 
HETATM   24  C18 UNL     1      27.602   8.945  46.627  1.00  0.00     0.001 A 
HETATM   25  C19 UNL     1      28.900   9.325  46.964  1.00  0.00     0.000 A 
HETATM   26  C20 UNL     1      29.331   9.230  48.287  1.00  0.00     0.001 A 
HETATM   27  C21 UNL     1      28.408   8.751  49.187  1.00  0.00     0.009 A 
ENDBRANCH  18  22
ENDBRANCH  11  13
ENDBRANCH   4  11
BRANCH   1  28
HETATM   28  N1  UNL     1      26.063  -0.225  53.202  1.00  0.00    -0.325 N 
HETATM   29  C3  UNL     1      27.068   0.365  53.970  1.00  0.00     0.221 C 
HETATM   30  O1  UNL     1      26.877   1.472  54.513  1.00  0.00    -0.273 OA
HETATM   31  H6  UNL     1      26.380  -1.143  52.820  1.00  0.00     0.169 HD
BRANCH  29  32
HETATM   32  C2  UNL     1      28.405  -0.197  54.231  1.00  0.00     0.098 C 
HETATM   33  C1  UNL     1      29.495   0.792  53.966  1.00  0.00     0.014 C 
ENDBRANCH  29  32
ENDBRANCH   1  28
BRANCH  10  34
HETATM   34  O2  UNL     1      23.991  -0.936  54.817  1.00  0.00    -0.354 OA
HETATM   35  C26 UNL     1      22.937  -1.541  55.520  1.00  0.00     0.210 C 
ENDBRANCH  10  34
TORSDOF 6
ENDMDL
