MODEL 1
REMARK VINA RESULT:      -6.5      0.000      0.000
REMARK  6 active torsions:
REMARK  status: ('A' for Active; 'I' for Inactive)
REMARK    1  A    between atoms: O1_2  and  C2_3 
REMARK    2  A    between atoms: C2_3  and  O2_5 
REMARK    3  A    between atoms: O2_5  and  C4_6 
REMARK    4  A    between atoms: C4_6  and  C5_7 
REMARK    5  A    between atoms: C6_8  and  C7_9 
REMARK    6  A    between atoms: C7_9  and  C8_10 
ROOT
HETATM    1  C5  UNL     1      26.285   0.187  54.356  1.00  0.00     0.099 C 
HETATM    2  C6  UNL     1      26.399   1.507  54.121  1.00  0.00     0.079 C 
HETATM    3  O3  UNL     1      27.647   2.068  54.016  1.00  0.00    -0.351 OA
HETATM    4  C13 UNL     1      28.763   1.237  53.803  1.00  0.00     0.202 C 
HETATM    5  C14 UNL     1      28.703  -0.018  54.613  1.00  0.00     0.202 C 
HETATM    6  O4  UNL     1      27.418  -0.599  54.491  1.00  0.00    -0.349 OA
ENDROOT
BRANCH   2   7
HETATM    7  C7  UNL     1      25.308   2.503  53.949  1.00  0.00     0.094 C 
BRANCH   7   8
HETATM    8  C8  UNL     1      24.888   2.620  52.496  1.00  0.00     0.104 C 
HETATM    9  C9  UNL     1      23.622   3.415  52.459  1.00  0.00     0.145 C 
HETATM   10  N1  UNL     1      22.753   3.028  51.366  1.00  0.00    -0.383 N 
HETATM   11  C10 UNL     1      22.978   3.045  49.960  1.00  0.00     0.202 C 
HETATM   12  H15 UNL     1      21.832   2.690  51.686  1.00  0.00     0.160 HD
HETATM   13  N2  UNL     1      23.949   3.214  49.114  1.00  0.00    -0.255 NA
HETATM   14  C11 UNL     1      25.352   3.484  49.319  1.00  0.00     0.134 C 
HETATM   15  C12 UNL     1      26.130   3.474  50.391  1.00  0.00     0.102 C 
HETATM   16  N3  UNL     1      25.993   3.213  51.784  1.00  0.00    -0.391 N 
HETATM   17  H19 UNL     1      26.901   3.553  52.219  1.00  0.00     0.159 HD
ENDBRANCH   7   8
ENDBRANCH   2   7
BRANCH   1  18
HETATM   18  C4  UNL     1      25.068  -0.666  54.513  1.00  0.00     0.238 C 
BRANCH  18  19
HETATM   19  O2  UNL     1      24.428  -0.775  53.281  1.00  0.00    -0.355 OA
BRANCH  19  20
HETATM   20  C2  UNL     1      23.057  -0.874  53.426  1.00  0.00     0.255 C 
HETATM   21  C3  UNL     1      22.634  -1.132  54.850  1.00  0.00     0.070 C 
BRANCH  20  22
HETATM   22  O1  UNL     1      22.433   0.281  52.962  1.00  0.00    -0.366 OA
HETATM   23  C1  UNL     1      21.238   0.537  53.609  1.00  0.00     0.204 C 
ENDBRANCH  20  22
ENDBRANCH  19  20
ENDBRANCH  18  19
ENDBRANCH   1  18
TORSDOF 6
ENDMDL
MODEL 2
REMARK VINA RESULT:      -6.3      1.452      2.199
REMARK  6 active torsions:
REMARK  status: ('A' for Active; 'I' for Inactive)
REMARK    1  A    between atoms: O1_2  and  C2_3 
REMARK    2  A    between atoms: C2_3  and  O2_5 
REMARK    3  A    between atoms: O2_5  and  C4_6 
REMARK    4  A    between atoms: C4_6  and  C5_7 
REMARK    5  A    between atoms: C6_8  and  C7_9 
REMARK    6  A    between atoms: C7_9  and  C8_10 
ROOT
HETATM    1  C5  UNL     1      26.645   0.014  53.324  1.00  0.00     0.099 C 
HETATM    2  C6  UNL     1      27.088   0.971  52.488  1.00  0.00     0.079 C 
HETATM    3  O3  UNL     1      28.263   1.622  52.769  1.00  0.00    -0.351 OA
HETATM    4  C13 UNL     1      29.157   1.063  53.701  1.00  0.00     0.202 C 
HETATM    5  C14 UNL     1      28.456   0.488  54.890  1.00  0.00     0.202 C 
HETATM    6  O4  UNL     1      27.371  -0.312  54.459  1.00  0.00    -0.349 OA
ENDROOT
BRANCH   2   7
HETATM    7  C7  UNL     1      26.452   1.455  51.234  1.00  0.00     0.094 C 
BRANCH   7   8
HETATM    8  C8  UNL     1      25.687   2.745  51.461  1.00  0.00     0.104 C 
HETATM    9  C9  UNL     1      25.703   3.508  50.176  1.00  0.00     0.145 C 
HETATM   10  N1  UNL     1      25.688   4.943  50.379  1.00  0.00    -0.383 N 
HETATM   11  C10 UNL     1      24.731   5.771  51.029  1.00  0.00     0.202 C 
HETATM   12  H15 UNL     1      26.516   5.413  49.979  1.00  0.00     0.160 HD
HETATM   13  N2  UNL     1      23.677   5.666  51.780  1.00  0.00    -0.255 NA
HETATM   14  C11 UNL     1      22.996   4.507  52.305  1.00  0.00     0.134 C 
HETATM   15  C12 UNL     1      23.301   3.218  52.347  1.00  0.00     0.102 C 
HETATM   16  N3  UNL     1      24.373   2.380  51.930  1.00  0.00    -0.391 N 
HETATM   17  H19 UNL     1      24.004   1.388  52.034  1.00  0.00     0.159 HD
ENDBRANCH   7   8
ENDBRANCH   2   7
BRANCH   1  18
HETATM   18  C4  UNL     1      25.418  -0.836  53.258  1.00  0.00     0.238 C 
BRANCH  18  19
HETATM   19  O2  UNL     1      24.328  -0.094  53.704  1.00  0.00    -0.355 OA
BRANCH  19  20
HETATM   20  C2  UNL     1      23.133  -0.745  53.456  1.00  0.00     0.255 C 
HETATM   21  C3  UNL     1      22.231  -0.796  54.663  1.00  0.00     0.070 C 
BRANCH  20  22
HETATM   22  O1  UNL     1      22.458  -0.137  52.401  1.00  0.00    -0.366 OA
HETATM   23  C1  UNL     1      21.136   0.137  52.703  1.00  0.00     0.204 C 
ENDBRANCH  20  22
ENDBRANCH  19  20
ENDBRANCH  18  19
ENDBRANCH   1  18
TORSDOF 6
ENDMDL
MODEL 3
REMARK VINA RESULT:      -6.2      2.642      5.048
REMARK  6 active torsions:
REMARK  status: ('A' for Active; 'I' for Inactive)
REMARK    1  A    between atoms: O1_2  and  C2_3 
REMARK    2  A    between atoms: C2_3  and  O2_5 
REMARK    3  A    between atoms: O2_5  and  C4_6 
REMARK    4  A    between atoms: C4_6  and  C5_7 
REMARK    5  A    between atoms: C6_8  and  C7_9 
REMARK    6  A    between atoms: C7_9  and  C8_10 
ROOT
HETATM    1  C5  UNL     1      24.662   2.457  51.697  1.00  0.00     0.099 C 
HETATM    2  C6  UNL     1      25.942   2.439  52.112  1.00  0.00     0.079 C 
HETATM    3  O3  UNL     1      26.929   2.900  51.277  1.00  0.00    -0.351 OA
HETATM    4  C13 UNL     1      26.581   3.696  50.169  1.00  0.00     0.202 C 
HETATM    5  C14 UNL     1      25.349   3.206  49.479  1.00  0.00     0.202 C 
HETATM    6  O4  UNL     1      24.343   2.939  50.438  1.00  0.00    -0.349 OA
ENDROOT
BRANCH   2   7
HETATM    7  C7  UNL     1      26.474   1.963  53.417  1.00  0.00     0.094 C 
BRANCH   7   8
HETATM    8  C8  UNL     1      27.284   0.691  53.255  1.00  0.00     0.104 C 
HETATM    9  C9  UNL     1      28.075   0.501  54.510  1.00  0.00     0.145 C 
HETATM   10  N1  UNL     1      29.341  -0.164  54.274  1.00  0.00    -0.383 N 
HETATM   11  C10 UNL     1      29.620  -1.448  53.729  1.00  0.00     0.202 C 
HETATM   12  H15 UNL     1      30.153   0.409  54.555  1.00  0.00     0.160 HD
HETATM   13  N2  UNL     1      29.010  -2.420  53.120  1.00  0.00    -0.255 NA
HETATM   14  C11 UNL     1      27.633  -2.572  52.715  1.00  0.00     0.134 C 
HETATM   15  C12 UNL     1      26.605  -1.737  52.666  1.00  0.00     0.102 C 
HETATM   16  N3  UNL     1      26.350  -0.369  52.965  1.00  0.00    -0.391 N 
HETATM   17  H19 UNL     1      25.291  -0.273  52.934  1.00  0.00     0.159 HD
ENDBRANCH   7   8
ENDBRANCH   2   7
BRANCH   1  18
HETATM   18  C4  UNL     1      23.414   2.022  52.394  1.00  0.00     0.238 C 
BRANCH  18  19
HETATM   19  O2  UNL     1      23.350   0.631  52.383  1.00  0.00    -0.355 OA
BRANCH  19  20
HETATM   20  C2  UNL     1      22.759   0.140  53.532  1.00  0.00     0.255 C 
HETATM   21  C3  UNL     1      21.410  -0.484  53.278  1.00  0.00     0.070 C 
BRANCH  20  22
HETATM   22  O1  UNL     1      23.589  -0.793  54.147  1.00  0.00    -0.366 OA
HETATM   23  C1  UNL     1      23.043  -1.310  55.307  1.00  0.00     0.204 C 
ENDBRANCH  20  22
ENDBRANCH  19  20
ENDBRANCH  18  19
ENDBRANCH   1  18
TORSDOF 6
ENDMDL
MODEL 4
REMARK VINA RESULT:      -6.0      1.575      4.306
REMARK  6 active torsions:
REMARK  status: ('A' for Active; 'I' for Inactive)
REMARK    1  A    between atoms: O1_2  and  C2_3 
REMARK    2  A    between atoms: C2_3  and  O2_5 
REMARK    3  A    between atoms: O2_5  and  C4_6 
REMARK    4  A    between atoms: C4_6  and  C5_7 
REMARK    5  A    between atoms: C6_8  and  C7_9 
REMARK    6  A    between atoms: C7_9  and  C8_10 
ROOT
HETATM    1  C5  UNL     1      24.183  -0.452  53.755  1.00  0.00     0.099 C 
HETATM    2  C6  UNL     1      23.611   0.464  52.953  1.00  0.00     0.079 C 
HETATM    3  O3  UNL     1      22.266   0.712  53.063  1.00  0.00    -0.351 OA
HETATM    4  C13 UNL     1      21.576   0.287  54.215  1.00  0.00     0.202 C 
HETATM    5  C14 UNL     1      22.006  -1.072  54.667  1.00  0.00     0.202 C 
HETATM    6  O4  UNL     1      23.420  -1.140  54.685  1.00  0.00    -0.349 OA
ENDROOT
BRANCH   2   7
HETATM    7  C7  UNL     1      24.261   1.295  51.904  1.00  0.00     0.094 C 
BRANCH   7   8
HETATM    8  C8  UNL     1      23.541   2.617  51.719  1.00  0.00     0.104 C 
HETATM    9  C9  UNL     1      24.549   3.613  51.243  1.00  0.00     0.145 C 
HETATM   10  N1  UNL     1      24.256   4.960  51.691  1.00  0.00    -0.383 N 
HETATM   11  C10 UNL     1      23.118   5.781  51.458  1.00  0.00     0.202 C 
HETATM   12  H15 UNL     1      25.010   5.363  52.270  1.00  0.00     0.160 HD
HETATM   13  N2  UNL     1      21.918   5.695  50.968  1.00  0.00    -0.255 NA
HETATM   14  C11 UNL     1      21.199   4.578  50.405  1.00  0.00     0.134 C 
HETATM   15  C12 UNL     1      21.439   3.276  50.358  1.00  0.00     0.102 C 
HETATM   16  N3  UNL     1      22.451   2.379  50.806  1.00  0.00    -0.391 N 
HETATM   17  H19 UNL     1      22.240   1.460  50.316  1.00  0.00     0.159 HD
ENDBRANCH   7   8
ENDBRANCH   2   7
BRANCH   1  18
HETATM   18  C4  UNL     1      25.603  -0.909  53.843  1.00  0.00     0.238 C 
BRANCH  18  19
HETATM   19  O2  UNL     1      26.168  -0.413  55.015  1.00  0.00    -0.355 OA
BRANCH  19  20
HETATM   20  C2  UNL     1      27.303   0.332  54.758  1.00  0.00     0.255 C 
HETATM   21  C3  UNL     1      28.167  -0.266  53.678  1.00  0.00     0.070 C 
BRANCH  20  22
HETATM   22  O1  UNL     1      26.960   1.635  54.405  1.00  0.00    -0.366 OA
HETATM   23  C1  UNL     1      27.743   2.132  53.379  1.00  0.00     0.204 C 
ENDBRANCH  20  22
ENDBRANCH  19  20
ENDBRANCH  18  19
ENDBRANCH   1  18
TORSDOF 6
ENDMDL
MODEL 5
REMARK VINA RESULT:      -5.9      3.264      6.365
REMARK  6 active torsions:
REMARK  status: ('A' for Active; 'I' for Inactive)
REMARK    1  A    between atoms: O1_2  and  C2_3 
REMARK    2  A    between atoms: C2_3  and  O2_5 
REMARK    3  A    between atoms: O2_5  and  C4_6 
REMARK    4  A    between atoms: C4_6  and  C5_7 
REMARK    5  A    between atoms: C6_8  and  C7_9 
REMARK    6  A    between atoms: C7_9  and  C8_10 
ROOT
HETATM    1  C5  UNL     1      25.183   2.372  51.369  1.00  0.00     0.099 C 
HETATM    2  C6  UNL     1      25.184   1.932  52.641  1.00  0.00     0.079 C 
HETATM    3  O3  UNL     1      24.027   1.433  53.183  1.00  0.00    -0.351 OA
HETATM    4  C13 UNL     1      22.969   1.059  52.333  1.00  0.00     0.202 C 
HETATM    5  C14 UNL     1      22.773   2.025  51.209  1.00  0.00     0.202 C 
HETATM    6  O4  UNL     1      24.022   2.320  50.614  1.00  0.00    -0.349 OA
ENDROOT
BRANCH   2   7
HETATM    7  C7  UNL     1      26.321   1.908  53.599  1.00  0.00     0.094 C 
BRANCH   7   8
HETATM    8  C8  UNL     1      27.191   0.683  53.397  1.00  0.00     0.104 C 
HETATM    9  C9  UNL     1      27.979   0.480  54.652  1.00  0.00     0.145 C 
HETATM   10  N1  UNL     1      29.278  -0.114  54.404  1.00  0.00    -0.383 N 
HETATM   11  C10 UNL     1      29.622  -1.361  53.812  1.00  0.00     0.202 C 
HETATM   12  H15 UNL     1      30.059   0.485  54.717  1.00  0.00     0.160 HD
HETATM   13  N2  UNL     1      29.066  -2.335  53.158  1.00  0.00    -0.255 NA
HETATM   14  C11 UNL     1      27.701  -2.535  52.731  1.00  0.00     0.134 C 
HETATM   15  C12 UNL     1      26.635  -1.749  52.704  1.00  0.00     0.102 C 
HETATM   16  N3  UNL     1      26.312  -0.408  53.055  1.00  0.00    -0.391 N 
HETATM   17  H19 UNL     1      25.251  -0.361  53.015  1.00  0.00     0.159 HD
ENDBRANCH   7   8
ENDBRANCH   2   7
BRANCH   1  18
HETATM   18  C4  UNL     1      26.286   2.955  50.547  1.00  0.00     0.238 C 
BRANCH  18  19
HETATM   19  O2  UNL     1      25.732   3.678  49.493  1.00  0.00    -0.355 OA
BRANCH  19  20
HETATM   20  C2  UNL     1      26.268   4.950  49.412  1.00  0.00     0.255 C 
HETATM   21  C3  UNL     1      27.536   5.003  48.599  1.00  0.00     0.070 C 
BRANCH  20  22
HETATM   22  O1  UNL     1      25.338   5.836  48.874  1.00  0.00    -0.366 OA
HETATM   23  C1  UNL     1      24.090   5.263  48.710  1.00  0.00     0.204 C 
ENDBRANCH  20  22
ENDBRANCH  19  20
ENDBRANCH  18  19
ENDBRANCH   1  18
TORSDOF 6
ENDMDL
MODEL 6
REMARK VINA RESULT:      -5.7      2.455      4.635
REMARK  6 active torsions:
REMARK  status: ('A' for Active; 'I' for Inactive)
REMARK    1  A    between atoms: O1_2  and  C2_3 
REMARK    2  A    between atoms: C2_3  and  O2_5 
REMARK    3  A    between atoms: O2_5  and  C4_6 
REMARK    4  A    between atoms: C4_6  and  C5_7 
REMARK    5  A    between atoms: C6_8  and  C7_9 
REMARK    6  A    between atoms: C7_9  and  C8_10 
ROOT
HETATM    1  C5  UNL     1      27.033   1.749  53.441  1.00  0.00     0.099 C 
HETATM    2  C6  UNL     1      27.152   0.442  53.145  1.00  0.00     0.079 C 
HETATM    3  O3  UNL     1      28.269  -0.243  53.553  1.00  0.00    -0.351 OA
HETATM    4  C13 UNL     1      29.092   0.309  54.553  1.00  0.00     0.202 C 
HETATM    5  C14 UNL     1      29.282   1.782  54.386  1.00  0.00     0.202 C 
HETATM    6  O4  UNL     1      28.030   2.398  54.152  1.00  0.00    -0.349 OA
ENDROOT
BRANCH   2   7
HETATM    7  C7  UNL     1      26.197  -0.418  52.397  1.00  0.00     0.094 C 
BRANCH   7   8
HETATM    8  C8  UNL     1      24.968  -0.735  53.228  1.00  0.00     0.104 C 
HETATM    9  C9  UNL     1      25.356  -0.610  54.667  1.00  0.00     0.145 C 
HETATM   10  N1  UNL     1      24.616  -1.515  55.523  1.00  0.00    -0.383 N 
HETATM   11  C10 UNL     1      23.216  -1.623  55.758  1.00  0.00     0.202 C 
HETATM   12  H15 UNL     1      25.226  -2.175  56.032  1.00  0.00     0.160 HD
HETATM   13  N2  UNL     1      22.094  -1.174  55.283  1.00  0.00    -0.255 NA
HETATM   14  C11 UNL     1      21.818  -0.274  54.189  1.00  0.00     0.134 C 
HETATM   15  C12 UNL     1      22.569   0.238  53.225  1.00  0.00     0.102 C 
HETATM   16  N3  UNL     1      23.927   0.169  52.804  1.00  0.00    -0.391 N 
HETATM   17  H19 UNL     1      24.033   0.945  52.086  1.00  0.00     0.159 HD
ENDBRANCH   7   8
ENDBRANCH   2   7
BRANCH   1  18
HETATM   18  C4  UNL     1      25.939   2.716  53.124  1.00  0.00     0.238 C 
BRANCH  18  19
HETATM   19  O2  UNL     1      25.715   2.712  51.749  1.00  0.00    -0.355 OA
BRANCH  19  20
HETATM   20  C2  UNL     1      24.557   3.392  51.421  1.00  0.00     0.255 C 
HETATM   21  C3  UNL     1      23.845   2.800  50.231  1.00  0.00     0.070 C 
BRANCH  20  22
HETATM   22  O1  UNL     1      23.688   3.427  52.508  1.00  0.00    -0.366 OA
HETATM   23  C1  UNL     1      22.664   4.342  52.342  1.00  0.00     0.204 C 
ENDBRANCH  20  22
ENDBRANCH  19  20
ENDBRANCH  18  19
ENDBRANCH   1  18
TORSDOF 6
ENDMDL
MODEL 7
REMARK VINA RESULT:      -5.7      2.733      5.014
REMARK  6 active torsions:
REMARK  status: ('A' for Active; 'I' for Inactive)
REMARK    1  A    between atoms: O1_2  and  C2_3 
REMARK    2  A    between atoms: C2_3  and  O2_5 
REMARK    3  A    between atoms: O2_5  and  C4_6 
REMARK    4  A    between atoms: C4_6  and  C5_7 
REMARK    5  A    between atoms: C6_8  and  C7_9 
REMARK    6  A    between atoms: C7_9  and  C8_10 
ROOT
HETATM    1  C5  UNL     1      21.788   2.654  52.321  1.00  0.00     0.099 C 
HETATM    2  C6  UNL     1      23.089   2.452  52.042  1.00  0.00     0.079 C 
HETATM    3  O3  UNL     1      23.905   3.531  51.812  1.00  0.00    -0.351 OA
HETATM    4  C13 UNL     1      23.482   4.814  52.207  1.00  0.00     0.202 C 
HETATM    5  C14 UNL     1      22.033   5.049  51.925  1.00  0.00     0.202 C 
HETATM    6  O4  UNL     1      21.277   3.941  52.375  1.00  0.00    -0.349 OA
ENDROOT
BRANCH   2   7
HETATM    7  C7  UNL     1      23.812   1.157  51.940  1.00  0.00     0.094 C 
BRANCH   7   8
HETATM    8  C8  UNL     1      25.043   1.137  52.826  1.00  0.00     0.104 C 
HETATM    9  C9  UNL     1      25.320  -0.290  53.177  1.00  0.00     0.145 C 
HETATM   10  N1  UNL     1      25.925  -0.434  54.485  1.00  0.00    -0.383 N 
HETATM   11  C10 UNL     1      27.149   0.082  54.996  1.00  0.00     0.202 C 
HETATM   12  H15 UNL     1      25.357  -1.007  55.130  1.00  0.00     0.160 HD
HETATM   13  N2  UNL     1      28.080   0.927  54.671  1.00  0.00    -0.255 NA
HETATM   14  C11 UNL     1      28.234   1.772  53.510  1.00  0.00     0.134 C 
HETATM   15  C12 UNL     1      27.428   2.093  52.509  1.00  0.00     0.102 C 
HETATM   16  N3  UNL     1      26.098   1.794  52.096  1.00  0.00    -0.391 N 
HETATM   17  H19 UNL     1      26.029   2.164  51.102  1.00  0.00     0.159 HD
ENDBRANCH   7   8
ENDBRANCH   2   7
BRANCH   1  18
HETATM   18  C4  UNL     1      20.697   1.674  52.606  1.00  0.00     0.238 C 
BRANCH  18  19
HETATM   19  O2  UNL     1      21.143   0.764  53.562  1.00  0.00    -0.355 OA
BRANCH  19  20
HETATM   20  C2  UNL     1      20.561  -0.479  53.391  1.00  0.00     0.255 C 
HETATM   21  C3  UNL     1      21.041  -1.495  54.396  1.00  0.00     0.070 C 
BRANCH  20  22
HETATM   22  O1  UNL     1      19.174  -0.381  53.462  1.00  0.00    -0.366 OA
HETATM   23  C1  UNL     1      18.547  -1.607  53.333  1.00  0.00     0.204 C 
ENDBRANCH  20  22
ENDBRANCH  19  20
ENDBRANCH  18  19
ENDBRANCH   1  18
TORSDOF 6
ENDMDL
MODEL 8
REMARK VINA RESULT:      -5.7      2.881      5.260
REMARK  6 active torsions:
REMARK  status: ('A' for Active; 'I' for Inactive)
REMARK    1  A    between atoms: O1_2  and  C2_3 
REMARK    2  A    between atoms: C2_3  and  O2_5 
REMARK    3  A    between atoms: O2_5  and  C4_6 
REMARK    4  A    between atoms: C4_6  and  C5_7 
REMARK    5  A    between atoms: C6_8  and  C7_9 
REMARK    6  A    between atoms: C7_9  and  C8_10 
ROOT
HETATM    1  C5  UNL     1      24.266   3.716  50.967  1.00  0.00     0.099 C 
HETATM    2  C6  UNL     1      25.208   2.760  50.870  1.00  0.00     0.079 C 
HETATM    3  O3  UNL     1      26.273   2.945  50.024  1.00  0.00    -0.351 OA
HETATM    4  C13 UNL     1      26.560   4.239  49.547  1.00  0.00     0.202 C 
HETATM    5  C14 UNL     1      25.325   4.999  49.182  1.00  0.00     0.202 C 
HETATM    6  O4  UNL     1      24.370   4.878  50.220  1.00  0.00    -0.349 OA
ENDROOT
BRANCH   2   7
HETATM    7  C7  UNL     1      25.267   1.457  51.584  1.00  0.00     0.094 C 
BRANCH   7   8
HETATM    8  C8  UNL     1      26.602   1.264  52.278  1.00  0.00     0.104 C 
HETATM    9  C9  UNL     1      26.577   2.080  53.531  1.00  0.00     0.145 C 
HETATM   10  N1  UNL     1      27.888   2.578  53.898  1.00  0.00    -0.383 N 
HETATM   11  C10 UNL     1      29.087   1.876  54.204  1.00  0.00     0.202 C 
HETATM   12  H15 UNL     1      27.929   3.609  53.935  1.00  0.00     0.160 HD
HETATM   13  N2  UNL     1      29.573   0.673  54.148  1.00  0.00    -0.255 NA
HETATM   14  C11 UNL     1      28.992  -0.567  53.690  1.00  0.00     0.134 C 
HETATM   15  C12 UNL     1      27.878  -0.858  53.034  1.00  0.00     0.102 C 
HETATM   16  N3  UNL     1      26.770  -0.153  52.484  1.00  0.00    -0.391 N 
HETATM   17  H19 UNL     1      26.057  -0.904  52.244  1.00  0.00     0.159 HD
ENDBRANCH   7   8
ENDBRANCH   2   7
BRANCH   1  18
HETATM   18  C4  UNL     1      23.024   3.768  51.797  1.00  0.00     0.238 C 
BRANCH  18  19
HETATM   19  O2  UNL     1      21.957   3.280  51.047  1.00  0.00    -0.355 OA
BRANCH  19  20
HETATM   20  C2  UNL     1      21.454   2.108  51.581  1.00  0.00     0.255 C 
HETATM   21  C3  UNL     1      21.641   0.920  50.671  1.00  0.00     0.070 C 
BRANCH  20  22
HETATM   22  O1  UNL     1      22.045   1.842  52.813  1.00  0.00    -0.366 OA
HETATM   23  C1  UNL     1      21.639   0.633  53.349  1.00  0.00     0.204 C 
ENDBRANCH  20  22
ENDBRANCH  19  20
ENDBRANCH  18  19
ENDBRANCH   1  18
TORSDOF 6
ENDMDL
MODEL 9
REMARK VINA RESULT:      -5.7      2.708      5.046
REMARK  6 active torsions:
REMARK  status: ('A' for Active; 'I' for Inactive)
REMARK    1  A    between atoms: O1_2  and  C2_3 
REMARK    2  A    between atoms: C2_3  and  O2_5 
REMARK    3  A    between atoms: O2_5  and  C4_6 
REMARK    4  A    between atoms: C4_6  and  C5_7 
REMARK    5  A    between atoms: C6_8  and  C7_9 
REMARK    6  A    between atoms: C7_9  and  C8_10 
ROOT
HETATM    1  C5  UNL     1      25.788   2.325  52.237  1.00  0.00     0.099 C 
HETATM    2  C6  UNL     1      25.434   2.711  50.997  1.00  0.00     0.079 C 
HETATM    3  O3  UNL     1      24.104   2.829  50.682  1.00  0.00    -0.351 OA
HETATM    4  C13 UNL     1      23.151   2.894  51.716  1.00  0.00     0.202 C 
HETATM    5  C14 UNL     1      23.452   1.943  52.830  1.00  0.00     0.202 C 
HETATM    6  O4  UNL     1      24.818   2.049  53.187  1.00  0.00    -0.349 OA
ENDROOT
BRANCH   2   7
HETATM    7  C7  UNL     1      26.324   3.046  49.854  1.00  0.00     0.094 C 
BRANCH   7   8
HETATM    8  C8  UNL     1      26.318   4.535  49.565  1.00  0.00     0.104 C 
HETATM    9  C9  UNL     1      27.494   4.826  48.689  1.00  0.00     0.145 C 
HETATM   10  N1  UNL     1      28.037   6.152  48.907  1.00  0.00    -0.383 N 
HETATM   11  C10 UNL     1      27.429   7.431  48.764  1.00  0.00     0.202 C 
HETATM   12  H15 UNL     1      29.022   6.137  49.214  1.00  0.00     0.160 HD
HETATM   13  N2  UNL     1      26.255   7.954  48.576  1.00  0.00    -0.255 NA
HETATM   14  C11 UNL     1      24.956   7.344  48.420  1.00  0.00     0.134 C 
HETATM   15  C12 UNL     1      24.509   6.109  48.588  1.00  0.00     0.102 C 
HETATM   16  N3  UNL     1      25.038   4.846  48.978  1.00  0.00    -0.391 N 
HETATM   17  H19 UNL     1      24.275   4.143  48.743  1.00  0.00     0.159 HD
ENDBRANCH   7   8
ENDBRANCH   2   7
BRANCH   1  18
HETATM   18  C4  UNL     1      27.142   2.120  52.835  1.00  0.00     0.238 C 
BRANCH  18  19
HETATM   19  O2  UNL     1      27.646   0.895  52.406  1.00  0.00    -0.355 OA
BRANCH  19  20
HETATM   20  C2  UNL     1      27.475  -0.090  53.361  1.00  0.00     0.255 C 
HETATM   21  C3  UNL     1      27.071  -1.417  52.771  1.00  0.00     0.070 C 
BRANCH  20  22
HETATM   22  O1  UNL     1      28.639  -0.252  54.107  1.00  0.00    -0.366 OA
HETATM   23  C1  UNL     1      29.491  -1.198  53.566  1.00  0.00     0.204 C 
ENDBRANCH  20  22
ENDBRANCH  19  20
ENDBRANCH  18  19
ENDBRANCH   1  18
TORSDOF 6
ENDMDL
