MODEL 1
REMARK VINA RESULT:      -8.5      0.000      0.000
REMARK  0 active torsions:
REMARK  status: ('A' for Active; 'I' for Inactive)
ROOT
HETATM    1 CL1  UNL     1      28.506  -1.580  53.083  1.00  0.00    -0.084 Cl
HETATM    2  C1  UNL     1      27.086  -0.573  52.899  1.00  0.00     0.034 A 
HETATM    3  C2  UNL     1      27.203   0.582  52.154  1.00  0.00     0.026 A 
HETATM    4  C3  UNL     1      26.140   1.437  51.955  1.00  0.00     0.039 A 
HETATM    5  C4  UNL     1      24.888   1.143  52.520  1.00  0.00     0.086 A 
HETATM    6  C5  UNL     1      24.789  -0.034  53.274  1.00  0.00    -0.005 A 
HETATM    7  C6  UNL     1      25.864  -0.875  53.462  1.00  0.00     0.035 A 
HETATM    8  C7  UNL     1      23.622  -0.604  53.988  1.00  0.00     0.161 C 
HETATM    9  N1  UNL     1      22.375  -0.434  53.276  1.00  0.00    -0.382 N 
HETATM   10  C8  UNL     1      21.871   0.564  52.362  1.00  0.00     0.082 C 
HETATM   11  C9  UNL     1      20.861   0.074  51.664  1.00  0.00     0.040 C 
HETATM   12  C10 UNL     1      20.012   0.643  50.630  1.00  0.00    -0.055 C 
HETATM   13  C11 UNL     1      18.670   0.608  50.715  1.00  0.00     0.002 C 
HETATM   14  C12 UNL     1      18.061   1.967  50.944  1.00  0.00     0.174 C 
HETATM   15  N2  UNL     1      19.194   2.898  50.826  1.00  0.00    -0.286 N 
HETATM   16  N3  UNL     1      19.545   3.608  52.005  1.00  0.00    -0.169 NA
HETATM   17  C13 UNL     1      20.795   3.563  52.406  1.00  0.00     0.257 C 
HETATM   18  N4  UNL     1      22.142   3.169  52.330  1.00  0.00    -0.214 NA
HETATM   19  C14 UNL     1      22.501   1.905  52.317  1.00  0.00     0.198 C 
HETATM   20  O1  UNL     1      23.895   2.104  52.234  1.00  0.00    -0.289 OA
HETATM   21  C15 UNL     1      19.657   2.795  49.430  1.00  0.00     0.180 C 
HETATM   22 BR1  UNL     1      18.147   3.018  48.282  1.00  0.00    -0.067 Br
HETATM   23  C16 UNL     1      20.187   1.357  49.333  1.00  0.00     0.076 C 
HETATM   24  H6  UNL     1      21.644  -1.189  53.433  1.00  0.00     0.160 HD
ENDROOT
TORSDOF 0
ENDMDL
MODEL 2
REMARK VINA RESULT:      -8.5      4.169      7.361
REMARK  0 active torsions:
REMARK  status: ('A' for Active; 'I' for Inactive)
ROOT
HETATM    1 CL1  UNL     1      19.636   3.768  48.073  1.00  0.00    -0.084 Cl
HETATM    2  C1  UNL     1      20.587   2.881  49.244  1.00  0.00     0.034 A 
HETATM    3  C2  UNL     1      20.724   1.520  49.069  1.00  0.00     0.026 A 
HETATM    4  C3  UNL     1      21.455   0.738  49.940  1.00  0.00     0.039 A 
HETATM    5  C4  UNL     1      22.087   1.326  51.048  1.00  0.00     0.086 A 
HETATM    6  C5  UNL     1      21.935   2.709  51.210  1.00  0.00    -0.005 A 
HETATM    7  C6  UNL     1      21.201   3.472  50.328  1.00  0.00     0.035 A 
HETATM    8  C7  UNL     1      22.469   3.603  52.264  1.00  0.00     0.161 C 
HETATM    9  N1  UNL     1      23.809   3.257  52.684  1.00  0.00    -0.382 N 
HETATM   10  C8  UNL     1      24.549   2.019  52.757  1.00  0.00     0.082 C 
HETATM   11  C9  UNL     1      25.846   2.264  52.801  1.00  0.00     0.040 C 
HETATM   12  C10 UNL     1      27.010   1.396  52.879  1.00  0.00    -0.055 C 
HETATM   13  C11 UNL     1      27.959   1.563  53.819  1.00  0.00     0.002 C 
HETATM   14  C12 UNL     1      27.970   0.457  54.842  1.00  0.00     0.174 C 
HETATM   15  N2  UNL     1      27.005  -0.526  54.327  1.00  0.00    -0.286 N 
HETATM   16  N3  UNL     1      25.842  -0.732  55.116  1.00  0.00    -0.169 NA
HETATM   17  C13 UNL     1      24.671  -0.625  54.532  1.00  0.00     0.257 C 
HETATM   18  N4  UNL     1      23.805  -0.396  53.448  1.00  0.00    -0.214 NA
HETATM   19  C14 UNL     1      23.821   0.728  52.767  1.00  0.00     0.198 C 
HETATM   20  O1  UNL     1      22.797   0.408  51.851  1.00  0.00    -0.289 OA
HETATM   21  C15 UNL     1      27.571  -1.023  53.060  1.00  0.00     0.180 C 
HETATM   22 BR1  UNL     1      29.372  -1.570  53.384  1.00  0.00    -0.067 Br
HETATM   23  C16 UNL     1      27.551   0.213  52.149  1.00  0.00     0.076 C 
HETATM   24  H6  UNL     1      24.415   4.065  53.016  1.00  0.00     0.160 HD
ENDROOT
TORSDOF 0
ENDMDL
MODEL 3
REMARK VINA RESULT:      -8.2      1.972      2.318
REMARK  0 active torsions:
REMARK  status: ('A' for Active; 'I' for Inactive)
ROOT
HETATM    1 CL1  UNL     1      29.812  -1.210  53.935  1.00  0.00    -0.084 Cl
HETATM    2  C1  UNL     1      28.493  -0.104  53.621  1.00  0.00     0.034 A 
HETATM    3  C2  UNL     1      28.805   1.190  53.258  1.00  0.00     0.026 A 
HETATM    4  C3  UNL     1      27.833   2.131  52.992  1.00  0.00     0.039 A 
HETATM    5  C4  UNL     1      26.475   1.785  53.087  1.00  0.00     0.086 A 
HETATM    6  C5  UNL     1      26.178   0.466  53.458  1.00  0.00    -0.005 A 
HETATM    7  C6  UNL     1      27.164  -0.459  53.720  1.00  0.00     0.035 A 
HETATM    8  C7  UNL     1      24.863  -0.191  53.645  1.00  0.00     0.161 C 
HETATM    9  N1  UNL     1      23.872   0.227  52.678  1.00  0.00    -0.382 N 
HETATM   10  C8  UNL     1      23.639   1.449  51.943  1.00  0.00     0.082 C 
HETATM   11  C9  UNL     1      22.880   1.210  50.889  1.00  0.00     0.040 C 
HETATM   12  C10 UNL     1      22.357   2.067  49.838  1.00  0.00    -0.055 C 
HETATM   13  C11 UNL     1      21.048   2.095  49.529  1.00  0.00     0.002 C 
HETATM   14  C12 UNL     1      20.382   3.390  49.916  1.00  0.00     0.174 C 
HETATM   15  N2  UNL     1      21.489   4.250  50.362  1.00  0.00    -0.286 N 
HETATM   16  N3  UNL     1      21.476   4.623  51.732  1.00  0.00    -0.169 NA
HETATM   17  C13 UNL     1      22.558   4.404  52.444  1.00  0.00     0.257 C 
HETATM   18  N4  UNL     1      23.875   3.959  52.653  1.00  0.00    -0.214 NA
HETATM   19  C14 UNL     1      24.238   2.717  52.421  1.00  0.00     0.198 C 
HETATM   20  O1  UNL     1      25.595   2.845  52.788  1.00  0.00    -0.289 OA
HETATM   21  C15 UNL     1      22.336   4.467  49.175  1.00  0.00     0.180 C 
HETATM   22 BR1  UNL     1      21.218   5.058  47.744  1.00  0.00    -0.067 Br
HETATM   23  C16 UNL     1      22.890   3.068  48.868  1.00  0.00     0.076 C 
HETATM   24  H6  UNL     1      23.136  -0.497  52.424  1.00  0.00     0.160 HD
ENDROOT
TORSDOF 0
ENDMDL
MODEL 4
REMARK VINA RESULT:      -7.7      3.815      5.239
REMARK  0 active torsions:
REMARK  status: ('A' for Active; 'I' for Inactive)
ROOT
HETATM    1 CL1  UNL     1      22.623  -1.632  54.945  1.00  0.00    -0.084 Cl
HETATM    2  C1  UNL     1      22.631  -0.450  53.655  1.00  0.00     0.034 A 
HETATM    3  C2  UNL     1      21.512  -0.359  52.854  1.00  0.00     0.026 A 
HETATM    4  C3  UNL     1      21.427   0.543  51.813  1.00  0.00     0.039 A 
HETATM    5  C4  UNL     1      22.503   1.405  51.542  1.00  0.00     0.086 A 
HETATM    6  C5  UNL     1      23.630   1.297  52.366  1.00  0.00    -0.005 A 
HETATM    7  C6  UNL     1      23.696   0.390  53.401  1.00  0.00     0.035 A 
HETATM    8  C7  UNL     1      24.905   2.053  52.330  1.00  0.00     0.161 C 
HETATM    9  N1  UNL     1      24.732   3.451  52.004  1.00  0.00    -0.382 N 
HETATM   10  C8  UNL     1      23.777   4.185  51.208  1.00  0.00     0.082 C 
HETATM   11  C9  UNL     1      23.782   5.461  51.549  1.00  0.00     0.040 C 
HETATM   12  C10 UNL     1      23.031   6.610  51.073  1.00  0.00    -0.055 C 
HETATM   13  C11 UNL     1      23.640   7.743  50.677  1.00  0.00     0.002 C 
HETATM   14  C12 UNL     1      23.536   7.976  49.192  1.00  0.00     0.174 C 
HETATM   15  N2  UNL     1      22.630   6.917  48.720  1.00  0.00    -0.286 N 
HETATM   16  N3  UNL     1      23.197   5.956  47.842  1.00  0.00    -0.169 NA
HETATM   17  C13 UNL     1      23.060   4.685  48.143  1.00  0.00     0.257 C 
HETATM   18  N4  UNL     1      22.625   3.603  48.928  1.00  0.00    -0.214 NA
HETATM   19  C14 UNL     1      22.969   3.472  50.190  1.00  0.00     0.198 C 
HETATM   20  O1  UNL     1      22.277   2.271  50.451  1.00  0.00    -0.289 OA
HETATM   21  C15 UNL     1      21.327   7.190  49.352  1.00  0.00     0.180 C 
HETATM   22 BR1  UNL     1      20.874   9.016  49.026  1.00  0.00    -0.067 Br
HETATM   23  C16 UNL     1      21.602   6.974  50.848  1.00  0.00     0.076 C 
HETATM   24  H6  UNL     1      25.444   4.118  52.427  1.00  0.00     0.160 HD
ENDROOT
TORSDOF 0
ENDMDL
MODEL 5
REMARK VINA RESULT:      -7.3      5.840      7.142
REMARK  0 active torsions:
REMARK  status: ('A' for Active; 'I' for Inactive)
ROOT
HETATM    1 CL1  UNL     1      30.512   9.721  49.328  1.00  0.00    -0.084 Cl
HETATM    2  C1  UNL     1      29.058   8.767  49.134  1.00  0.00     0.034 A 
HETATM    3  C2  UNL     1      29.135   7.615  48.380  1.00  0.00     0.026 A 
HETATM    4  C3  UNL     1      28.042   6.800  48.172  1.00  0.00     0.039 A 
HETATM    5  C4  UNL     1      26.800   7.134  48.737  1.00  0.00     0.086 A 
HETATM    6  C5  UNL     1      26.741   8.308  49.499  1.00  0.00    -0.005 A 
HETATM    7  C6  UNL     1      27.845   9.109  49.694  1.00  0.00     0.035 A 
HETATM    8  C7  UNL     1      25.592   8.919  50.208  1.00  0.00     0.161 C 
HETATM    9  N1  UNL     1      24.722   7.947  50.832  1.00  0.00    -0.382 N 
HETATM   10  C8  UNL     1      24.359   6.583  50.526  1.00  0.00     0.082 C 
HETATM   11  C9  UNL     1      23.872   5.989  51.600  1.00  0.00     0.040 C 
HETATM   12  C10 UNL     1      23.368   4.646  51.839  1.00  0.00    -0.055 C 
HETATM   13  C11 UNL     1      22.162   4.428  52.394  1.00  0.00     0.002 C 
HETATM   14  C12 UNL     1      21.167   3.845  51.423  1.00  0.00     0.174 C 
HETATM   15  N2  UNL     1      21.959   3.564  50.216  1.00  0.00    -0.286 N 
HETATM   16  N3  UNL     1      21.620   4.315  49.059  1.00  0.00    -0.169 NA
HETATM   17  C13 UNL     1      22.579   4.963  48.438  1.00  0.00     0.257 C 
HETATM   18  N4  UNL     1      23.903   5.391  48.238  1.00  0.00    -0.214 NA
HETATM   19  C14 UNL     1      24.568   6.058  49.156  1.00  0.00     0.198 C 
HETATM   20  O1  UNL     1      25.774   6.211  48.441  1.00  0.00    -0.289 OA
HETATM   21  C15 UNL     1      22.934   2.529  50.603  1.00  0.00     0.180 C 
HETATM   22 BR1  UNL     1      21.987   1.101  51.446  1.00  0.00    -0.067 Br
HETATM   23  C16 UNL     1      23.830   3.244  51.625  1.00  0.00     0.076 C 
HETATM   24  H6  UNL     1      24.222   8.269  51.713  1.00  0.00     0.160 HD
ENDROOT
TORSDOF 0
ENDMDL
MODEL 6
REMARK VINA RESULT:      -7.3      6.676      8.216
REMARK  0 active torsions:
REMARK  status: ('A' for Active; 'I' for Inactive)
ROOT
HETATM    1 CL1  UNL     1      27.995   9.520  43.679  1.00  0.00    -0.084 Cl
HETATM    2  C1  UNL     1      27.153   8.894  45.080  1.00  0.00     0.034 A 
HETATM    3  C2  UNL     1      25.775   8.935  45.079  1.00  0.00     0.026 A 
HETATM    4  C3  UNL     1      25.026   8.464  46.137  1.00  0.00     0.039 A 
HETATM    5  C4  UNL     1      25.667   7.923  47.264  1.00  0.00     0.086 A 
HETATM    6  C5  UNL     1      27.067   7.890  47.247  1.00  0.00    -0.005 A 
HETATM    7  C6  UNL     1      27.797   8.365  46.179  1.00  0.00     0.035 A 
HETATM    8  C7  UNL     1      28.015   7.391  48.272  1.00  0.00     0.161 C 
HETATM    9  N1  UNL     1      27.557   6.194  48.940  1.00  0.00    -0.382 N 
HETATM   10  C8  UNL     1      26.254   5.664  49.269  1.00  0.00     0.082 C 
HETATM   11  C9  UNL     1      26.333   4.366  49.498  1.00  0.00     0.040 C 
HETATM   12  C10 UNL     1      25.340   3.368  49.860  1.00  0.00    -0.055 C 
HETATM   13  C11 UNL     1      25.505   2.554  50.919  1.00  0.00     0.002 C 
HETATM   14  C12 UNL     1      24.550   2.857  52.045  1.00  0.00     0.174 C 
HETATM   15  N2  UNL     1      23.641   3.871  51.488  1.00  0.00    -0.286 N 
HETATM   16  N3  UNL     1      23.692   5.154  52.093  1.00  0.00    -0.169 NA
HETATM   17  C13 UNL     1      23.871   6.198  51.317  1.00  0.00     0.257 C 
HETATM   18  N4  UNL     1      24.066   6.851  50.087  1.00  0.00    -0.214 NA
HETATM   19  C14 UNL     1      25.080   6.569  49.299  1.00  0.00     0.198 C 
HETATM   20  O1  UNL     1      24.778   7.482  48.267  1.00  0.00    -0.289 OA
HETATM   21  C15 UNL     1      22.914   3.204  50.393  1.00  0.00     0.180 C 
HETATM   22 BR1  UNL     1      22.186   1.571  51.065  1.00  0.00    -0.067 Br
HETATM   23  C16 UNL     1      24.013   2.906  49.362  1.00  0.00     0.076 C 
HETATM   24  H6  UNL     1      28.316   5.531  49.278  1.00  0.00     0.160 HD
ENDROOT
TORSDOF 0
ENDMDL
MODEL 7
REMARK VINA RESULT:      -7.3      9.014     10.573
REMARK  0 active torsions:
REMARK  status: ('A' for Active; 'I' for Inactive)
ROOT
HETATM    1 CL1  UNL     1      34.284   4.688  43.334  1.00  0.00    -0.084 Cl
HETATM    2  C1  UNL     1      33.251   5.592  44.420  1.00  0.00     0.034 A 
HETATM    3  C2  UNL     1      32.832   6.844  44.023  1.00  0.00     0.026 A 
HETATM    4  C3  UNL     1      32.017   7.629  44.812  1.00  0.00     0.039 A 
HETATM    5  C4  UNL     1      31.588   7.159  46.064  1.00  0.00     0.086 A 
HETATM    6  C5  UNL     1      32.025   5.884  46.450  1.00  0.00    -0.005 A 
HETATM    7  C6  UNL     1      32.839   5.116  45.647  1.00  0.00     0.035 A 
HETATM    8  C7  UNL     1      31.750   5.126  47.694  1.00  0.00     0.161 C 
HETATM    9  N1  UNL     1      30.397   5.292  48.178  1.00  0.00    -0.382 N 
HETATM   10  C8  UNL     1      29.430   6.362  48.107  1.00  0.00     0.082 C 
HETATM   11  C9  UNL     1      28.215   5.894  48.323  1.00  0.00     0.040 C 
HETATM   12  C10 UNL     1      26.908   6.530  48.364  1.00  0.00    -0.055 C 
HETATM   13  C11 UNL     1      26.074   6.374  49.409  1.00  0.00     0.002 C 
HETATM   14  C12 UNL     1      25.907   7.634  50.218  1.00  0.00     0.174 C 
HETATM   15  N2  UNL     1      26.620   8.661  49.444  1.00  0.00    -0.286 N 
HETATM   16  N3  UNL     1      27.766   9.226  50.064  1.00  0.00    -0.169 NA
HETATM   17  C13 UNL     1      28.895   9.228  49.393  1.00  0.00     0.257 C 
HETATM   18  N4  UNL     1      29.718   8.960  48.285  1.00  0.00    -0.214 NA
HETATM   19  C14 UNL     1      29.884   7.743  47.817  1.00  0.00     0.198 C 
HETATM   20  O1  UNL     1      30.762   8.065  46.761  1.00  0.00    -0.289 OA
HETATM   21  C15 UNL     1      25.886   8.792  48.173  1.00  0.00     0.180 C 
HETATM   22 BR1  UNL     1      24.036   9.048  48.574  1.00  0.00    -0.067 Br
HETATM   23  C16 UNL     1      26.095   7.429  47.495  1.00  0.00     0.076 C 
HETATM   24  H6  UNL     1      29.989   4.465  48.706  1.00  0.00     0.160 HD
ENDROOT
TORSDOF 0
ENDMDL
MODEL 8
REMARK VINA RESULT:      -7.3      4.394      5.314
REMARK  0 active torsions:
REMARK  status: ('A' for Active; 'I' for Inactive)
ROOT
HETATM    1 CL1  UNL     1      29.652   6.909  47.131  1.00  0.00    -0.084 Cl
HETATM    2  C1  UNL     1      28.233   6.544  48.087  1.00  0.00     0.034 A 
HETATM    3  C2  UNL     1      27.427   7.593  48.476  1.00  0.00     0.026 A 
HETATM    4  C3  UNL     1      26.288   7.402  49.231  1.00  0.00     0.039 A 
HETATM    5  C4  UNL     1      25.919   6.106  49.628  1.00  0.00     0.086 A 
HETATM    6  C5  UNL     1      26.751   5.054  49.223  1.00  0.00    -0.005 A 
HETATM    7  C6  UNL     1      27.884   5.266  48.470  1.00  0.00     0.035 A 
HETATM    8  C7  UNL     1      26.632   3.599  49.484  1.00  0.00     0.161 C 
HETATM    9  N1  UNL     1      25.267   3.121  49.444  1.00  0.00    -0.382 N 
HETATM   10  C8  UNL     1      23.986   3.715  49.744  1.00  0.00     0.082 C 
HETATM   11  C9  UNL     1      23.018   3.032  49.162  1.00  0.00     0.040 C 
HETATM   12  C10 UNL     1      21.573   3.196  49.139  1.00  0.00    -0.055 C 
HETATM   13  C11 UNL     1      20.739   2.188  49.455  1.00  0.00     0.002 C 
HETATM   14  C12 UNL     1      20.015   2.414  50.757  1.00  0.00     0.174 C 
HETATM   15  N2  UNL     1      20.380   3.786  51.143  1.00  0.00    -0.286 N 
HETATM   16  N3  UNL     1      21.146   3.917  52.331  1.00  0.00    -0.169 NA
HETATM   17  C13 UNL     1      22.264   4.603  52.275  1.00  0.00     0.257 C 
HETATM   18  N4  UNL     1      23.255   5.371  51.638  1.00  0.00    -0.214 NA
HETATM   19  C14 UNL     1      23.921   4.927  50.595  1.00  0.00     0.198 C 
HETATM   20  O1  UNL     1      24.735   6.061  50.394  1.00  0.00    -0.289 OA
HETATM   21  C15 UNL     1      19.809   4.663  50.105  1.00  0.00     0.180 C 
HETATM   22 BR1  UNL     1      17.965   4.216  49.892  1.00  0.00    -0.067 Br
HETATM   23  C16 UNL     1      20.594   4.281  48.842  1.00  0.00     0.076 C 
HETATM   24  H6  UNL     1      25.138   2.114  49.126  1.00  0.00     0.160 HD
ENDROOT
TORSDOF 0
ENDMDL
MODEL 9
REMARK VINA RESULT:      -7.2      4.835      6.472
REMARK  0 active torsions:
REMARK  status: ('A' for Active; 'I' for Inactive)
ROOT
HETATM    1 CL1  UNL     1      19.791  -0.510  53.197  1.00  0.00    -0.084 Cl
HETATM    2  C1  UNL     1      21.005   0.424  52.351  1.00  0.00     0.034 A 
HETATM    3  C2  UNL     1      21.049   0.334  50.976  1.00  0.00     0.026 A 
HETATM    4  C3  UNL     1      21.971   1.033  50.224  1.00  0.00     0.039 A 
HETATM    5  C4  UNL     1      22.904   1.870  50.859  1.00  0.00     0.086 A 
HETATM    6  C5  UNL     1      22.844   1.948  52.256  1.00  0.00    -0.005 A 
HETATM    7  C6  UNL     1      21.915   1.241  52.989  1.00  0.00     0.035 A 
HETATM    8  C7  UNL     1      23.682   2.728  53.198  1.00  0.00     0.161 C 
HETATM    9  N1  UNL     1      24.032   4.040  52.699  1.00  0.00    -0.382 N 
HETATM   10  C8  UNL     1      24.247   4.588  51.381  1.00  0.00     0.082 C 
HETATM   11  C9  UNL     1      24.134   5.903  51.409  1.00  0.00     0.040 C 
HETATM   12  C10 UNL     1      24.253   6.924  50.381  1.00  0.00    -0.055 C 
HETATM   13  C11 UNL     1      25.063   7.988  50.527  1.00  0.00     0.002 C 
HETATM   14  C12 UNL     1      26.252   7.950  49.602  1.00  0.00     0.174 C 
HETATM   15  N2  UNL     1      25.997   6.795  48.729  1.00  0.00    -0.286 N 
HETATM   16  N3  UNL     1      26.910   5.713  48.842  1.00  0.00    -0.169 NA
HETATM   17  C13 UNL     1      26.423   4.512  49.054  1.00  0.00     0.257 C 
HETATM   18  N4  UNL     1      25.397   3.572  49.258  1.00  0.00    -0.214 NA
HETATM   19  C14 UNL     1      24.538   3.679  50.247  1.00  0.00     0.198 C 
HETATM   20  O1  UNL     1      23.783   2.520  49.968  1.00  0.00    -0.289 OA
HETATM   21  C15 UNL     1      24.787   7.130  47.958  1.00  0.00     0.180 C 
HETATM   22 BR1  UNL     1      25.036   8.853  47.172  1.00  0.00    -0.067 Br
HETATM   23  C16 UNL     1      23.686   7.193  49.027  1.00  0.00     0.076 C 
HETATM   24  H6  UNL     1      24.169   4.795  53.436  1.00  0.00     0.160 HD
ENDROOT
TORSDOF 0
ENDMDL
