MODEL 1
REMARK VINA RESULT:      -7.0      0.000      0.000
REMARK  1 active torsions:
REMARK  status: ('A' for Active; 'I' for Inactive)
REMARK    1  A    between atoms: N1_1  and  C1_2 
ROOT
HETATM    1  C1  UNL     1      29.131   9.248  49.438  1.00  0.00     0.128 C 
HETATM    2  N2  UNL     1      30.021  10.223  49.137  1.00  0.00    -0.165 NA
HETATM    3  N3  UNL     1      30.975   9.989  48.080  1.00  0.00    -0.300 N 
HETATM    4  C2  UNL     1      31.791   8.815  48.187  1.00  0.00     0.175 C 
HETATM    5  C3  UNL     1      32.173   8.193  46.869  1.00  0.00    -0.033 C 
HETATM    6  C4  UNL     1      33.360   7.811  46.212  1.00  0.00     0.011 C 
HETATM    7  C5  UNL     1      32.977   6.310  45.533  1.00  0.00     0.133 C 
HETATM    8  C6  UNL     1      31.934   7.046  44.813  1.00  0.00     0.003 C 
HETATM    9  C7  UNL     1      31.259   7.649  45.818  1.00  0.00     0.007 C 
HETATM   10  N4  UNL     1      32.454   5.805  46.787  1.00  0.00    -0.325 N 
HETATM   11  C8  UNL     1      31.908   5.278  48.096  1.00  0.00     0.425 C 
HETATM   12  O1  UNL     1      32.169   4.267  48.419  1.00  0.00    -0.239 OA
HETATM   13  N5  UNL     1      30.999   6.300  48.914  1.00  0.00     0.093 N 
HETATM   14  C9  UNL     1      31.903   7.215  49.618  1.00  0.00     0.288 A 
HETATM   15  C10 UNL     1      30.889   7.855  49.059  1.00  0.00     0.220 A 
HETATM   16  C11 UNL     1      29.492   8.286  48.565  1.00  0.00     0.126 C 
HETATM   17  C12 UNL     1      28.972   7.005  48.008  1.00  0.00     0.058 C 
HETATM   18  C13 UNL     1      29.862   5.945  48.206  1.00  0.00     0.296 C 
HETATM   19  F1  UNL     1      29.544   4.742  47.741  1.00  0.00    -0.178 F 
HETATM   20  H3  UNL     1      31.159  10.573  47.219  1.00  0.00     0.183 HD
HETATM   21  H9  UNL     1      31.605   6.260  46.635  1.00  0.00     0.165 HD
ENDROOT
BRANCH   1  22
HETATM   22  N1  UNL     1      28.190   9.446  50.458  1.00  0.00    -0.385 N 
HETATM   23  H1  UNL     1      27.225   9.046  50.265  1.00  0.00     0.157 HD
HETATM   24  H2  UNL     1      28.880   9.962  51.073  1.00  0.00     0.157 HD
ENDBRANCH   1  22
TORSDOF 1
ENDMDL
MODEL 2
REMARK VINA RESULT:      -6.8      8.306     10.211
REMARK  1 active torsions:
REMARK  status: ('A' for Active; 'I' for Inactive)
REMARK    1  A    between atoms: N1_1  and  C1_2 
ROOT
HETATM    1  C1  UNL     1      20.611   2.913  52.266  1.00  0.00     0.128 C 
HETATM    2  N2  UNL     1      20.675   1.605  52.612  1.00  0.00    -0.165 NA
HETATM    3  N3  UNL     1      21.963   1.033  52.925  1.00  0.00    -0.300 N 
HETATM    4  C2  UNL     1      22.993   1.167  51.937  1.00  0.00     0.175 C 
HETATM    5  C3  UNL     1      24.387   1.284  52.495  1.00  0.00    -0.033 C 
HETATM    6  C4  UNL     1      25.625   0.628  52.333  1.00  0.00     0.011 C 
HETATM    7  C5  UNL     1      26.746   1.893  52.280  1.00  0.00     0.133 C 
HETATM    8  C6  UNL     1      26.249   2.218  53.620  1.00  0.00     0.003 C 
HETATM    9  C7  UNL     1      24.917   2.339  53.414  1.00  0.00     0.007 C 
HETATM   10  N4  UNL     1      25.983   2.612  51.278  1.00  0.00    -0.325 N 
HETATM   11  C8  UNL     1      25.187   3.362  50.233  1.00  0.00     0.425 C 
HETATM   12  O1  UNL     1      25.707   3.813  49.383  1.00  0.00    -0.239 OA
HETATM   13  N5  UNL     1      23.612   3.392  50.470  1.00  0.00     0.093 N 
HETATM   14  C9  UNL     1      23.079   2.107  50.005  1.00  0.00     0.288 A 
HETATM   15  C10 UNL     1      22.551   2.472  51.163  1.00  0.00     0.220 A 
HETATM   16  C11 UNL     1      21.911   3.262  52.323  1.00  0.00     0.126 C 
HETATM   17  C12 UNL     1      22.757   4.490  52.339  1.00  0.00     0.058 C 
HETATM   18  C13 UNL     1      23.700   4.493  51.307  1.00  0.00     0.296 C 
HETATM   19  F1  UNL     1      24.543   5.515  51.207  1.00  0.00    -0.178 F 
HETATM   20  H3  UNL     1      22.259   0.520  53.800  1.00  0.00     0.183 HD
HETATM   21  H9  UNL     1      25.387   2.967  51.963  1.00  0.00     0.165 HD
ENDROOT
BRANCH   1  22
HETATM   22  N1  UNL     1      19.375   3.498  51.958  1.00  0.00    -0.385 N 
HETATM   23  H1  UNL     1      19.425   4.354  51.330  1.00  0.00     0.157 HD
HETATM   24  H2  UNL     1      18.832   2.788  52.525  1.00  0.00     0.157 HD
ENDBRANCH   1  22
TORSDOF 1
ENDMDL
MODEL 3
REMARK VINA RESULT:      -6.8      9.182     10.818
REMARK  1 active torsions:
REMARK  status: ('A' for Active; 'I' for Inactive)
REMARK    1  A    between atoms: N1_1  and  C1_2 
ROOT
HETATM    1  C1  UNL     1      28.776  -0.225  54.073  1.00  0.00     0.128 C 
HETATM    2  N2  UNL     1      29.165   0.628  53.096  1.00  0.00    -0.165 NA
HETATM    3  N3  UNL     1      28.218   1.601  52.608  1.00  0.00    -0.300 N 
HETATM    4  C2  UNL     1      26.959   1.105  52.134  1.00  0.00     0.175 C 
HETATM    5  C3  UNL     1      25.795   2.036  52.351  1.00  0.00    -0.033 C 
HETATM    6  C4  UNL     1      24.786   2.629  51.565  1.00  0.00     0.011 C 
HETATM    7  C5  UNL     1      23.395   2.477  52.515  1.00  0.00     0.133 C 
HETATM    8  C6  UNL     1      24.136   3.273  53.498  1.00  0.00     0.003 C 
HETATM    9  C7  UNL     1      25.274   2.559  53.651  1.00  0.00     0.007 C 
HETATM   10  N4  UNL     1      23.629   1.064  52.742  1.00  0.00    -0.325 N 
HETATM   11  C8  UNL     1      23.873  -0.411  52.978  1.00  0.00     0.425 C 
HETATM   12  O1  UNL     1      23.038  -1.113  52.904  1.00  0.00    -0.239 OA
HETATM   13  N5  UNL     1      25.384  -0.808  53.293  1.00  0.00     0.093 N 
HETATM   14  C9  UNL     1      26.094  -0.860  52.011  1.00  0.00     0.288 A 
HETATM   15  C10 UNL     1      26.801  -0.243  52.944  1.00  0.00     0.220 A 
HETATM   16  C11 UNL     1      27.498   0.158  54.261  1.00  0.00     0.126 C 
HETATM   17  C12 UNL     1      26.390  -0.024  55.242  1.00  0.00     0.058 C 
HETATM   18  C13 UNL     1      25.235  -0.536  54.644  1.00  0.00     0.296 C 
HETATM   19  F1  UNL     1      24.154  -0.730  55.390  1.00  0.00    -0.178 F 
HETATM   20  H3  UNL     1      28.324   2.651  52.551  1.00  0.00     0.183 HD
HETATM   21  H9  UNL     1      24.272   1.266  53.446  1.00  0.00     0.165 HD
ENDROOT
BRANCH   1  22
HETATM   22  N1  UNL     1      29.673  -1.181  54.571  1.00  0.00    -0.385 N 
HETATM   23  H1  UNL     1      30.642  -1.161  54.134  1.00  0.00     0.157 HD
HETATM   24  H2  UNL     1      28.962  -1.579  55.248  1.00  0.00     0.157 HD
ENDBRANCH   1  22
TORSDOF 1
ENDMDL
MODEL 4
REMARK VINA RESULT:      -6.8      8.144     10.299
REMARK  1 active torsions:
REMARK  status: ('A' for Active; 'I' for Inactive)
REMARK    1  A    between atoms: N1_1  and  C1_2 
ROOT
HETATM    1  C1  UNL     1      26.263   3.558  50.019  1.00  0.00     0.128 C 
HETATM    2  N2  UNL     1      26.679   2.783  51.049  1.00  0.00    -0.165 NA
HETATM    3  N3  UNL     1      25.722   1.919  51.697  1.00  0.00    -0.300 N 
HETATM    4  C2  UNL     1      24.528   2.530  52.202  1.00  0.00     0.175 C 
HETATM    5  C3  UNL     1      23.306   1.651  52.161  1.00  0.00    -0.033 C 
HETATM    6  C4  UNL     1      22.328   1.196  53.069  1.00  0.00     0.011 C 
HETATM    7  C5  UNL     1      20.881   1.336  52.205  1.00  0.00     0.133 C 
HETATM    8  C6  UNL     1      21.506   0.406  51.260  1.00  0.00     0.003 C 
HETATM    9  C7  UNL     1      22.665   1.035  50.958  1.00  0.00     0.007 C 
HETATM   10  N4  UNL     1      21.169   2.704  51.821  1.00  0.00    -0.325 N 
HETATM   11  C8  UNL     1      21.469   4.132  51.420  1.00  0.00     0.425 C 
HETATM   12  O1  UNL     1      20.678   4.884  51.479  1.00  0.00    -0.239 OA
HETATM   13  N5  UNL     1      22.971   4.409  50.964  1.00  0.00     0.093 N 
HETATM   14  C9  UNL     1      23.775   4.544  52.183  1.00  0.00     0.288 A 
HETATM   15  C10 UNL     1      24.380   3.800  51.272  1.00  0.00     0.220 A 
HETATM   16  C11 UNL     1      24.957   3.232  49.958  1.00  0.00     0.126 C 
HETATM   17  C12 UNL     1      23.791   3.381  49.041  1.00  0.00     0.058 C 
HETATM   18  C13 UNL     1      22.710   4.014  49.662  1.00  0.00     0.296 C 
HETATM   19  F1  UNL     1      21.588   4.196  48.974  1.00  0.00    -0.178 F 
HETATM   20  H3  UNL     1      25.779   0.875  51.853  1.00  0.00     0.183 HD
HETATM   21  H9  UNL     1      21.747   2.397  51.098  1.00  0.00     0.165 HD
ENDROOT
BRANCH   1  22
HETATM   22  N1  UNL     1      27.169   4.407  49.367  1.00  0.00    -0.385 N 
HETATM   23  H1  UNL     1      27.971   4.757  49.968  1.00  0.00     0.157 HD
HETATM   24  H2  UNL     1      26.643   4.355  48.449  1.00  0.00     0.157 HD
ENDBRANCH   1  22
TORSDOF 1
ENDMDL
MODEL 5
REMARK VINA RESULT:      -6.6      9.055     10.789
REMARK  1 active torsions:
REMARK  status: ('A' for Active; 'I' for Inactive)
REMARK    1  A    between atoms: N1_1  and  C1_2 
ROOT
HETATM    1  C1  UNL     1      22.038   5.801  51.256  1.00  0.00     0.128 C 
HETATM    2  N2  UNL     1      20.968   5.330  50.573  1.00  0.00    -0.165 NA
HETATM    3  N3  UNL     1      20.548   3.966  50.795  1.00  0.00    -0.300 N 
HETATM    4  C2  UNL     1      21.535   2.943  50.614  1.00  0.00     0.175 C 
HETATM    5  C3  UNL     1      21.368   1.744  51.511  1.00  0.00    -0.033 C 
HETATM    6  C4  UNL     1      21.257   0.347  51.359  1.00  0.00     0.011 C 
HETATM    7  C5  UNL     1      22.236  -0.271  52.591  1.00  0.00     0.133 C 
HETATM    8  C6  UNL     1      21.336   0.452  53.494  1.00  0.00     0.003 C 
HETATM    9  C7  UNL     1      21.387   1.713  53.006  1.00  0.00     0.007 C 
HETATM   10  N4  UNL     1      23.351   0.577  52.216  1.00  0.00    -0.325 N 
HETATM   11  C8  UNL     1      24.514   1.463  51.824  1.00  0.00     0.425 C 
HETATM   12  O1  UNL     1      25.522   1.039  51.784  1.00  0.00    -0.239 OA
HETATM   13  N5  UNL     1      24.133   2.969  51.470  1.00  0.00     0.093 N 
HETATM   14  C9  UNL     1      23.621   2.973  50.096  1.00  0.00     0.288 A 
HETATM   15  C10 UNL     1      22.882   3.718  50.901  1.00  0.00     0.220 A 
HETATM   16  C11 UNL     1      22.389   4.714  51.972  1.00  0.00     0.126 C 
HETATM   17  C12 UNL     1      23.255   4.348  53.129  1.00  0.00     0.058 C 
HETATM   18  C13 UNL     1      24.184   3.356  52.800  1.00  0.00     0.296 C 
HETATM   19  F1  UNL     1      25.010   2.909  53.738  1.00  0.00    -0.178 F 
HETATM   20  H3  UNL     1      19.595   3.611  51.081  1.00  0.00     0.183 HD
HETATM   21  H9  UNL     1      22.961   1.331  52.697  1.00  0.00     0.165 HD
ENDROOT
BRANCH   1  22
HETATM   22  N1  UNL     1      22.469   7.121  51.065  1.00  0.00    -0.385 N 
HETATM   23  H1  UNL     1      22.066   7.608  50.211  1.00  0.00     0.157 HD
HETATM   24  H2  UNL     1      23.082   7.106  51.929  1.00  0.00     0.157 HD
ENDBRANCH   1  22
TORSDOF 1
ENDMDL
MODEL 6
REMARK VINA RESULT:      -6.6      8.803     10.132
REMARK  1 active torsions:
REMARK  status: ('A' for Active; 'I' for Inactive)
REMARK    1  A    between atoms: N1_1  and  C1_2 
ROOT
HETATM    1  C1  UNL     1      23.153   4.732  49.198  1.00  0.00     0.128 C 
HETATM    2  N2  UNL     1      24.126   5.395  49.867  1.00  0.00    -0.165 NA
HETATM    3  N3  UNL     1      24.916   4.673  50.836  1.00  0.00    -0.300 N 
HETATM    4  C2  UNL     1      24.206   3.986  51.875  1.00  0.00     0.175 C 
HETATM    5  C3  UNL     1      24.868   2.722  52.358  1.00  0.00    -0.033 C 
HETATM    6  C4  UNL     1      25.293   2.184  53.591  1.00  0.00     0.011 C 
HETATM    7  C5  UNL     1      24.804   0.567  53.512  1.00  0.00     0.133 C 
HETATM    8  C6  UNL     1      25.671   0.496  52.332  1.00  0.00     0.003 C 
HETATM    9  C7  UNL     1      25.193   1.500  51.561  1.00  0.00     0.007 C 
HETATM   10  N4  UNL     1      23.456   0.928  53.118  1.00  0.00    -0.325 N 
HETATM   11  C8  UNL     1      22.049   1.306  52.707  1.00  0.00     0.425 C 
HETATM   12  O1  UNL     1      21.200   0.799  53.173  1.00  0.00    -0.239 OA
HETATM   13  N5  UNL     1      21.947   2.465  51.620  1.00  0.00     0.093 N 
HETATM   14  C9  UNL     1      22.119   3.738  52.327  1.00  0.00     0.288 A 
HETATM   15  C10 UNL     1      22.807   3.703  51.198  1.00  0.00     0.220 A 
HETATM   16  C11 UNL     1      23.258   3.501  49.736  1.00  0.00     0.126 C 
HETATM   17  C12 UNL     1      22.796   2.107  49.481  1.00  0.00     0.058 C 
HETATM   18  C13 UNL     1      22.099   1.574  50.570  1.00  0.00     0.296 C 
HETATM   19  F1  UNL     1      21.645   0.328  50.497  1.00  0.00    -0.178 F 
HETATM   20  H3  UNL     1      25.968   4.577  50.886  1.00  0.00     0.183 HD
HETATM   21  H9  UNL     1      23.740   1.045  52.193  1.00  0.00     0.165 HD
ENDROOT
BRANCH   1  22
HETATM   22  N1  UNL     1      22.370   5.404  48.249  1.00  0.00    -0.385 N 
HETATM   23  H1  UNL     1      22.093   6.395  48.513  1.00  0.00     0.157 HD
HETATM   24  H2  UNL     1      22.366   4.579  47.585  1.00  0.00     0.157 HD
ENDBRANCH   1  22
TORSDOF 1
ENDMDL
MODEL 7
REMARK VINA RESULT:      -6.6      7.029      9.095
REMARK  1 active torsions:
REMARK  status: ('A' for Active; 'I' for Inactive)
REMARK    1  A    between atoms: N1_1  and  C1_2 
ROOT
HETATM    1  C1  UNL     1      25.283   2.484  52.887  1.00  0.00     0.128 C 
HETATM    2  N2  UNL     1      24.004   2.170  53.201  1.00  0.00    -0.165 NA
HETATM    3  N3  UNL     1      23.006   2.202  52.158  1.00  0.00    -0.300 N 
HETATM    4  C2  UNL     1      22.876   3.422  51.418  1.00  0.00     0.175 C 
HETATM    5  C3  UNL     1      22.465   3.242  49.979  1.00  0.00    -0.033 C 
HETATM    6  C4  UNL     1      21.449   3.721  49.127  1.00  0.00     0.011 C 
HETATM    7  C5  UNL     1      22.262   4.058  47.683  1.00  0.00     0.133 C 
HETATM    8  C6  UNL     1      22.611   2.635  47.697  1.00  0.00     0.003 C 
HETATM    9  C7  UNL     1      23.191   2.490  48.910  1.00  0.00     0.007 C 
HETATM   10  N4  UNL     1      23.285   4.827  48.365  1.00  0.00    -0.325 N 
HETATM   11  C8  UNL     1      24.352   5.630  49.077  1.00  0.00     0.425 C 
HETATM   12  O1  UNL     1      24.679   6.584  48.654  1.00  0.00    -0.239 OA
HETATM   13  N5  UNL     1      24.889   4.993  50.436  1.00  0.00     0.093 N 
HETATM   14  C9  UNL     1      23.907   5.308  51.478  1.00  0.00     0.288 A 
HETATM   15  C10 UNL     1      24.319   4.053  51.550  1.00  0.00     0.220 A 
HETATM   16  C11 UNL     1      25.168   2.765  51.573  1.00  0.00     0.126 C 
HETATM   17  C12 UNL     1      26.032   2.965  50.375  1.00  0.00     0.058 C 
HETATM   18  C13 UNL     1      25.814   4.206  49.769  1.00  0.00     0.296 C 
HETATM   19  F1  UNL     1      26.497   4.517  48.674  1.00  0.00    -0.178 F 
HETATM   20  H3  UNL     1      22.345   1.434  51.858  1.00  0.00     0.183 HD
HETATM   21  H9  UNL     1      23.755   4.011  48.616  1.00  0.00     0.165 HD
ENDROOT
BRANCH   1  22
HETATM   22  N1  UNL     1      26.276   2.461  53.876  1.00  0.00    -0.385 N 
HETATM   23  H1  UNL     1      26.801   3.375  54.010  1.00  0.00     0.157 HD
HETATM   24  H2  UNL     1      26.090   1.448  54.120  1.00  0.00     0.157 HD
ENDBRANCH   1  22
TORSDOF 1
ENDMDL
MODEL 8
REMARK VINA RESULT:      -6.5      2.832      5.407
REMARK  1 active torsions:
REMARK  status: ('A' for Active; 'I' for Inactive)
REMARK    1  A    between atoms: N1_1  and  C1_2 
ROOT
HETATM    1  C1  UNL     1      34.451   3.996  46.535  1.00  0.00     0.128 C 
HETATM    2  N2  UNL     1      33.947   3.542  47.707  1.00  0.00    -0.165 NA
HETATM    3  N3  UNL     1      32.978   4.353  48.406  1.00  0.00    -0.300 N 
HETATM    4  C2  UNL     1      33.353   5.704  48.705  1.00  0.00     0.175 C 
HETATM    5  C3  UNL     1      32.211   6.687  48.706  1.00  0.00    -0.033 C 
HETATM    6  C4  UNL     1      31.667   7.639  49.593  1.00  0.00     0.011 C 
HETATM    7  C5  UNL     1      31.338   8.968  48.601  1.00  0.00     0.133 C 
HETATM    8  C6  UNL     1      30.462   8.046  47.873  1.00  0.00     0.003 C 
HETATM    9  C7  UNL     1      31.300   7.028  47.570  1.00  0.00     0.007 C 
HETATM   10  N4  UNL     1      32.669   8.949  48.026  1.00  0.00    -0.325 N 
HETATM   11  C8  UNL     1      34.058   8.928  47.426  1.00  0.00     0.425 C 
HETATM   12  O1  UNL     1      34.602   9.868  47.298  1.00  0.00    -0.239 OA
HETATM   13  N5  UNL     1      34.618   7.483  47.057  1.00  0.00     0.093 N 
HETATM   14  C9  UNL     1      35.107   6.878  48.300  1.00  0.00     0.288 A 
HETATM   15  C10 UNL     1      34.409   6.020  47.574  1.00  0.00     0.220 A 
HETATM   16  C11 UNL     1      33.819   5.181  46.421  1.00  0.00     0.126 C 
HETATM   17  C12 UNL     1      33.559   6.235  45.399  1.00  0.00     0.058 C 
HETATM   18  C13 UNL     1      33.997   7.495  45.818  1.00  0.00     0.296 C 
HETATM   19  F1  UNL     1      33.811   8.540  45.020  1.00  0.00    -0.178 F 
HETATM   20  H3  UNL     1      32.009   4.084  48.732  1.00  0.00     0.183 HD
HETATM   21  H9  UNL     1      32.411   8.236  47.413  1.00  0.00     0.165 HD
ENDROOT
BRANCH   1  22
HETATM   22  N1  UNL     1      35.392   3.232  45.832  1.00  0.00    -0.385 N 
HETATM   23  H1  UNL     1      36.046   3.786  45.205  1.00  0.00     0.157 HD
HETATM   24  H2  UNL     1      35.045   2.320  46.245  1.00  0.00     0.157 HD
ENDBRANCH   1  22
TORSDOF 1
ENDMDL
MODEL 9
REMARK VINA RESULT:      -6.5     10.274     12.180
REMARK  1 active torsions:
REMARK  status: ('A' for Active; 'I' for Inactive)
REMARK    1  A    between atoms: N1_1  and  C1_2 
ROOT
HETATM    1  C1  UNL     1      20.667   0.019  53.606  1.00  0.00     0.128 C 
HETATM    2  N2  UNL     1      19.494  -0.203  52.968  1.00  0.00    -0.165 NA
HETATM    3  N3  UNL     1      19.387   0.145  51.571  1.00  0.00    -0.300 N 
HETATM    4  C2  UNL     1      19.711   1.493  51.209  1.00  0.00     0.175 C 
HETATM    5  C3  UNL     1      20.317   1.647  49.838  1.00  0.00    -0.033 C 
HETATM    6  C4  UNL     1      20.057   2.396  48.672  1.00  0.00     0.011 C 
HETATM    7  C5  UNL     1      21.590   2.915  48.179  1.00  0.00     0.133 C 
HETATM    8  C6  UNL     1      21.904   1.486  48.090  1.00  0.00     0.003 C 
HETATM    9  C7  UNL     1      21.585   1.042  49.327  1.00  0.00     0.007 C 
HETATM   10  N4  UNL     1      21.914   3.414  49.501  1.00  0.00    -0.325 N 
HETATM   11  C8  UNL     1      22.253   3.935  50.881  1.00  0.00     0.425 C 
HETATM   12  O1  UNL     1      22.738   4.910  50.983  1.00  0.00    -0.239 OA
HETATM   13  N5  UNL     1      21.827   2.988  52.089  1.00  0.00     0.093 N 
HETATM   14  C9  UNL     1      20.395   3.202  52.322  1.00  0.00     0.288 A 
HETATM   15  C10 UNL     1      20.715   1.918  52.353  1.00  0.00     0.220 A 
HETATM   16  C11 UNL     1      21.403   0.562  52.616  1.00  0.00     0.126 C 
HETATM   17  C12 UNL     1      22.824   0.894  52.308  1.00  0.00     0.058 C 
HETATM   18  C13 UNL     1      22.994   2.246  51.996  1.00  0.00     0.296 C 
HETATM   19  F1  UNL     1      24.205   2.687  51.676  1.00  0.00    -0.178 F 
HETATM   20  H3  UNL     1      19.098  -0.469  50.761  1.00  0.00     0.183 HD
HETATM   21  H9  UNL     1      22.148   2.516  49.801  1.00  0.00     0.165 HD
ENDROOT
BRANCH   1  22
HETATM   22  N1  UNL     1      20.804  -0.310  54.961  1.00  0.00    -0.385 N 
HETATM   23  H1  UNL     1      21.733  -0.040  55.400  1.00  0.00     0.157 HD
HETATM   24  H2  UNL     1      19.836  -0.736  55.014  1.00  0.00     0.157 HD
ENDBRANCH   1  22
TORSDOF 1
ENDMDL
