MODEL 1
REMARK VINA RESULT:      -8.6      0.000      0.000
REMARK  2 active torsions:
REMARK  status: ('A' for Active; 'I' for Inactive)
REMARK    1  A    between atoms: C9_11  and  N3_12 
REMARK    2  A    between atoms: N3_12  and  C10_13 
ROOT
HETATM    1  C1  UNL     1      21.540  -1.240  54.471  1.00  0.00     0.019 C 
HETATM    2  C2  UNL     1      22.066  -0.471  53.568  1.00  0.00    -0.059 A 
HETATM    3  C3  UNL     1      21.796  -0.294  52.151  1.00  0.00     0.010 A 
HETATM    4  C4  UNL     1      22.782   0.623  52.143  1.00  0.00    -0.066 A 
HETATM    5  C5  UNL     1      23.597   1.607  51.382  1.00  0.00     0.079 C 
HETATM    6  C6  UNL     1      24.980   1.563  51.891  1.00  0.00     0.017 A 
HETATM    7  C7  UNL     1      25.432   0.834  52.969  1.00  0.00     0.047 A 
HETATM    8  N1  UNL     1      26.696   0.820  53.396  1.00  0.00    -0.246 NA
HETATM    9  C8  UNL     1      27.568   1.597  52.686  1.00  0.00     0.235 A 
HETATM   10  N2  UNL     1      27.201   2.329  51.631  1.00  0.00    -0.224 NA
HETATM   11  C9  UNL     1      25.932   2.336  51.212  1.00  0.00     0.138 A 
HETATM   12  C16 UNL     1      24.535  -0.020  53.775  1.00  0.00     0.073 C 
HETATM   13  C17 UNL     1      23.137   0.527  53.588  1.00  0.00     0.052 A 
ENDROOT
BRANCH  11  14
HETATM   14  N3  UNL     1      25.609   3.125  50.108  1.00  0.00    -0.340 N 
HETATM   15  H7  UNL     1      24.860   2.698  49.488  1.00  0.00     0.167 HD
BRANCH  14  16
HETATM   16  C10 UNL     1      26.084   4.378  49.656  1.00  0.00     0.035 A 
HETATM   17  C11 UNL     1      27.201   4.585  48.882  1.00  0.00     0.029 A 
HETATM   18  C12 UNL     1      27.676   5.777  48.438  1.00  0.00     0.004 A 
HETATM   19  C13 UNL     1      26.958   6.895  48.807  1.00  0.00     0.019 A 
HETATM   20  C14 UNL     1      25.826   6.784  49.581  1.00  0.00     0.013 A 
HETATM   21 BR1  UNL     1      24.840   8.334  50.086  1.00  0.00    -0.051 Br
HETATM   22  C15 UNL     1      25.422   5.534  49.983  1.00  0.00     0.048 A 
ENDBRANCH  14  16
ENDBRANCH  11  14
TORSDOF 2
ENDMDL
MODEL 2
REMARK VINA RESULT:      -8.2      2.227      4.130
REMARK  2 active torsions:
REMARK  status: ('A' for Active; 'I' for Inactive)
REMARK    1  A    between atoms: C9_11  and  N3_12 
REMARK    2  A    between atoms: N3_12  and  C10_13 
ROOT
HETATM    1  C1  UNL     1      29.523  -1.653  53.458  1.00  0.00     0.019 C 
HETATM    2  C2  UNL     1      28.806  -0.579  53.320  1.00  0.00    -0.059 A 
HETATM    3  C3  UNL     1      29.016   0.800  53.727  1.00  0.00     0.010 A 
HETATM    4  C4  UNL     1      27.817   1.076  53.178  1.00  0.00    -0.066 A 
HETATM    5  C5  UNL     1      26.766   2.078  52.862  1.00  0.00     0.079 C 
HETATM    6  C6  UNL     1      25.447   1.435  53.011  1.00  0.00     0.017 A 
HETATM    7  C7  UNL     1      25.211   0.104  53.275  1.00  0.00     0.047 A 
HETATM    8  N1  UNL     1      23.999  -0.438  53.405  1.00  0.00    -0.246 NA
HETATM    9  C8  UNL     1      22.949   0.423  53.259  1.00  0.00     0.235 A 
HETATM   10  N2  UNL     1      23.101   1.725  53.003  1.00  0.00    -0.224 NA
HETATM   11  C9  UNL     1      24.320   2.257  52.874  1.00  0.00     0.138 A 
HETATM   12  C16 UNL     1      26.308  -0.874  53.439  1.00  0.00     0.073 C 
HETATM   13  C17 UNL     1      27.505  -0.304  52.709  1.00  0.00     0.052 A 
ENDROOT
BRANCH  11  14
HETATM   14  N3  UNL     1      24.415   3.622  52.602  1.00  0.00    -0.340 N 
HETATM   15  H7  UNL     1      24.704   4.202  53.443  1.00  0.00     0.167 HD
BRANCH  14  16
HETATM   16  C10 UNL     1      24.202   4.380  51.427  1.00  0.00     0.035 A 
HETATM   17  C11 UNL     1      24.875   4.227  50.237  1.00  0.00     0.029 A 
HETATM   18  C12 UNL     1      24.689   4.942  49.098  1.00  0.00     0.004 A 
HETATM   19  C13 UNL     1      23.724   5.925  49.146  1.00  0.00     0.019 A 
HETATM   20  C14 UNL     1      23.000   6.150  50.294  1.00  0.00     0.013 A 
HETATM   21 BR1  UNL     1      21.668   7.511  50.351  1.00  0.00    -0.051 Br
HETATM   22  C15 UNL     1      23.259   5.375  51.398  1.00  0.00     0.048 A 
ENDBRANCH  14  16
ENDBRANCH  11  14
TORSDOF 2
ENDMDL
MODEL 3
REMARK VINA RESULT:      -8.0      3.833      6.775
REMARK  2 active torsions:
REMARK  status: ('A' for Active; 'I' for Inactive)
REMARK    1  A    between atoms: C9_11  and  N3_12 
REMARK    2  A    between atoms: N3_12  and  C10_13 
ROOT
HETATM    1  C1  UNL     1      30.109  -0.395  53.834  1.00  0.00     0.019 C 
HETATM    2  C2  UNL     1      28.849  -0.609  53.603  1.00  0.00    -0.059 A 
HETATM    3  C3  UNL     1      28.153  -1.603  52.805  1.00  0.00     0.010 A 
HETATM    4  C4  UNL     1      27.005  -1.011  53.185  1.00  0.00    -0.066 A 
HETATM    5  C5  UNL     1      25.520  -0.965  53.130  1.00  0.00     0.079 C 
HETATM    6  C6  UNL     1      25.096   0.448  53.123  1.00  0.00     0.017 A 
HETATM    7  C7  UNL     1      25.912   1.548  53.267  1.00  0.00     0.047 A 
HETATM    8  N1  UNL     1      25.487   2.812  53.252  1.00  0.00    -0.246 NA
HETATM    9  C8  UNL     1      24.142   2.981  53.078  1.00  0.00     0.235 A 
HETATM   10  N2  UNL     1      23.291   1.963  52.930  1.00  0.00    -0.224 NA
HETATM   11  C9  UNL     1      23.728   0.699  52.948  1.00  0.00     0.138 A 
HETATM   12  C16 UNL     1      27.373   1.425  53.462  1.00  0.00     0.073 C 
HETATM   13  C17 UNL     1      27.616   0.048  54.038  1.00  0.00     0.052 A 
ENDROOT
BRANCH  11  14
HETATM   14  N3  UNL     1      22.790  -0.322  52.794  1.00  0.00    -0.340 N 
HETATM   15  H7  UNL     1      23.224  -1.290  52.743  1.00  0.00     0.167 HD
BRANCH  14  16
HETATM   16  C10 UNL     1      21.379  -0.317  52.695  1.00  0.00     0.035 A 
HETATM   17  C11 UNL     1      20.506  -0.854  53.612  1.00  0.00     0.029 A 
HETATM   18  C12 UNL     1      19.150  -0.863  53.538  1.00  0.00     0.004 A 
HETATM   19  C13 UNL     1      18.597  -0.270  52.424  1.00  0.00     0.019 A 
HETATM   20  C14 UNL     1      19.393   0.294  51.453  1.00  0.00     0.013 A 
HETATM   21 BR1  UNL     1      18.619   1.111  49.917  1.00  0.00    -0.051 Br
HETATM   22  C15 UNL     1      20.757   0.255  51.615  1.00  0.00     0.048 A 
ENDBRANCH  14  16
ENDBRANCH  11  14
TORSDOF 2
ENDMDL
MODEL 4
REMARK VINA RESULT:      -7.9      2.396      3.383
REMARK  2 active torsions:
REMARK  status: ('A' for Active; 'I' for Inactive)
REMARK    1  A    between atoms: C9_11  and  N3_12 
REMARK    2  A    between atoms: N3_12  and  C10_13 
ROOT
HETATM    1  C1  UNL     1      25.286  -0.522  53.886  1.00  0.00     0.019 C 
HETATM    2  C2  UNL     1      25.541   0.336  52.945  1.00  0.00    -0.059 A 
HETATM    3  C3  UNL     1      26.765   0.689  52.245  1.00  0.00     0.010 A 
HETATM    4  C4  UNL     1      26.033   1.585  51.554  1.00  0.00    -0.066 A 
HETATM    5  C5  UNL     1      25.974   2.642  50.511  1.00  0.00     0.079 C 
HETATM    6  C6  UNL     1      25.024   3.680  50.950  1.00  0.00     0.017 A 
HETATM    7  C7  UNL     1      24.225   3.636  52.071  1.00  0.00     0.047 A 
HETATM    8  N1  UNL     1      23.378   4.601  52.435  1.00  0.00    -0.246 NA
HETATM    9  C8  UNL     1      23.333   5.689  51.610  1.00  0.00     0.235 A 
HETATM   10  N2  UNL     1      24.078   5.801  50.508  1.00  0.00    -0.224 NA
HETATM   11  C9  UNL     1      24.923   4.828  50.152  1.00  0.00     0.138 A 
HETATM   12  C16 UNL     1      24.229   2.484  52.997  1.00  0.00     0.073 C 
HETATM   13  C17 UNL     1      24.722   1.295  52.202  1.00  0.00     0.052 A 
ENDROOT
BRANCH  11  14
HETATM   14  N3  UNL     1      25.671   5.001  48.987  1.00  0.00    -0.340 N 
HETATM   15  H7  UNL     1      25.230   4.552  48.131  1.00  0.00     0.167 HD
BRANCH  14  16
HETATM   16  C10 UNL     1      26.895   5.659  48.725  1.00  0.00     0.035 A 
HETATM   17  C11 UNL     1      28.103   5.046  48.489  1.00  0.00     0.029 A 
HETATM   18  C12 UNL     1      29.290   5.655  48.236  1.00  0.00     0.004 A 
HETATM   19  C13 UNL     1      29.276   7.033  48.217  1.00  0.00     0.019 A 
HETATM   20  C14 UNL     1      28.113   7.732  48.443  1.00  0.00     0.013 A 
HETATM   21 BR1  UNL     1      28.103   9.636  48.415  1.00  0.00    -0.051 Br
HETATM   22  C15 UNL     1      26.959   7.028  48.690  1.00  0.00     0.048 A 
ENDBRANCH  14  16
ENDBRANCH  11  14
TORSDOF 2
ENDMDL
MODEL 5
REMARK VINA RESULT:      -7.9      1.940      3.823
REMARK  2 active torsions:
REMARK  status: ('A' for Active; 'I' for Inactive)
REMARK    1  A    between atoms: C9_11  and  N3_12 
REMARK    2  A    between atoms: N3_12  and  C10_13 
ROOT
HETATM    1  C1  UNL     1      28.832  -0.058  54.634  1.00  0.00     0.019 C 
HETATM    2  C2  UNL     1      28.262   0.701  53.748  1.00  0.00    -0.059 A 
HETATM    3  C3  UNL     1      28.493   2.076  53.340  1.00  0.00     0.010 A 
HETATM    4  C4  UNL     1      27.481   1.918  52.465  1.00  0.00    -0.066 A 
HETATM    5  C5  UNL     1      26.622   2.496  51.399  1.00  0.00     0.079 C 
HETATM    6  C6  UNL     1      25.253   1.973  51.566  1.00  0.00     0.017 A 
HETATM    7  C7  UNL     1      24.848   1.017  52.470  1.00  0.00     0.047 A 
HETATM    8  N1  UNL     1      23.595   0.573  52.591  1.00  0.00    -0.246 NA
HETATM    9  C8  UNL     1      22.686   1.132  51.739  1.00  0.00     0.235 A 
HETATM   10  N2  UNL     1      23.006   2.064  50.838  1.00  0.00    -0.224 NA
HETATM   11  C9  UNL     1      24.264   2.501  50.725  1.00  0.00     0.138 A 
HETATM   12  C16 UNL     1      25.788   0.375  53.413  1.00  0.00     0.073 C 
HETATM   13  C17 UNL     1      27.165   0.500  52.800  1.00  0.00     0.052 A 
ENDROOT
BRANCH  11  14
HETATM   14  N3  UNL     1      24.537   3.472  49.761  1.00  0.00    -0.340 N 
HETATM   15  H7  UNL     1      24.400   3.129  48.765  1.00  0.00     0.167 HD
BRANCH  14  16
HETATM   16  C10 UNL     1      24.959   4.819  49.852  1.00  0.00     0.035 A 
HETATM   17  C11 UNL     1      24.417   5.779  50.675  1.00  0.00     0.029 A 
HETATM   18  C12 UNL     1      24.803   7.076  50.779  1.00  0.00     0.004 A 
HETATM   19  C13 UNL     1      25.849   7.467  49.971  1.00  0.00     0.019 A 
HETATM   20  C14 UNL     1      26.454   6.575  49.116  1.00  0.00     0.013 A 
HETATM   21 BR1  UNL     1      27.899   7.124  48.004  1.00  0.00    -0.051 Br
HETATM   22  C15 UNL     1      25.994   5.281  49.080  1.00  0.00     0.048 A 
ENDBRANCH  14  16
ENDBRANCH  11  14
TORSDOF 2
ENDMDL
MODEL 6
REMARK VINA RESULT:      -7.9      6.352      8.828
REMARK  2 active torsions:
REMARK  status: ('A' for Active; 'I' for Inactive)
REMARK    1  A    between atoms: C9_11  and  N3_12 
REMARK    2  A    between atoms: N3_12  and  C10_13 
ROOT
HETATM    1  C1  UNL     1      25.014   7.193  48.459  1.00  0.00     0.019 C 
HETATM    2  C2  UNL     1      26.168   6.598  48.418  1.00  0.00    -0.059 A 
HETATM    3  C3  UNL     1      26.614   5.291  48.870  1.00  0.00     0.010 A 
HETATM    4  C4  UNL     1      27.838   5.624  48.417  1.00  0.00    -0.066 A 
HETATM    5  C5  UNL     1      29.263   5.253  48.219  1.00  0.00     0.079 C 
HETATM    6  C6  UNL     1      30.094   6.453  48.430  1.00  0.00     0.017 A 
HETATM    7  C7  UNL     1      29.638   7.734  48.650  1.00  0.00     0.047 A 
HETATM    8  N1  UNL     1      30.426   8.794  48.839  1.00  0.00    -0.246 NA
HETATM    9  C8  UNL     1      31.769   8.546  48.804  1.00  0.00     0.235 A 
HETATM   10  N2  UNL     1      32.282   7.332  48.596  1.00  0.00    -0.224 NA
HETATM   11  C9  UNL     1      31.483   6.276  48.407  1.00  0.00     0.138 A 
HETATM   12  C16 UNL     1      28.197   8.062  48.695  1.00  0.00     0.073 C 
HETATM   13  C17 UNL     1      27.486   6.981  47.911  1.00  0.00     0.052 A 
ENDROOT
BRANCH  11  14
HETATM   14  N3  UNL     1      32.080   5.033  48.189  1.00  0.00    -0.340 N 
HETATM   15  H7  UNL     1      31.741   4.280  48.857  1.00  0.00     0.167 HD
BRANCH  14  16
HETATM   16  C10 UNL     1      33.041   4.584  47.255  1.00  0.00     0.035 A 
HETATM   17  C11 UNL     1      34.174   3.862  47.548  1.00  0.00     0.029 A 
HETATM   18  C12 UNL     1      35.111   3.421  46.670  1.00  0.00     0.004 A 
HETATM   19  C13 UNL     1      34.899   3.736  45.345  1.00  0.00     0.019 A 
HETATM   20  C14 UNL     1      33.792   4.456  44.957  1.00  0.00     0.013 A 
HETATM   21 BR1  UNL     1      33.508   4.886  43.123  1.00  0.00    -0.051 Br
HETATM   22  C15 UNL     1      32.898   4.859  45.919  1.00  0.00     0.048 A 
ENDBRANCH  14  16
ENDBRANCH  11  14
TORSDOF 2
ENDMDL
MODEL 7
REMARK VINA RESULT:      -7.8      3.442      6.879
REMARK  2 active torsions:
REMARK  status: ('A' for Active; 'I' for Inactive)
REMARK    1  A    between atoms: C9_11  and  N3_12 
REMARK    2  A    between atoms: N3_12  and  C10_13 
ROOT
HETATM    1  C1  UNL     1      27.219   4.671  48.941  1.00  0.00     0.019 C 
HETATM    2  C2  UNL     1      26.180   4.275  49.610  1.00  0.00    -0.059 A 
HETATM    3  C3  UNL     1      25.109   4.997  50.277  1.00  0.00     0.010 A 
HETATM    4  C4  UNL     1      24.608   3.797  50.629  1.00  0.00    -0.066 A 
HETATM    5  C5  UNL     1      23.552   3.016  51.326  1.00  0.00     0.079 C 
HETATM    6  C6  UNL     1      24.178   1.837  51.952  1.00  0.00     0.017 A 
HETATM    7  C7  UNL     1      25.491   1.442  51.821  1.00  0.00     0.047 A 
HETATM    8  N1  UNL     1      26.020   0.367  52.408  1.00  0.00    -0.246 NA
HETATM    9  C8  UNL     1      25.164  -0.363  53.184  1.00  0.00     0.235 A 
HETATM   10  N2  UNL     1      23.880  -0.040  53.358  1.00  0.00    -0.224 NA
HETATM   11  C9  UNL     1      23.361   1.039  52.764  1.00  0.00     0.138 A 
HETATM   12  C16 UNL     1      26.461   2.190  50.993  1.00  0.00     0.073 C 
HETATM   13  C17 UNL     1      25.651   2.959  49.972  1.00  0.00     0.052 A 
ENDROOT
BRANCH  11  14
HETATM   14  N3  UNL     1      22.011   1.321  52.980  1.00  0.00    -0.340 N 
HETATM   15  H7  UNL     1      21.843   1.984  53.792  1.00  0.00     0.167 HD
BRANCH  14  16
HETATM   16  C10 UNL     1      20.830   0.899  52.328  1.00  0.00     0.035 A 
HETATM   17  C11 UNL     1      20.420   1.285  51.073  1.00  0.00     0.029 A 
HETATM   18  C12 UNL     1      19.291   0.894  50.428  1.00  0.00     0.004 A 
HETATM   19  C13 UNL     1      18.473   0.018  51.108  1.00  0.00     0.019 A 
HETATM   20  C14 UNL     1      18.802  -0.423  52.370  1.00  0.00     0.013 A 
HETATM   21 BR1  UNL     1      17.665  -1.633  53.302  1.00  0.00    -0.051 Br
HETATM   22  C15 UNL     1      19.966   0.028  52.942  1.00  0.00     0.048 A 
ENDBRANCH  14  16
ENDBRANCH  11  14
TORSDOF 2
ENDMDL
MODEL 8
REMARK VINA RESULT:      -7.7      1.868      2.787
REMARK  2 active torsions:
REMARK  status: ('A' for Active; 'I' for Inactive)
REMARK    1  A    between atoms: C9_11  and  N3_12 
REMARK    2  A    between atoms: N3_12  and  C10_13 
ROOT
HETATM    1  C1  UNL     1      18.232  -1.630  53.418  1.00  0.00     0.019 C 
HETATM    2  C2  UNL     1      19.098  -0.715  53.106  1.00  0.00    -0.059 A 
HETATM    3  C3  UNL     1      19.213   0.180  51.966  1.00  0.00     0.010 A 
HETATM    4  C4  UNL     1      20.332   0.662  52.540  1.00  0.00    -0.066 A 
HETATM    5  C5  UNL     1      21.480   1.605  52.490  1.00  0.00     0.079 C 
HETATM    6  C6  UNL     1      22.666   0.929  53.047  1.00  0.00     0.017 A 
HETATM    7  C7  UNL     1      22.698  -0.318  53.632  1.00  0.00     0.047 A 
HETATM    8  N1  UNL     1      23.796  -0.896  54.122  1.00  0.00    -0.246 NA
HETATM    9  C8  UNL     1      24.945  -0.165  54.015  1.00  0.00     0.235 A 
HETATM   10  N2  UNL     1      24.991   1.048  53.460  1.00  0.00    -0.224 NA
HETATM   11  C9  UNL     1      23.884   1.618  52.973  1.00  0.00     0.138 A 
HETATM   12  C16 UNL     1      21.485  -1.151  53.779  1.00  0.00     0.073 C 
HETATM   13  C17 UNL     1      20.306  -0.203  53.754  1.00  0.00     0.052 A 
ENDROOT
BRANCH  11  14
HETATM   14  N3  UNL     1      23.994   2.890  52.410  1.00  0.00    -0.340 N 
HETATM   15  H7  UNL     1      23.376   3.615  52.879  1.00  0.00     0.167 HD
BRANCH  14  16
HETATM   16  C10 UNL     1      24.768   3.399  51.341  1.00  0.00     0.035 A 
HETATM   17  C11 UNL     1      25.821   2.758  50.733  1.00  0.00     0.029 A 
HETATM   18  C12 UNL     1      26.578   3.226  49.707  1.00  0.00     0.004 A 
HETATM   19  C13 UNL     1      26.252   4.478  49.231  1.00  0.00     0.019 A 
HETATM   20  C14 UNL     1      25.213   5.195  49.779  1.00  0.00     0.013 A 
HETATM   21 BR1  UNL     1      24.769   6.924  49.115  1.00  0.00    -0.051 Br
HETATM   22  C15 UNL     1      24.503   4.638  50.815  1.00  0.00     0.048 A 
ENDBRANCH  14  16
ENDBRANCH  11  14
TORSDOF 2
ENDMDL
MODEL 9
REMARK VINA RESULT:      -7.6      2.636      3.867
REMARK  2 active torsions:
REMARK  status: ('A' for Active; 'I' for Inactive)
REMARK    1  A    between atoms: C9_11  and  N3_12 
REMARK    2  A    between atoms: N3_12  and  C10_13 
ROOT
HETATM    1  C1  UNL     1      22.563  -1.689  55.162  1.00  0.00     0.019 C 
HETATM    2  C2  UNL     1      22.839  -0.812  54.245  1.00  0.00    -0.059 A 
HETATM    3  C3  UNL     1      24.053  -0.084  53.918  1.00  0.00     0.010 A 
HETATM    4  C4  UNL     1      23.355   0.505  52.927  1.00  0.00    -0.066 A 
HETATM    5  C5  UNL     1      23.323   1.464  51.793  1.00  0.00     0.079 C 
HETATM    6  C6  UNL     1      22.010   2.135  51.783  1.00  0.00     0.017 A 
HETATM    7  C7  UNL     1      20.939   1.847  52.599  1.00  0.00     0.047 A 
HETATM    8  N1  UNL     1      19.766   2.481  52.560  1.00  0.00    -0.246 NA
HETATM    9  C8  UNL     1      19.665   3.478  51.631  1.00  0.00     0.235 A 
HETATM   10  N2  UNL     1      20.661   3.813  50.807  1.00  0.00    -0.224 NA
HETATM   11  C9  UNL     1      21.832   3.170  50.855  1.00  0.00     0.138 A 
HETATM   12  C16 UNL     1      20.990   0.777  53.619  1.00  0.00     0.073 C 
HETATM   13  C17 UNL     1      22.060  -0.193  53.172  1.00  0.00     0.052 A 
ENDROOT
BRANCH  11  14
HETATM   14  N3  UNL     1      22.832   3.562  49.965  1.00  0.00    -0.340 N 
HETATM   15  H7  UNL     1      22.878   2.961  49.090  1.00  0.00     0.167 HD
BRANCH  14  16
HETATM   16  C10 UNL     1      23.791   4.600  50.001  1.00  0.00     0.035 A 
HETATM   17  C11 UNL     1      23.619   5.836  50.578  1.00  0.00     0.029 A 
HETATM   18  C12 UNL     1      24.523   6.848  50.625  1.00  0.00     0.004 A 
HETATM   19  C13 UNL     1      25.741   6.604  50.026  1.00  0.00     0.019 A 
HETATM   20  C14 UNL     1      26.003   5.396  49.423  1.00  0.00     0.013 A 
HETATM   21 BR1  UNL     1      27.689   5.068  48.599  1.00  0.00    -0.051 Br
HETATM   22  C15 UNL     1      25.025   4.431  49.427  1.00  0.00     0.048 A 
ENDBRANCH  14  16
ENDBRANCH  11  14
TORSDOF 2
ENDMDL
