MODEL 1
REMARK VINA RESULT:      -8.8      0.000      0.000
REMARK  0 active torsions:
REMARK  status: ('A' for Active; 'I' for Inactive)
ROOT
HETATM    1  F1  UNL     1      21.239  -0.987  55.284  1.00  0.00    -0.241 F 
HETATM    2  C1  UNL     1      21.510  -0.949  53.914  1.00  0.00     0.217 A 
HETATM    3  C2  UNL     1      20.896   0.230  53.264  1.00  0.00     0.015 A 
HETATM    4  C3  UNL     1      21.903   0.882  52.727  1.00  0.00     0.012 A 
HETATM    5  C4  UNL     1      23.210   0.293  52.920  1.00  0.00    -0.006 A 
HETATM    6  C5  UNL     1      24.587   0.589  52.629  1.00  0.00     0.099 A 
HETATM    7  N1  UNL     1      25.571  -0.078  53.266  1.00  0.00    -0.239 NA
HETATM    8  C6  UNL     1      26.870   0.174  53.040  1.00  0.00     0.236 A 
HETATM    9  N2  UNL     1      27.324   1.088  52.181  1.00  0.00    -0.215 NA
HETATM   10  C7  UNL     1      26.388   1.806  51.494  1.00  0.00     0.200 A 
HETATM   11  C8  UNL     1      25.027   1.536  51.733  1.00  0.00     0.112 A 
HETATM   12  N3  UNL     1      23.912   2.137  51.033  1.00  0.00    -0.380 N 
HETATM   13  C9  UNL     1      23.755   3.563  50.704  1.00  0.00     0.161 C 
HETATM   14  C10 UNL     1      24.986   4.105  50.076  1.00  0.00    -0.007 A 
HETATM   15  C11 UNL     1      24.544   5.232  49.383  1.00  0.00     0.011 A 
HETATM   16  C12 UNL     1      25.406   6.033  48.650  1.00  0.00     0.001 A 
HETATM   17  C13 UNL     1      26.751   5.734  48.581  1.00  0.00     0.003 A 
HETATM   18  C14 UNL     1      27.193   4.618  49.265  1.00  0.00     0.038 A 
HETATM   19  C15 UNL     1      26.334   3.822  49.995  1.00  0.00     0.086 A 
HETATM   20  O1  UNL     1      26.952   2.744  50.616  1.00  0.00    -0.289 OA
HETATM   21  C16 UNL     1      22.939  -0.793  53.630  1.00  0.00     0.027 A 
HETATM   22  H5  UNL     1      23.266   1.298  50.808  1.00  0.00     0.160 HD
ENDROOT
TORSDOF 0
ENDMDL
MODEL 2
REMARK VINA RESULT:      -8.8      2.834      6.314
REMARK  0 active torsions:
REMARK  status: ('A' for Active; 'I' for Inactive)
ROOT
HETATM    1  F1  UNL     1      29.792   2.013  54.732  1.00  0.00    -0.241 F 
HETATM    2  C1  UNL     1      29.137   0.996  54.035  1.00  0.00     0.217 A 
HETATM    3  C2  UNL     1      28.299   0.167  54.929  1.00  0.00     0.015 A 
HETATM    4  C3  UNL     1      27.082   0.269  54.443  1.00  0.00     0.012 A 
HETATM    5  C4  UNL     1      26.941   1.100  53.268  1.00  0.00    -0.006 A 
HETATM    6  C5  UNL     1      25.900   1.593  52.406  1.00  0.00     0.099 A 
HETATM    7  N1  UNL     1      26.144   2.627  51.575  1.00  0.00    -0.239 NA
HETATM    8  C6  UNL     1      25.200   3.131  50.764  1.00  0.00     0.236 A 
HETATM    9  N2  UNL     1      23.947   2.679  50.689  1.00  0.00    -0.215 NA
HETATM   10  C7  UNL     1      23.622   1.630  51.500  1.00  0.00     0.200 A 
HETATM   11  C8  UNL     1      24.616   1.103  52.346  1.00  0.00     0.112 A 
HETATM   12  N3  UNL     1      24.469  -0.057  53.200  1.00  0.00    -0.380 N 
HETATM   13  C9  UNL     1      23.318  -0.362  54.065  1.00  0.00     0.161 C 
HETATM   14  C10 UNL     1      22.040  -0.223  53.323  1.00  0.00    -0.007 A 
HETATM   15  C11 UNL     1      21.139  -1.000  54.053  1.00  0.00     0.011 A 
HETATM   16  C12 UNL     1      19.811  -1.135  53.680  1.00  0.00     0.001 A 
HETATM   17  C13 UNL     1      19.330  -0.494  52.556  1.00  0.00     0.003 A 
HETATM   18  C14 UNL     1      20.219   0.276  51.831  1.00  0.00     0.038 A 
HETATM   19  C15 UNL     1      21.541   0.409  52.203  1.00  0.00     0.086 A 
HETATM   20  O1  UNL     1      22.287   1.220  51.357  1.00  0.00    -0.289 OA
HETATM   21  C16 UNL     1      28.181   1.516  53.054  1.00  0.00     0.027 A 
HETATM   22  H5  UNL     1      25.376  -0.622  53.026  1.00  0.00     0.160 HD
ENDROOT
TORSDOF 0
ENDMDL
MODEL 3
REMARK VINA RESULT:      -8.8      3.799      6.272
REMARK  0 active torsions:
REMARK  status: ('A' for Active; 'I' for Inactive)
ROOT
HETATM    1  F1  UNL     1      28.454   0.130  53.062  1.00  0.00    -0.241 F 
HETATM    2  C1  UNL     1      27.404   1.030  53.264  1.00  0.00     0.217 A 
HETATM    3  C2  UNL     1      26.808   1.477  51.987  1.00  0.00     0.015 A 
HETATM    4  C3  UNL     1      25.543   1.131  52.064  1.00  0.00     0.012 A 
HETATM    5  C4  UNL     1      25.145   0.466  53.286  1.00  0.00    -0.006 A 
HETATM    6  C5  UNL     1      23.978  -0.155  53.853  1.00  0.00     0.099 A 
HETATM    7  N1  UNL     1      24.096  -0.962  54.927  1.00  0.00    -0.239 NA
HETATM    8  C6  UNL     1      23.039  -1.576  55.480  1.00  0.00     0.236 A 
HETATM    9  N2  UNL     1      21.784  -1.460  55.044  1.00  0.00    -0.215 NA
HETATM   10  C7  UNL     1      21.580  -0.657  53.960  1.00  0.00     0.200 A 
HETATM   11  C8  UNL     1      22.692  -0.013  53.384  1.00  0.00     0.112 A 
HETATM   12  N3  UNL     1      22.646   0.936  52.292  1.00  0.00    -0.380 N 
HETATM   13  C9  UNL     1      21.857   0.806  51.057  1.00  0.00     0.161 C 
HETATM   14  C10 UNL     1      20.448   0.445  51.359  1.00  0.00    -0.007 A 
HETATM   15  C11 UNL     1      19.745   0.850  50.224  1.00  0.00     0.011 A 
HETATM   16  C12 UNL     1      18.374   0.685  50.108  1.00  0.00     0.001 A 
HETATM   17  C13 UNL     1      17.649   0.106  51.130  1.00  0.00     0.003 A 
HETATM   18  C14 UNL     1      18.342  -0.296  52.256  1.00  0.00     0.038 A 
HETATM   19  C15 UNL     1      19.707  -0.131  52.369  1.00  0.00     0.086 A 
HETATM   20  O1  UNL     1      20.234  -0.592  53.569  1.00  0.00    -0.289 OA
HETATM   21  C16 UNL     1      26.276   0.422  53.975  1.00  0.00     0.027 A 
HETATM   22  H5  UNL     1      23.298   1.737  52.618  1.00  0.00     0.160 HD
ENDROOT
TORSDOF 0
ENDMDL
MODEL 4
REMARK VINA RESULT:      -8.6      2.815      6.381
REMARK  0 active torsions:
REMARK  status: ('A' for Active; 'I' for Inactive)
ROOT
HETATM    1  F1  UNL     1      27.498   3.995  48.580  1.00  0.00    -0.241 F 
HETATM    2  C1  UNL     1      26.702   4.233  49.703  1.00  0.00     0.217 A 
HETATM    3  C2  UNL     1      25.267   4.306  49.354  1.00  0.00     0.015 A 
HETATM    4  C3  UNL     1      24.697   3.362  50.071  1.00  0.00     0.012 A 
HETATM    5  C4  UNL     1      25.581   2.595  50.920  1.00  0.00    -0.006 A 
HETATM    6  C5  UNL     1      25.522   1.469  51.813  1.00  0.00     0.099 A 
HETATM    7  N1  UNL     1      26.656   0.842  52.187  1.00  0.00    -0.239 NA
HETATM    8  C6  UNL     1      26.649  -0.222  53.005  1.00  0.00     0.236 A 
HETATM    9  N2  UNL     1      25.549  -0.765  53.529  1.00  0.00    -0.215 NA
HETATM   10  C7  UNL     1      24.358  -0.186  53.199  1.00  0.00     0.200 A 
HETATM   11  C8  UNL     1      24.371   0.932  52.342  1.00  0.00     0.112 A 
HETATM   12  N3  UNL     1      23.216   1.717  51.963  1.00  0.00    -0.380 N 
HETATM   13  C9  UNL     1      21.902   1.195  51.554  1.00  0.00     0.161 C 
HETATM   14  C10 UNL     1      21.415   0.167  52.509  1.00  0.00    -0.007 A 
HETATM   15  C11 UNL     1      20.034   0.149  52.311  1.00  0.00     0.011 A 
HETATM   16  C12 UNL     1      19.198  -0.694  53.025  1.00  0.00     0.001 A 
HETATM   17  C13 UNL     1      19.714  -1.555  53.972  1.00  0.00     0.003 A 
HETATM   18  C14 UNL     1      21.081  -1.540  54.172  1.00  0.00     0.038 A 
HETATM   19  C15 UNL     1      21.913  -0.700  53.459  1.00  0.00     0.086 A 
HETATM   20  O1  UNL     1      23.256  -0.820  53.791  1.00  0.00    -0.289 OA
HETATM   21  C16 UNL     1      26.765   3.139  50.675  1.00  0.00     0.027 A 
HETATM   22  H5  UNL     1      23.552   2.741  52.075  1.00  0.00     0.160 HD
ENDROOT
TORSDOF 0
ENDMDL
MODEL 5
REMARK VINA RESULT:      -8.6      3.226      4.784
REMARK  0 active torsions:
REMARK  status: ('A' for Active; 'I' for Inactive)
ROOT
HETATM    1  F1  UNL     1      18.893   1.668  50.619  1.00  0.00    -0.241 F 
HETATM    2  C1  UNL     1      20.057   0.980  50.270  1.00  0.00     0.217 A 
HETATM    3  C2  UNL     1      21.148   1.903  49.886  1.00  0.00     0.015 A 
HETATM    4  C3  UNL     1      22.127   1.635  50.721  1.00  0.00     0.012 A 
HETATM    5  C4  UNL     1      21.861   0.596  51.691  1.00  0.00    -0.006 A 
HETATM    6  C5  UNL     1      22.503  -0.026  52.818  1.00  0.00     0.099 A 
HETATM    7  N1  UNL     1      21.781  -0.768  53.682  1.00  0.00    -0.239 NA
HETATM    8  C6  UNL     1      22.332  -1.354  54.757  1.00  0.00     0.236 A 
HETATM    9  N2  UNL     1      23.623  -1.273  55.082  1.00  0.00    -0.215 NA
HETATM   10  C7  UNL     1      24.423  -0.540  54.254  1.00  0.00     0.200 A 
HETATM   11  C8  UNL     1      23.840   0.071  53.127  1.00  0.00     0.112 A 
HETATM   12  N3  UNL     1      24.552   0.806  52.103  1.00  0.00    -0.380 N 
HETATM   13  C9  UNL     1      25.606   1.808  52.324  1.00  0.00     0.161 C 
HETATM   14  C10 UNL     1      26.635   1.303  53.269  1.00  0.00    -0.007 A 
HETATM   15  C11 UNL     1      27.759   2.081  52.991  1.00  0.00     0.011 A 
HETATM   16  C12 UNL     1      28.955   1.917  53.672  1.00  0.00     0.001 A 
HETATM   17  C13 UNL     1      29.072   0.963  54.663  1.00  0.00     0.003 A 
HETATM   18  C14 UNL     1      27.961   0.191  54.940  1.00  0.00     0.038 A 
HETATM   19  C15 UNL     1      26.771   0.355  54.261  1.00  0.00     0.086 A 
HETATM   20  O1  UNL     1      25.762  -0.507  54.672  1.00  0.00    -0.289 OA
HETATM   21  C16 UNL     1      20.623   0.230  51.394  1.00  0.00     0.027 A 
HETATM   22  H5  UNL     1      24.137   0.426  51.178  1.00  0.00     0.160 HD
ENDROOT
TORSDOF 0
ENDMDL
MODEL 6
REMARK VINA RESULT:      -8.5      3.702      7.106
REMARK  0 active torsions:
REMARK  status: ('A' for Active; 'I' for Inactive)
ROOT
HETATM    1  F1  UNL     1      26.770   1.680  51.391  1.00  0.00    -0.241 F 
HETATM    2  C1  UNL     1      25.606   2.274  51.883  1.00  0.00     0.217 A 
HETATM    3  C2  UNL     1      24.620   2.526  50.810  1.00  0.00     0.015 A 
HETATM    4  C3  UNL     1      23.547   1.860  51.174  1.00  0.00     0.012 A 
HETATM    5  C4  UNL     1      23.647   1.136  52.422  1.00  0.00    -0.006 A 
HETATM    6  C5  UNL     1      22.857   0.240  53.223  1.00  0.00     0.099 A 
HETATM    7  N1  UNL     1      23.441  -0.488  54.198  1.00  0.00    -0.239 NA
HETATM    8  C6  UNL     1      22.748  -1.349  54.960  1.00  0.00     0.236 A 
HETATM    9  N2  UNL     1      21.438  -1.575  54.846  1.00  0.00    -0.215 NA
HETATM   10  C7  UNL     1      20.774  -0.873  53.881  1.00  0.00     0.200 A 
HETATM   11  C8  UNL     1      21.504   0.030  53.085  1.00  0.00     0.112 A 
HETATM   12  N3  UNL     1      20.947   0.913  52.084  1.00  0.00    -0.380 N 
HETATM   13  C9  UNL     1      19.941   0.557  51.071  1.00  0.00     0.161 C 
HETATM   14  C10 UNL     1      18.793  -0.156  51.686  1.00  0.00    -0.007 A 
HETATM   15  C11 UNL     1      17.753   0.028  50.774  1.00  0.00     0.011 A 
HETATM   16  C12 UNL     1      16.486  -0.494  50.985  1.00  0.00     0.001 A 
HETATM   17  C13 UNL     1      16.210  -1.226  52.123  1.00  0.00     0.003 A 
HETATM   18  C14 UNL     1      17.238  -1.410  53.028  1.00  0.00     0.038 A 
HETATM   19  C15 UNL     1      18.498  -0.889  52.816  1.00  0.00     0.086 A 
HETATM   20  O1  UNL     1      19.404  -1.173  53.830  1.00  0.00    -0.289 OA
HETATM   21  C16 UNL     1      24.884   1.404  52.815  1.00  0.00     0.027 A 
HETATM   22  H5  UNL     1      21.428   1.863  52.281  1.00  0.00     0.160 HD
ENDROOT
TORSDOF 0
ENDMDL
MODEL 7
REMARK VINA RESULT:      -8.4      3.220      7.128
REMARK  0 active torsions:
REMARK  status: ('A' for Active; 'I' for Inactive)
ROOT
HETATM    1  F1  UNL     1      27.243   6.636  48.956  1.00  0.00    -0.241 F 
HETATM    2  C1  UNL     1      26.523   5.486  48.621  1.00  0.00     0.217 A 
HETATM    3  C2  UNL     1      27.111   4.272  49.227  1.00  0.00     0.015 A 
HETATM    4  C3  UNL     1      26.149   3.762  49.963  1.00  0.00     0.012 A 
HETATM    5  C4  UNL     1      24.898   4.488  49.957  1.00  0.00    -0.006 A 
HETATM    6  C5  UNL     1      23.608   4.432  50.589  1.00  0.00     0.099 A 
HETATM    7  N1  UNL     1      22.790   5.504  50.554  1.00  0.00    -0.239 NA
HETATM    8  C6  UNL     1      21.584   5.504  51.143  1.00  0.00     0.236 A 
HETATM    9  N2  UNL     1      21.069   4.471  51.811  1.00  0.00    -0.215 NA
HETATM   10  C7  UNL     1      21.836   3.345  51.891  1.00  0.00     0.200 A 
HETATM   11  C8  UNL     1      23.100   3.349  51.269  1.00  0.00     0.112 A 
HETATM   12  N3  UNL     1      24.000   2.219  51.180  1.00  0.00    -0.380 N 
HETATM   13  C9  UNL     1      24.340   1.287  52.268  1.00  0.00     0.161 C 
HETATM   14  C10 UNL     1      23.117   0.796  52.952  1.00  0.00    -0.007 A 
HETATM   15  C11 UNL     1      23.523  -0.393  53.557  1.00  0.00     0.011 A 
HETATM   16  C12 UNL     1      22.656  -1.172  54.308  1.00  0.00     0.001 A 
HETATM   17  C13 UNL     1      21.342  -0.789  54.482  1.00  0.00     0.003 A 
HETATM   18  C14 UNL     1      20.936   0.388  53.883  1.00  0.00     0.038 A 
HETATM   19  C15 UNL     1      21.800   1.163  53.137  1.00  0.00     0.086 A 
HETATM   20  O1  UNL     1      21.220   2.310  52.611  1.00  0.00    -0.289 OA
HETATM   21  C16 UNL     1      25.157   5.507  49.150  1.00  0.00     0.027 A 
HETATM   22  H5  UNL     1      24.325   2.228  50.147  1.00  0.00     0.160 HD
ENDROOT
TORSDOF 0
ENDMDL
MODEL 8
REMARK VINA RESULT:      -8.3      2.513      4.463
REMARK  0 active torsions:
REMARK  status: ('A' for Active; 'I' for Inactive)
ROOT
HETATM    1  F1  UNL     1      18.548  -0.815  51.580  1.00  0.00    -0.241 F 
HETATM    2  C1  UNL     1      19.214   0.017  52.483  1.00  0.00     0.217 A 
HETATM    3  C2  UNL     1      19.998  -0.757  53.470  1.00  0.00     0.015 A 
HETATM    4  C3  UNL     1      21.236  -0.342  53.319  1.00  0.00     0.012 A 
HETATM    5  C4  UNL     1      21.441   0.672  52.308  1.00  0.00    -0.006 A 
HETATM    6  C5  UNL     1      22.526   1.398  51.704  1.00  0.00     0.099 A 
HETATM    7  N1  UNL     1      22.337   2.053  50.540  1.00  0.00    -0.239 NA
HETATM    8  C6  UNL     1      23.323   2.731  49.932  1.00  0.00     0.236 A 
HETATM    9  N2  UNL     1      24.569   2.833  50.397  1.00  0.00    -0.215 NA
HETATM   10  C7  UNL     1      24.841   2.197  51.574  1.00  0.00     0.200 A 
HETATM   11  C8  UNL     1      23.803   1.489  52.210  1.00  0.00     0.112 A 
HETATM   12  N3  UNL     1      23.893   0.837  53.498  1.00  0.00    -0.380 N 
HETATM   13  C9  UNL     1      25.000  -0.008  53.972  1.00  0.00     0.161 C 
HETATM   14  C10 UNL     1      26.311   0.651  53.744  1.00  0.00    -0.007 A 
HETATM   15  C11 UNL     1      27.166   0.028  54.654  1.00  0.00     0.011 A 
HETATM   16  C12 UNL     1      28.506   0.366  54.757  1.00  0.00     0.001 A 
HETATM   17  C13 UNL     1      29.045   1.348  53.950  1.00  0.00     0.003 A 
HETATM   18  C14 UNL     1      28.202   1.967  53.049  1.00  0.00     0.038 A 
HETATM   19  C15 UNL     1      26.868   1.629  52.946  1.00  0.00     0.086 A 
HETATM   20  O1  UNL     1      26.173   2.355  51.987  1.00  0.00    -0.289 OA
HETATM   21  C16 UNL     1      20.220   0.860  51.831  1.00  0.00     0.027 A 
HETATM   22  H5  UNL     1      22.983   1.138  54.004  1.00  0.00     0.160 HD
ENDROOT
TORSDOF 0
ENDMDL
MODEL 9
REMARK VINA RESULT:      -8.2      2.601      3.945
REMARK  0 active torsions:
REMARK  status: ('A' for Active; 'I' for Inactive)
ROOT
HETATM    1  F1  UNL     1      16.299  -0.492  53.371  1.00  0.00    -0.241 F 
HETATM    2  C1  UNL     1      17.271  -0.892  52.452  1.00  0.00     0.217 A 
HETATM    3  C2  UNL     1      17.591   0.181  51.485  1.00  0.00     0.015 A 
HETATM    4  C3  UNL     1      18.879   0.396  51.632  1.00  0.00     0.012 A 
HETATM    5  C4  UNL     1      19.545  -0.422  52.621  1.00  0.00    -0.006 A 
HETATM    6  C5  UNL     1      20.849  -0.563  53.212  1.00  0.00     0.099 A 
HETATM    7  N1  UNL     1      20.999  -1.255  54.360  1.00  0.00    -0.239 NA
HETATM    8  C6  UNL     1      22.193  -1.400  54.957  1.00  0.00     0.236 A 
HETATM    9  N2  UNL     1      23.336  -0.892  54.495  1.00  0.00    -0.215 NA
HETATM   10  C7  UNL     1      23.268  -0.178  53.333  1.00  0.00     0.200 A 
HETATM   11  C8  UNL     1      22.014  -0.030  52.710  1.00  0.00     0.112 A 
HETATM   12  N3  UNL     1      21.776   0.614  51.436  1.00  0.00    -0.380 N 
HETATM   13  C9  UNL     1      22.350   1.892  50.985  1.00  0.00     0.161 C 
HETATM   14  C10 UNL     1      23.819   1.925  51.204  1.00  0.00    -0.007 A 
HETATM   15  C11 UNL     1      24.272   2.897  50.311  1.00  0.00     0.011 A 
HETATM   16  C12 UNL     1      25.612   3.233  50.205  1.00  0.00     0.001 A 
HETATM   17  C13 UNL     1      26.557   2.605  50.992  1.00  0.00     0.003 A 
HETATM   18  C14 UNL     1      26.112   1.641  51.876  1.00  0.00     0.038 A 
HETATM   19  C15 UNL     1      24.777   1.308  51.981  1.00  0.00     0.086 A 
HETATM   20  O1  UNL     1      24.513   0.320  52.921  1.00  0.00    -0.289 OA
HETATM   21  C16 UNL     1      18.561  -1.175  53.089  1.00  0.00     0.027 A 
HETATM   22  H5  UNL     1      21.113  -0.069  50.920  1.00  0.00     0.160 HD
ENDROOT
TORSDOF 0
ENDMDL
