MODEL 1
REMARK VINA RESULT:      -7.4      0.000      0.000
REMARK  6 active torsions:
REMARK  status: ('A' for Active; 'I' for Inactive)
REMARK    1  A    between atoms: C2_2  and  C4_4 
REMARK    2  A    between atoms: C5_5  and  C6_6 
REMARK    3  A    between atoms: C7_7  and  N1_8 
REMARK    4  A    between atoms: N1_8  and  C8_9 
REMARK    5  A    between atoms: C15_21  and  O1_22 
REMARK    6  A    between atoms: O1_22  and  C16_23 
ROOT
HETATM    1  C8  UNL     1      24.912   1.705  51.717  1.00  0.00     0.156 C 
HETATM    2  N2  UNL     1      24.002   1.920  50.834  1.00  0.00    -0.224 NA
HETATM    3  C9  UNL     1      22.738   1.290  50.748  1.00  0.00     0.234 C 
HETATM    4  N3  UNL     1      22.416   2.238  51.497  1.00  0.00    -0.254 NA
HETATM    5  C10 UNL     1      21.272   2.661  52.113  1.00  0.00     0.118 C 
HETATM    6  C11 UNL     1      20.397   2.191  52.980  1.00  0.00     0.021 C 
HETATM    7  C12 UNL     1      20.452   0.875  53.595  1.00  0.00     0.022 C 
HETATM    8  C13 UNL     1      21.343  -0.057  53.409  1.00  0.00     0.142 C 
HETATM    9  N4  UNL     1      22.383  -0.929  53.082  1.00  0.00    -0.145 NA
HETATM   10  N5  UNL     1      23.571  -0.881  53.078  1.00  0.00    -0.069 NA
HETATM   11  N6  UNL     1      24.628  -0.080  53.343  1.00  0.00    -0.255 N 
HETATM   12  C14 UNL     1      25.276  -0.501  54.588  1.00  0.00     0.178 C 
HETATM   13  C15 UNL     1      25.446   1.039  52.915  1.00  0.00     0.321 C 
ENDROOT
BRANCH   1  14
HETATM   14  N1  UNL     1      25.945   2.626  51.291  1.00  0.00    -0.351 N 
HETATM   15  H10 UNL     1      27.003   2.670  51.381  1.00  0.00     0.166 HD
BRANCH  14  16
HETATM   16  C7  UNL     1      25.899   3.866  50.562  1.00  0.00     0.089 C 
HETATM   17  C6  UNL     1      26.796   3.988  49.570  1.00  0.00     0.017 C 
BRANCH  17  18
HETATM   18  C5  UNL     1      26.896   5.184  48.719  1.00  0.00     0.002 C 
HETATM   19  C4  UNL     1      28.041   5.798  48.453  1.00  0.00     0.002 C 
BRANCH  19  20
HETATM   20  C2  UNL     1      28.061   6.978  47.600  1.00  0.00    -0.084 C 
HETATM   21  C1  UNL     1      26.988   7.695  47.393  1.00  0.00     0.038 C 
HETATM   22  C3  UNL     1      29.323   7.389  46.943  1.00  0.00     0.043 C 
ENDBRANCH  19  20
ENDBRANCH  17  18
ENDBRANCH  14  16
ENDBRANCH   1  14
BRANCH  13  23
HETATM   23  O1  UNL     1      26.805   0.603  52.734  1.00  0.00    -0.287 OA
BRANCH  23  24
HETATM   24  C16 UNL     1      27.810   1.193  53.492  1.00  0.00     0.257 C 
HETATM   25  C17 UNL     1      29.038   0.458  53.900  1.00  0.00     0.126 C 
HETATM   26  O2  UNL     1      27.733   2.395  53.878  1.00  0.00    -0.266 OA
ENDBRANCH  23  24
ENDBRANCH  13  23
TORSDOF 6
ENDMDL
MODEL 2
REMARK VINA RESULT:      -7.2      3.617      6.278
REMARK  6 active torsions:
REMARK  status: ('A' for Active; 'I' for Inactive)
REMARK    1  A    between atoms: C2_2  and  C4_4 
REMARK    2  A    between atoms: C5_5  and  C6_6 
REMARK    3  A    between atoms: C7_7  and  N1_8 
REMARK    4  A    between atoms: N1_8  and  C8_9 
REMARK    5  A    between atoms: C15_21  and  O1_22 
REMARK    6  A    between atoms: O1_22  and  C16_23 
ROOT
HETATM    1  C8  UNL     1      22.757   1.644  51.613  1.00  0.00     0.156 C 
HETATM    2  N2  UNL     1      23.599   2.303  50.898  1.00  0.00    -0.224 NA
HETATM    3  C9  UNL     1      23.386   2.817  49.597  1.00  0.00     0.234 C 
HETATM    4  N3  UNL     1      22.974   3.801  50.249  1.00  0.00    -0.254 NA
HETATM    5  C10 UNL     1      22.459   5.032  49.954  1.00  0.00     0.118 C 
HETATM    6  C11 UNL     1      21.428   5.529  49.299  1.00  0.00     0.021 C 
HETATM    7  C12 UNL     1      20.417   4.744  48.611  1.00  0.00     0.022 C 
HETATM    8  C13 UNL     1      20.342   3.447  48.512  1.00  0.00     0.142 C 
HETATM    9  N4  UNL     1      20.430   2.054  48.513  1.00  0.00    -0.145 NA
HETATM   10  N5  UNL     1      20.529   1.203  49.338  1.00  0.00    -0.069 NA
HETATM   11  N6  UNL     1      20.616   0.984  50.670  1.00  0.00    -0.255 N 
HETATM   12  C14 UNL     1      19.348   0.450  51.174  1.00  0.00     0.178 C 
HETATM   13  C15 UNL     1      21.444   1.026  51.860  1.00  0.00     0.321 C 
ENDROOT
BRANCH   1  14
HETATM   14  N1  UNL     1      23.533   1.399  52.812  1.00  0.00    -0.351 N 
HETATM   15  H10 UNL     1      23.344   1.442  53.857  1.00  0.00     0.166 HD
BRANCH  14  16
HETATM   16  C7  UNL     1      24.897   0.991  53.017  1.00  0.00     0.089 C 
HETATM   17  C6  UNL     1      25.084  -0.323  53.222  1.00  0.00     0.017 C 
BRANCH  17  18
HETATM   18  C5  UNL     1      26.408  -0.922  53.450  1.00  0.00     0.002 C 
HETATM   19  C4  UNL     1      27.537  -0.393  53.000  1.00  0.00     0.002 C 
BRANCH  19  20
HETATM   20  C2  UNL     1      28.812  -1.044  53.266  1.00  0.00    -0.084 C 
HETATM   21  C1  UNL     1      29.874  -0.364  53.608  1.00  0.00     0.038 C 
HETATM   22  C3  UNL     1      28.923  -2.517  53.149  1.00  0.00     0.043 C 
ENDBRANCH  19  20
ENDBRANCH  17  18
ENDBRANCH  14  16
ENDBRANCH   1  14
BRANCH  13  23
HETATM   23  O1  UNL     1      21.561  -0.295  52.415  1.00  0.00    -0.287 OA
BRANCH  23  24
HETATM   24  C16 UNL     1      21.371  -0.472  53.780  1.00  0.00     0.257 C 
HETATM   25  C17 UNL     1      21.744  -1.731  54.482  1.00  0.00     0.126 C 
HETATM   26  O2  UNL     1      20.869   0.434  54.506  1.00  0.00    -0.266 OA
ENDBRANCH  23  24
ENDBRANCH  13  23
TORSDOF 6
ENDMDL
MODEL 3
REMARK VINA RESULT:      -7.1      2.544      4.556
REMARK  6 active torsions:
REMARK  status: ('A' for Active; 'I' for Inactive)
REMARK    1  A    between atoms: C2_2  and  C4_4 
REMARK    2  A    between atoms: C5_5  and  C6_6 
REMARK    3  A    between atoms: C7_7  and  N1_8 
REMARK    4  A    between atoms: N1_8  and  C8_9 
REMARK    5  A    between atoms: C15_21  and  O1_22 
REMARK    6  A    between atoms: O1_22  and  C16_23 
ROOT
HETATM    1  C8  UNL     1      23.776   3.009  51.548  1.00  0.00     0.156 C 
HETATM    2  N2  UNL     1      24.739   3.289  52.351  1.00  0.00    -0.224 NA
HETATM    3  C9  UNL     1      25.221   2.483  53.411  1.00  0.00     0.234 C 
HETATM    4  N3  UNL     1      25.944   2.030  52.497  1.00  0.00    -0.254 NA
HETATM    5  C10 UNL     1      26.918   1.077  52.393  1.00  0.00     0.118 C 
HETATM    6  C11 UNL     1      27.044  -0.218  52.603  1.00  0.00     0.021 C 
HETATM    7  C12 UNL     1      25.989  -1.096  53.083  1.00  0.00     0.022 C 
HETATM    8  C13 UNL     1      24.763  -0.777  53.389  1.00  0.00     0.142 C 
HETATM    9  N4  UNL     1      23.501  -0.250  53.667  1.00  0.00    -0.145 NA
HETATM   10  N5  UNL     1      22.695   0.398  53.080  1.00  0.00    -0.069 NA
HETATM   11  N6  UNL     1      22.440   1.008  51.901  1.00  0.00    -0.255 N 
HETATM   12  C14 UNL     1      21.450   0.240  51.141  1.00  0.00     0.178 C 
HETATM   13  C15 UNL     1      22.708   2.138  51.031  1.00  0.00     0.321 C 
ENDROOT
BRANCH   1  14
HETATM   14  N1  UNL     1      23.756   4.188  50.706  1.00  0.00    -0.351 N 
HETATM   15  H10 UNL     1      23.016   4.705  50.145  1.00  0.00     0.166 HD
BRANCH  14  16
HETATM   16  C7  UNL     1      24.783   5.117  50.314  1.00  0.00     0.089 C 
HETATM   17  C6  UNL     1      25.594   4.701  49.327  1.00  0.00     0.017 C 
BRANCH  17  18
HETATM   18  C5  UNL     1      26.699   5.516  48.797  1.00  0.00     0.002 C 
HETATM   19  C4  UNL     1      27.909   5.034  48.550  1.00  0.00     0.002 C 
BRANCH  19  20
HETATM   20  C2  UNL     1      28.953   5.903  48.025  1.00  0.00    -0.084 C 
HETATM   21  C1  UNL     1      30.198   5.515  47.953  1.00  0.00     0.038 C 
HETATM   22  C3  UNL     1      28.608   7.265  47.556  1.00  0.00     0.043 C 
ENDBRANCH  19  20
ENDBRANCH  17  18
ENDBRANCH  14  16
ENDBRANCH   1  14
BRANCH  13  23
HETATM   23  O1  UNL     1      21.488   2.860  50.787  1.00  0.00    -0.287 OA
BRANCH  23  24
HETATM   24  C16 UNL     1      21.235   3.344  49.509  1.00  0.00     0.257 C 
HETATM   25  C17 UNL     1      21.342   2.488  48.296  1.00  0.00     0.126 C 
HETATM   26  O2  UNL     1      20.896   4.545  49.306  1.00  0.00    -0.266 OA
ENDBRANCH  23  24
ENDBRANCH  13  23
TORSDOF 6
ENDMDL
MODEL 4
REMARK VINA RESULT:      -6.9      1.526      1.980
REMARK  6 active torsions:
REMARK  status: ('A' for Active; 'I' for Inactive)
REMARK    1  A    between atoms: C2_2  and  C4_4 
REMARK    2  A    between atoms: C5_5  and  C6_6 
REMARK    3  A    between atoms: C7_7  and  N1_8 
REMARK    4  A    between atoms: N1_8  and  C8_9 
REMARK    5  A    between atoms: C15_21  and  O1_22 
REMARK    6  A    between atoms: O1_22  and  C16_23 
ROOT
HETATM    1  C8  UNL     1      23.844   2.270  50.999  1.00  0.00     0.156 C 
HETATM    2  N2  UNL     1      23.271   2.806  49.980  1.00  0.00    -0.224 NA
HETATM    3  C9  UNL     1      21.943   2.585  49.541  1.00  0.00     0.234 C 
HETATM    4  N3  UNL     1      21.719   3.532  50.326  1.00  0.00    -0.254 NA
HETATM    5  C10 UNL     1      20.619   4.231  50.736  1.00  0.00     0.118 C 
HETATM    6  C11 UNL     1      19.465   3.982  51.324  1.00  0.00     0.021 C 
HETATM    7  C12 UNL     1      19.009   2.670  51.751  1.00  0.00     0.022 C 
HETATM    8  C13 UNL     1      19.631   1.530  51.633  1.00  0.00     0.142 C 
HETATM    9  N4  UNL     1      20.442   0.415  51.420  1.00  0.00    -0.145 NA
HETATM   10  N5  UNL     1      21.562   0.109  51.677  1.00  0.00    -0.069 NA
HETATM   11  N6  UNL     1      22.699   0.541  52.268  1.00  0.00    -0.255 N 
HETATM   12  C14 UNL     1      22.885  -0.138  53.553  1.00  0.00     0.178 C 
HETATM   13  C15 UNL     1      23.869   1.394  52.182  1.00  0.00     0.321 C 
ENDROOT
BRANCH   1  14
HETATM   14  N1  UNL     1      25.160   2.871  50.934  1.00  0.00    -0.351 N 
HETATM   15  H10 UNL     1      26.100   2.688  51.395  1.00  0.00     0.166 HD
BRANCH  14  16
HETATM   16  C7  UNL     1      25.682   3.983  50.184  1.00  0.00     0.089 C 
HETATM   17  C6  UNL     1      26.814   3.742  49.502  1.00  0.00     0.017 C 
BRANCH  17  18
HETATM   18  C5  UNL     1      27.491   4.758  48.681  1.00  0.00     0.002 C 
HETATM   19  C4  UNL     1      27.125   6.031  48.646  1.00  0.00     0.002 C 
BRANCH  19  20
HETATM   20  C2  UNL     1      27.845   6.980  47.807  1.00  0.00    -0.084 C 
HETATM   21  C1  UNL     1      29.144   6.935  47.679  1.00  0.00     0.038 C 
HETATM   22  C3  UNL     1      27.097   8.029  47.075  1.00  0.00     0.043 C 
ENDBRANCH  19  20
ENDBRANCH  17  18
ENDBRANCH  14  16
ENDBRANCH   1  14
BRANCH  13  23
HETATM   23  O1  UNL     1      25.060   0.589  52.236  1.00  0.00    -0.287 OA
BRANCH  23  24
HETATM   24  C16 UNL     1      26.030   0.885  53.187  1.00  0.00     0.257 C 
HETATM   25  C17 UNL     1      27.135  -0.055  53.518  1.00  0.00     0.126 C 
HETATM   26  O2  UNL     1      26.026   1.976  53.826  1.00  0.00    -0.266 OA
ENDBRANCH  23  24
ENDBRANCH  13  23
TORSDOF 6
ENDMDL
MODEL 5
REMARK VINA RESULT:      -6.8      2.865      6.983
REMARK  6 active torsions:
REMARK  status: ('A' for Active; 'I' for Inactive)
REMARK    1  A    between atoms: C2_2  and  C4_4 
REMARK    2  A    between atoms: C5_5  and  C6_6 
REMARK    3  A    between atoms: C7_7  and  N1_8 
REMARK    4  A    between atoms: N1_8  and  C8_9 
REMARK    5  A    between atoms: C15_21  and  O1_22 
REMARK    6  A    between atoms: O1_22  and  C16_23 
ROOT
HETATM    1  C8  UNL     1      24.838   3.889  50.545  1.00  0.00     0.156 C 
HETATM    2  N2  UNL     1      25.862   4.585  50.196  1.00  0.00    -0.224 NA
HETATM    3  C9  UNL     1      25.918   5.552  49.164  1.00  0.00     0.234 C 
HETATM    4  N3  UNL     1      25.563   6.305  50.097  1.00  0.00    -0.254 NA
HETATM    5  C10 UNL     1      25.281   7.635  50.236  1.00  0.00     0.118 C 
HETATM    6  C11 UNL     1      24.440   8.514  49.727  1.00  0.00     0.021 C 
HETATM    7  C12 UNL     1      23.436   8.225  48.717  1.00  0.00     0.022 C 
HETATM    8  C13 UNL     1      23.189   7.083  48.141  1.00  0.00     0.142 C 
HETATM    9  N4  UNL     1      23.071   5.787  47.636  1.00  0.00    -0.145 NA
HETATM   10  N5  UNL     1      22.924   4.700  48.093  1.00  0.00    -0.069 NA
HETATM   11  N6  UNL     1      22.783   4.017  49.252  1.00  0.00    -0.255 N 
HETATM   12  C14 UNL     1      21.391   3.590  49.417  1.00  0.00     0.178 C 
HETATM   13  C15 UNL     1      23.427   3.484  50.438  1.00  0.00     0.321 C 
ENDROOT
BRANCH   1  14
HETATM   14  N1  UNL     1      25.387   3.100  51.628  1.00  0.00    -0.351 N 
HETATM   15  H10 UNL     1      25.218   3.031  52.676  1.00  0.00     0.166 HD
BRANCH  14  16
HETATM   16  C7  UNL     1      26.403   2.081  51.668  1.00  0.00     0.089 C 
HETATM   17  C6  UNL     1      26.935   1.841  52.878  1.00  0.00     0.017 C 
BRANCH  17  18
HETATM   18  C5  UNL     1      27.985   0.837  53.110  1.00  0.00     0.002 C 
HETATM   19  C4  UNL     1      27.776  -0.470  53.031  1.00  0.00     0.002 C 
BRANCH  19  20
HETATM   20  C2  UNL     1      28.866  -1.404  53.274  1.00  0.00    -0.084 C 
HETATM   21  C1  UNL     1      28.725  -2.690  53.086  1.00  0.00     0.038 C 
HETATM   22  C3  UNL     1      30.175  -0.898  53.750  1.00  0.00     0.043 C 
ENDBRANCH  19  20
ENDBRANCH  17  18
ENDBRANCH  14  16
ENDBRANCH   1  14
BRANCH  13  23
HETATM   23  O1  UNL     1      23.268   2.055  50.473  1.00  0.00    -0.287 OA
BRANCH  23  24
HETATM   24  C16 UNL     1      22.639   1.474  51.568  1.00  0.00     0.257 C 
HETATM   25  C17 UNL     1      21.565   0.453  51.422  1.00  0.00     0.126 C 
HETATM   26  O2  UNL     1      22.947   1.783  52.755  1.00  0.00    -0.266 OA
ENDBRANCH  23  24
ENDBRANCH  13  23
TORSDOF 6
ENDMDL
MODEL 6
REMARK VINA RESULT:      -6.6      2.807      6.050
REMARK  6 active torsions:
REMARK  status: ('A' for Active; 'I' for Inactive)
REMARK    1  A    between atoms: C2_2  and  C4_4 
REMARK    2  A    between atoms: C5_5  and  C6_6 
REMARK    3  A    between atoms: C7_7  and  N1_8 
REMARK    4  A    between atoms: N1_8  and  C8_9 
REMARK    5  A    between atoms: C15_21  and  O1_22 
REMARK    6  A    between atoms: O1_22  and  C16_23 
ROOT
HETATM    1  C8  UNL     1      23.528   3.714  51.618  1.00  0.00     0.156 C 
HETATM    2  N2  UNL     1      22.711   3.235  52.488  1.00  0.00    -0.224 NA
HETATM    3  C9  UNL     1      21.307   3.112  52.355  1.00  0.00     0.234 C 
HETATM    4  N3  UNL     1      21.631   2.009  51.864  1.00  0.00    -0.254 NA
HETATM    5  C10 UNL     1      20.973   0.937  51.331  1.00  0.00     0.118 C 
HETATM    6  C11 UNL     1      20.142   0.695  50.336  1.00  0.00     0.021 C 
HETATM    7  C12 UNL     1      19.640   1.691  49.404  1.00  0.00     0.022 C 
HETATM    8  C13 UNL     1      19.903   2.967  49.380  1.00  0.00     0.142 C 
HETATM    9  N4  UNL     1      20.300   4.299  49.513  1.00  0.00    -0.145 NA
HETATM   10  N5  UNL     1      21.334   4.882  49.579  1.00  0.00    -0.069 NA
HETATM   11  N6  UNL     1      22.676   4.719  49.575  1.00  0.00    -0.255 N 
HETATM   12  C14 UNL     1      23.231   5.158  48.291  1.00  0.00     0.178 C 
HETATM   13  C15 UNL     1      23.856   4.306  50.311  1.00  0.00     0.321 C 
ENDROOT
BRANCH   1  14
HETATM   14  N1  UNL     1      24.793   3.576  52.310  1.00  0.00    -0.351 N 
HETATM   15  H10 UNL     1      25.484   4.245  52.762  1.00  0.00     0.166 HD
BRANCH  14  16
HETATM   16  C7  UNL     1      25.596   2.430  52.644  1.00  0.00     0.089 C 
HETATM   17  C6  UNL     1      25.836   1.578  51.634  1.00  0.00     0.017 C 
BRANCH  17  18
HETATM   18  C5  UNL     1      26.637   0.353  51.788  1.00  0.00     0.002 C 
HETATM   19  C4  UNL     1      27.131  -0.056  52.948  1.00  0.00     0.002 C 
BRANCH  19  20
HETATM   20  C2  UNL     1      27.915  -1.281  53.022  1.00  0.00    -0.084 C 
HETATM   21  C1  UNL     1      27.415  -2.439  52.684  1.00  0.00     0.038 C 
HETATM   22  C3  UNL     1      29.320  -1.227  53.491  1.00  0.00     0.043 C 
ENDBRANCH  19  20
ENDBRANCH  17  18
ENDBRANCH  14  16
ENDBRANCH   1  14
BRANCH  13  23
HETATM   23  O1  UNL     1      24.765   5.415  50.430  1.00  0.00    -0.287 OA
BRANCH  23  24
HETATM   24  C16 UNL     1      25.931   5.414  49.675  1.00  0.00     0.257 C 
HETATM   25  C17 UNL     1      26.638   4.159  49.300  1.00  0.00     0.126 C 
HETATM   26  O2  UNL     1      26.458   6.487  49.263  1.00  0.00    -0.266 OA
ENDBRANCH  23  24
ENDBRANCH  13  23
TORSDOF 6
ENDMDL
MODEL 7
REMARK VINA RESULT:      -6.6      5.113     10.028
REMARK  6 active torsions:
REMARK  status: ('A' for Active; 'I' for Inactive)
REMARK    1  A    between atoms: C2_2  and  C4_4 
REMARK    2  A    between atoms: C5_5  and  C6_6 
REMARK    3  A    between atoms: C7_7  and  N1_8 
REMARK    4  A    between atoms: N1_8  and  C8_9 
REMARK    5  A    between atoms: C15_21  and  O1_22 
REMARK    6  A    between atoms: O1_22  and  C16_23 
ROOT
HETATM    1  C8  UNL     1      29.120   6.067  48.109  1.00  0.00     0.156 C 
HETATM    2  N2  UNL     1      29.895   5.043  48.156  1.00  0.00    -0.224 NA
HETATM    3  C9  UNL     1      31.147   4.897  47.512  1.00  0.00     0.234 C 
HETATM    4  N3  UNL     1      31.552   5.413  48.576  1.00  0.00    -0.254 NA
HETATM    5  C10 UNL     1      32.761   5.779  49.096  1.00  0.00     0.118 C 
HETATM    6  C11 UNL     1      33.755   6.588  48.783  1.00  0.00     0.021 C 
HETATM    7  C12 UNL     1      33.809   7.429  47.599  1.00  0.00     0.022 C 
HETATM    8  C13 UNL     1      32.918   7.537  46.654  1.00  0.00     0.142 C 
HETATM    9  N4  UNL     1      31.859   7.519  45.746  1.00  0.00    -0.145 NA
HETATM   10  N5  UNL     1      30.681   7.671  45.800  1.00  0.00    -0.069 NA
HETATM   11  N6  UNL     1      29.656   7.932  46.643  1.00  0.00    -0.255 N 
HETATM   12  C14 UNL     1      29.192   9.309  46.457  1.00  0.00     0.178 C 
HETATM   13  C15 UNL     1      28.766   7.428  47.672  1.00  0.00     0.321 C 
ENDROOT
BRANCH   1  14
HETATM   14  N1  UNL     1      28.021   5.631  48.946  1.00  0.00    -0.351 N 
HETATM   15  H10 UNL     1      27.510   6.025  49.790  1.00  0.00     0.166 HD
BRANCH  14  16
HETATM   16  C7  UNL     1      27.196   4.452  48.926  1.00  0.00     0.089 C 
HETATM   17  C6  UNL     1      25.996   4.576  49.517  1.00  0.00     0.017 C 
BRANCH  17  18
HETATM   18  C5  UNL     1      25.020   3.477  49.593  1.00  0.00     0.002 C 
HETATM   19  C4  UNL     1      23.788   3.560  49.111  1.00  0.00     0.002 C 
BRANCH  19  20
HETATM   20  C2  UNL     1      22.877   2.429  49.224  1.00  0.00    -0.084 C 
HETATM   21  C1  UNL     1      22.622   1.864  50.374  1.00  0.00     0.038 C 
HETATM   22  C3  UNL     1      22.216   1.894  48.011  1.00  0.00     0.043 C 
ENDBRANCH  19  20
ENDBRANCH  17  18
ENDBRANCH  14  16
ENDBRANCH   1  14
BRANCH  13  23
HETATM   23  O1  UNL     1      27.404   7.517  47.220  1.00  0.00    -0.287 OA
BRANCH  23  24
HETATM   24  C16 UNL     1      26.429   7.967  48.103  1.00  0.00     0.257 C 
HETATM   25  C17 UNL     1      24.974   7.774  47.851  1.00  0.00     0.126 C 
HETATM   26  O2  UNL     1      26.727   8.568  49.175  1.00  0.00    -0.266 OA
ENDBRANCH  23  24
ENDBRANCH  13  23
TORSDOF 6
ENDMDL
MODEL 8
REMARK VINA RESULT:      -6.6      4.465      9.723
REMARK  6 active torsions:
REMARK  status: ('A' for Active; 'I' for Inactive)
REMARK    1  A    between atoms: C2_2  and  C4_4 
REMARK    2  A    between atoms: C5_5  and  C6_6 
REMARK    3  A    between atoms: C7_7  and  N1_8 
REMARK    4  A    between atoms: N1_8  and  C8_9 
REMARK    5  A    between atoms: C15_21  and  O1_22 
REMARK    6  A    between atoms: O1_22  and  C16_23 
ROOT
HETATM    1  C8  UNL     1      28.156   5.982  48.307  1.00  0.00     0.156 C 
HETATM    2  N2  UNL     1      29.086   5.095  48.279  1.00  0.00    -0.224 NA
HETATM    3  C9  UNL     1      30.364   5.225  47.684  1.00  0.00     0.234 C 
HETATM    4  N3  UNL     1      30.647   5.671  48.816  1.00  0.00    -0.254 NA
HETATM    5  C10 UNL     1      31.765   6.162  49.430  1.00  0.00     0.118 C 
HETATM    6  C11 UNL     1      32.623   7.148  49.255  1.00  0.00     0.021 C 
HETATM    7  C12 UNL     1      32.574   8.119  48.175  1.00  0.00     0.022 C 
HETATM    8  C13 UNL     1      31.706   8.193  47.206  1.00  0.00     0.142 C 
HETATM    9  N4  UNL     1      30.692   8.112  46.251  1.00  0.00    -0.145 NA
HETATM   10  N5  UNL     1      29.503   8.068  46.265  1.00  0.00    -0.069 NA
HETATM   11  N6  UNL     1      28.425   8.064  47.080  1.00  0.00    -0.255 N 
HETATM   12  C14 UNL     1      27.749   9.364  47.025  1.00  0.00     0.178 C 
HETATM   13  C15 UNL     1      27.599   7.311  48.005  1.00  0.00     0.321 C 
ENDROOT
BRANCH   1  14
HETATM   14  N1  UNL     1      27.118   5.284  49.037  1.00  0.00    -0.351 N 
HETATM   15  H10 UNL     1      26.257   5.572  49.590  1.00  0.00     0.166 HD
BRANCH  14  16
HETATM   16  C7  UNL     1      26.879   3.886  49.284  1.00  0.00     0.089 C 
HETATM   17  C6  UNL     1      26.340   3.594  50.479  1.00  0.00     0.017 C 
BRANCH  17  18
HETATM   18  C5  UNL     1      26.026   2.221  50.905  1.00  0.00     0.002 C 
HETATM   19  C4  UNL     1      26.290   1.753  52.117  1.00  0.00     0.002 C 
BRANCH  19  20
HETATM   20  C2  UNL     1      25.950   0.381  52.466  1.00  0.00    -0.084 C 
HETATM   21  C1  UNL     1      26.744  -0.617  52.184  1.00  0.00     0.038 C 
HETATM   22  C3  UNL     1      24.672   0.094  53.158  1.00  0.00     0.043 C 
ENDBRANCH  19  20
ENDBRANCH  17  18
ENDBRANCH  14  16
ENDBRANCH   1  14
BRANCH  13  23
HETATM   23  O1  UNL     1      26.254   7.235  47.500  1.00  0.00    -0.287 OA
BRANCH  23  24
HETATM   24  C16 UNL     1      25.193   7.324  48.394  1.00  0.00     0.257 C 
HETATM   25  C17 UNL     1      25.013   8.488  49.305  1.00  0.00     0.126 C 
HETATM   26  O2  UNL     1      24.317   6.416  48.481  1.00  0.00    -0.266 OA
ENDBRANCH  23  24
ENDBRANCH  13  23
TORSDOF 6
ENDMDL
MODEL 9
REMARK VINA RESULT:      -6.4      3.495      6.880
REMARK  6 active torsions:
REMARK  status: ('A' for Active; 'I' for Inactive)
REMARK    1  A    between atoms: C2_2  and  C4_4 
REMARK    2  A    between atoms: C5_5  and  C6_6 
REMARK    3  A    between atoms: C7_7  and  N1_8 
REMARK    4  A    between atoms: N1_8  and  C8_9 
REMARK    5  A    between atoms: C15_21  and  O1_22 
REMARK    6  A    between atoms: O1_22  and  C16_23 
ROOT
HETATM    1  C8  UNL     1      24.154   5.249  50.729  1.00  0.00     0.156 C 
HETATM    2  N2  UNL     1      23.383   4.780  51.645  1.00  0.00    -0.224 NA
HETATM    3  C9  UNL     1      22.098   5.257  51.998  1.00  0.00     0.234 C 
HETATM    4  N3  UNL     1      21.752   4.446  51.112  1.00  0.00    -0.254 NA
HETATM    5  C10 UNL     1      20.572   4.042  50.554  1.00  0.00     0.118 C 
HETATM    6  C11 UNL     1      19.562   4.586  49.904  1.00  0.00     0.021 C 
HETATM    7  C12 UNL     1      19.443   5.995  49.568  1.00  0.00     0.022 C 
HETATM    8  C13 UNL     1      20.281   6.955  49.841  1.00  0.00     0.142 C 
HETATM    9  N4  UNL     1      21.289   7.842  50.220  1.00  0.00    -0.145 NA
HETATM   10  N5  UNL     1      22.468   7.909  50.082  1.00  0.00    -0.069 NA
HETATM   11  N6  UNL     1      23.537   7.280  49.544  1.00  0.00    -0.255 N 
HETATM   12  C14 UNL     1      23.989   7.994  48.346  1.00  0.00     0.178 C 
HETATM   13  C15 UNL     1      24.482   6.183  49.640  1.00  0.00     0.321 C 
ENDROOT
BRANCH   1  14
HETATM   14  N1  UNL     1      25.297   4.367  50.840  1.00  0.00    -0.351 N 
HETATM   15  H10 UNL     1      26.311   4.397  50.522  1.00  0.00     0.166 HD
BRANCH  14  16
HETATM   16  C7  UNL     1      25.469   3.074  51.450  1.00  0.00     0.089 C 
HETATM   17  C6  UNL     1      26.531   2.370  51.024  1.00  0.00     0.017 C 
BRANCH  17  18
HETATM   18  C5  UNL     1      26.864   1.030  51.534  1.00  0.00     0.002 C 
HETATM   19  C4  UNL     1      27.545   0.823  52.652  1.00  0.00     0.002 C 
BRANCH  19  20
HETATM   20  C2  UNL     1      27.838  -0.534  53.093  1.00  0.00    -0.084 C 
HETATM   21  C1  UNL     1      28.911  -0.817  53.782  1.00  0.00     0.038 C 
HETATM   22  C3  UNL     1      26.903  -1.633  52.758  1.00  0.00     0.043 C 
ENDBRANCH  19  20
ENDBRANCH  17  18
ENDBRANCH  14  16
ENDBRANCH   1  14
BRANCH  13  23
HETATM   23  O1  UNL     1      25.818   6.704  49.754  1.00  0.00    -0.287 OA
BRANCH  23  24
HETATM   24  C16 UNL     1      26.785   6.285  48.848  1.00  0.00     0.257 C 
HETATM   25  C17 UNL     1      27.664   7.240  48.121  1.00  0.00     0.126 C 
HETATM   26  O2  UNL     1      26.970   5.061  48.591  1.00  0.00    -0.266 OA
ENDBRANCH  23  24
ENDBRANCH  13  23
TORSDOF 6
ENDMDL
