MODEL 1
REMARK VINA RESULT:      -7.0      0.000      0.000
REMARK  2 active torsions:
REMARK  status: ('A' for Active; 'I' for Inactive)
REMARK    1  A    between atoms: N2_11  and  C9_12 
REMARK    2  A    between atoms: C10_14  and  O2_15 
ROOT
HETATM    1  C1  UNL     1      21.695   4.739  52.856  1.00  0.00     0.021 C 
HETATM    2  C2  UNL     1      22.776   4.437  52.194  1.00  0.00    -0.043 C 
HETATM    3  C3  UNL     1      23.718   3.373  52.629  1.00  0.00     0.007 C 
HETATM    4  C4  UNL     1      24.841   2.659  52.472  1.00  0.00     0.010 C 
HETATM    5  C5  UNL     1      25.942   2.595  51.541  1.00  0.00     0.112 A 
HETATM    6  O1  UNL     1      26.942   1.675  51.848  1.00  0.00     0.000 OA
HETATM    7  C6  UNL     1      26.600   0.295  51.981  1.00  0.00     0.000 C 
HETATM    8  C7  UNL     1      26.815   2.707  50.585  1.00  0.00     0.083 A 
HETATM    9  C8  UNL     1      26.173   3.739  49.749  1.00  0.00     0.019 C 
HETATM   10  N1  UNL     1      25.105   3.407  50.444  1.00  0.00    -0.277 N 
HETATM   11  N2  UNL     1      23.918   4.034  50.169  1.00  0.00    -0.257 N 
HETATM   12  C12 UNL     1      23.352   5.040  50.984  1.00  0.00     0.143 C 
HETATM   13  C13 UNL     1      22.682   6.101  50.242  1.00  0.00     0.035 C 
HETATM   14  C14 UNL     1      22.790   7.523  50.606  1.00  0.00     0.040 C 
HETATM   15  C15 UNL     1      24.155   8.126  50.469  1.00  0.00     0.173 A 
HETATM   16  C16 UNL     1      25.475   8.138  50.124  1.00  0.00     0.149 A 
HETATM   17  F1  UNL     1      24.639   7.108  49.948  1.00  0.00    -0.381 F 
HETATM   18  C17 UNL     1      26.408   7.124  49.520  1.00  0.00     0.015 C 
HETATM   19  C18 UNL     1      26.884   5.993  48.987  1.00  0.00    -0.022 C 
HETATM   20  C19 UNL     1      25.965   4.838  48.777  1.00  0.00     0.081 C 
ENDROOT
BRANCH  11  21
HETATM   21  C9  UNL     1      23.094   3.694  49.039  1.00  0.00     0.190 A 
HETATM   22  N3  UNL     1      22.693   4.034  47.848  1.00  0.00    -0.198 NA
HETATM   23  C10 UNL     1      21.842   3.284  47.222  1.00  0.00     0.171 A 
HETATM   24  C11 UNL     1      21.318   2.077  47.803  1.00  0.00     0.111 A 
HETATM   25  S1  UNL     1      22.225   2.171  49.381  1.00  0.00    -0.058 SA
BRANCH  23  26
HETATM   26  O2  UNL     1      21.364   3.573  45.952  1.00  0.00    -0.344 OA
HETATM   27  H9  UNL     1      20.424   3.904  45.766  1.00  0.00     0.219 HD
ENDBRANCH  23  26
ENDBRANCH  11  21
TORSDOF 2
ENDMDL
MODEL 2
REMARK VINA RESULT:      -6.9      2.033      3.045
REMARK  2 active torsions:
REMARK  status: ('A' for Active; 'I' for Inactive)
REMARK    1  A    between atoms: N2_11  and  C9_12 
REMARK    2  A    between atoms: C10_14  and  O2_15 
ROOT
HETATM    1  C1  UNL     1      21.422   7.860  49.979  1.00  0.00     0.021 C 
HETATM    2  C2  UNL     1      21.921   6.663  50.101  1.00  0.00    -0.043 C 
HETATM    3  C3  UNL     1      21.542   5.739  51.201  1.00  0.00     0.007 C 
HETATM    4  C4  UNL     1      21.648   4.568  51.846  1.00  0.00     0.010 C 
HETATM    5  C5  UNL     1      22.395   3.341  51.709  1.00  0.00     0.112 A 
HETATM    6  O1  UNL     1      22.186   2.391  52.706  1.00  0.00     0.000 OA
HETATM    7  C6  UNL     1      20.865   1.897  52.930  1.00  0.00     0.000 C 
HETATM    8  C7  UNL     1      23.155   2.336  51.389  1.00  0.00     0.083 A 
HETATM    9  C8  UNL     1      23.752   2.834  50.135  1.00  0.00     0.019 C 
HETATM   10  N1  UNL     1      22.749   3.687  50.186  1.00  0.00    -0.277 N 
HETATM   11  N2  UNL     1      22.611   4.603  49.178  1.00  0.00    -0.257 N 
HETATM   12  C12 UNL     1      22.944   5.970  49.305  1.00  0.00     0.143 C 
HETATM   13  C13 UNL     1      23.531   6.555  48.106  1.00  0.00     0.035 C 
HETATM   14  C14 UNL     1      24.665   7.494  48.146  1.00  0.00     0.040 C 
HETATM   15  C15 UNL     1      25.958   6.928  48.648  1.00  0.00     0.173 A 
HETATM   16  C16 UNL     1      26.790   5.940  49.087  1.00  0.00     0.149 A 
HETATM   17  F1  UNL     1      25.517   5.770  48.716  1.00  0.00    -0.381 F 
HETATM   18  C17 UNL     1      26.627   4.465  49.332  1.00  0.00     0.015 C 
HETATM   19  C18 UNL     1      26.092   3.241  49.411  1.00  0.00    -0.022 C 
HETATM   20  C19 UNL     1      24.677   3.031  48.994  1.00  0.00     0.081 C 
ENDROOT
BRANCH  11  21
HETATM   21  C9  UNL     1      22.059   4.276  47.889  1.00  0.00     0.190 A 
HETATM   22  N3  UNL     1      22.292   4.117  46.618  1.00  0.00    -0.198 NA
HETATM   23  C10 UNL     1      21.320   3.797  45.825  1.00  0.00     0.171 A 
HETATM   24  C11 UNL     1      19.977   3.608  46.304  1.00  0.00     0.111 A 
HETATM   25  S1  UNL     1      20.310   3.957  48.061  1.00  0.00    -0.058 SA
BRANCH  23  26
HETATM   26  O2  UNL     1      21.483   3.608  44.460  1.00  0.00    -0.344 OA
HETATM   27  H9  UNL     1      20.903   4.053  43.757  1.00  0.00     0.219 HD
ENDBRANCH  23  26
ENDBRANCH  11  21
TORSDOF 2
ENDMDL
MODEL 3
REMARK VINA RESULT:      -6.8      2.527      5.989
REMARK  2 active torsions:
REMARK  status: ('A' for Active; 'I' for Inactive)
REMARK    1  A    between atoms: N2_11  and  C9_12 
REMARK    2  A    between atoms: C10_14  and  O2_15 
ROOT
HETATM    1  C1  UNL     1      21.389   7.522  50.729  1.00  0.00     0.021 C 
HETATM    2  C2  UNL     1      21.522   6.596  49.822  1.00  0.00    -0.043 C 
HETATM    3  C3  UNL     1      21.064   6.767  48.419  1.00  0.00     0.007 C 
HETATM    4  C4  UNL     1      20.894   6.309  47.171  1.00  0.00     0.010 C 
HETATM    5  C5  UNL     1      21.162   5.096  46.436  1.00  0.00     0.112 A 
HETATM    6  O1  UNL     1      20.735   5.085  45.110  1.00  0.00     0.000 OA
HETATM    7  C6  UNL     1      21.230   6.079  44.212  1.00  0.00     0.000 C 
HETATM    8  C7  UNL     1      21.501   3.929  45.977  1.00  0.00     0.083 A 
HETATM    9  C8  UNL     1      22.159   3.350  47.163  1.00  0.00     0.019 C 
HETATM   10  N1  UNL     1      22.197   4.607  47.555  1.00  0.00    -0.277 N 
HETATM   11  N2  UNL     1      22.779   4.905  48.759  1.00  0.00    -0.257 N 
HETATM   12  C12 UNL     1      22.052   5.229  49.926  1.00  0.00     0.143 C 
HETATM   13  C13 UNL     1      22.636   4.707  51.156  1.00  0.00     0.035 C 
HETATM   14  C14 UNL     1      21.829   4.127  52.242  1.00  0.00     0.040 C 
HETATM   15  C15 UNL     1      21.107   2.858  51.906  1.00  0.00     0.173 A 
HETATM   16  C16 UNL     1      20.766   1.799  51.117  1.00  0.00     0.149 A 
HETATM   17  F1  UNL     1      21.634   2.760  50.786  1.00  0.00    -0.381 F 
HETATM   18  C17 UNL     1      21.149   1.359  49.730  1.00  0.00     0.015 C 
HETATM   19  C18 UNL     1      21.727   1.318  48.524  1.00  0.00    -0.022 C 
HETATM   20  C19 UNL     1      22.703   2.377  48.141  1.00  0.00     0.081 C 
ENDROOT
BRANCH  11  21
HETATM   21  C9  UNL     1      24.205   4.969  48.947  1.00  0.00     0.190 A 
HETATM   22  N3  UNL     1      25.267   4.370  49.402  1.00  0.00    -0.198 NA
HETATM   23  C10 UNL     1      26.419   4.954  49.311  1.00  0.00     0.171 A 
HETATM   24  C11 UNL     1      26.569   6.256  48.717  1.00  0.00     0.111 A 
HETATM   25  S1  UNL     1      24.813   6.522  48.308  1.00  0.00    -0.058 SA
BRANCH  23  26
HETATM   26  O2  UNL     1      27.599   4.385  49.770  1.00  0.00    -0.344 OA
HETATM   27  H9  UNL     1      28.354   4.916  50.187  1.00  0.00     0.219 HD
ENDBRANCH  23  26
ENDBRANCH  11  21
TORSDOF 2
ENDMDL
MODEL 4
REMARK VINA RESULT:      -6.8      3.186      5.551
REMARK  2 active torsions:
REMARK  status: ('A' for Active; 'I' for Inactive)
REMARK    1  A    between atoms: N2_11  and  C9_12 
REMARK    2  A    between atoms: C10_14  and  O2_15 
ROOT
HETATM    1  C1  UNL     1      21.907   1.409  47.865  1.00  0.00     0.021 C 
HETATM    2  C2  UNL     1      22.140   2.482  48.565  1.00  0.00    -0.043 C 
HETATM    3  C3  UNL     1      22.637   3.746  47.963  1.00  0.00     0.007 C 
HETATM    4  C4  UNL     1      23.042   5.020  48.066  1.00  0.00     0.010 C 
HETATM    5  C5  UNL     1      23.220   6.000  49.110  1.00  0.00     0.112 A 
HETATM    6  O1  UNL     1      23.737   7.229  48.705  1.00  0.00     0.000 OA
HETATM    7  C6  UNL     1      23.037   7.987  47.718  1.00  0.00     0.000 C 
HETATM    8  C7  UNL     1      23.295   6.714  50.194  1.00  0.00     0.083 A 
HETATM    9  C8  UNL     1      22.752   5.765  51.183  1.00  0.00     0.019 C 
HETATM   10  N1  UNL     1      22.298   5.155  50.108  1.00  0.00    -0.277 N 
HETATM   11  N2  UNL     1      21.555   4.014  50.262  1.00  0.00    -0.257 N 
HETATM   12  C12 UNL     1      22.048   2.714  50.013  1.00  0.00     0.143 C 
HETATM   13  C13 UNL     1      21.554   1.701  50.938  1.00  0.00     0.035 C 
HETATM   14  C14 UNL     1      22.408   0.638  51.493  1.00  0.00     0.040 C 
HETATM   15  C15 UNL     1      23.510   1.097  52.397  1.00  0.00     0.173 A 
HETATM   16  C16 UNL     1      24.224   2.013  53.114  1.00  0.00     0.149 A 
HETATM   17  F1  UNL     1      23.133   2.280  52.389  1.00  0.00    -0.381 F 
HETATM   18  C17 UNL     1      24.110   3.498  53.325  1.00  0.00     0.015 C 
HETATM   19  C18 UNL     1      23.674   4.762  53.259  1.00  0.00    -0.022 C 
HETATM   20  C19 UNL     1      22.455   5.076  52.462  1.00  0.00     0.081 C 
ENDROOT
BRANCH  11  21
HETATM   21  C9  UNL     1      20.168   4.026  50.647  1.00  0.00     0.190 A 
HETATM   22  N3  UNL     1      19.306   3.827  51.603  1.00  0.00    -0.198 NA
HETATM   23  C10 UNL     1      18.043   3.992  51.368  1.00  0.00     0.171 A 
HETATM   24  C11 UNL     1      17.553   4.393  50.076  1.00  0.00     0.111 A 
HETATM   25  S1  UNL     1      19.171   4.499  49.243  1.00  0.00    -0.058 SA
BRANCH  23  26
HETATM   26  O2  UNL     1      17.060   3.801  52.329  1.00  0.00    -0.344 OA
HETATM   27  H9  UNL     1      17.164   4.071  53.301  1.00  0.00     0.219 HD
ENDBRANCH  23  26
ENDBRANCH  11  21
TORSDOF 2
ENDMDL
MODEL 5
REMARK VINA RESULT:      -6.6      2.711      5.865
REMARK  2 active torsions:
REMARK  status: ('A' for Active; 'I' for Inactive)
REMARK    1  A    between atoms: N2_11  and  C9_12 
REMARK    2  A    between atoms: C10_14  and  O2_15 
ROOT
HETATM    1  C1  UNL     1      23.302   4.812  53.180  1.00  0.00     0.021 C 
HETATM    2  C2  UNL     1      22.945   5.092  51.959  1.00  0.00    -0.043 C 
HETATM    3  C3  UNL     1      22.164   6.306  51.605  1.00  0.00     0.007 C 
HETATM    4  C4  UNL     1      21.543   7.088  50.711  1.00  0.00     0.010 C 
HETATM    5  C5  UNL     1      21.290   7.088  49.290  1.00  0.00     0.112 A 
HETATM    6  O1  UNL     1      20.516   8.143  48.813  1.00  0.00     0.000 OA
HETATM    7  C6  UNL     1      20.962   9.484  49.024  1.00  0.00     0.000 C 
HETATM    8  C7  UNL     1      21.193   6.890  48.009  1.00  0.00     0.083 A 
HETATM    9  C8  UNL     1      21.998   5.663  47.862  1.00  0.00     0.019 C 
HETATM   10  N1  UNL     1      22.449   6.010  49.050  1.00  0.00    -0.277 N 
HETATM   11  N2  UNL     1      23.402   5.228  49.648  1.00  0.00    -0.257 N 
HETATM   12  C12 UNL     1      23.136   4.338  50.712  1.00  0.00     0.143 C 
HETATM   13  C13 UNL     1      23.900   3.097  50.657  1.00  0.00     0.035 C 
HETATM   14  C14 UNL     1      23.317   1.784  50.979  1.00  0.00     0.040 C 
HETATM   15  C15 UNL     1      22.245   1.305  50.050  1.00  0.00     0.173 A 
HETATM   16  C16 UNL     1      21.449   1.361  48.943  1.00  0.00     0.149 A 
HETATM   17  F1  UNL     1      22.393   2.252  49.261  1.00  0.00    -0.381 F 
HETATM   18  C17 UNL     1      21.305   2.334  47.804  1.00  0.00     0.015 C 
HETATM   19  C18 UNL     1      21.490   3.390  47.003  1.00  0.00    -0.022 C 
HETATM   20  C19 UNL     1      22.544   4.389  47.338  1.00  0.00     0.081 C 
ENDROOT
BRANCH  11  21
HETATM   21  C9  UNL     1      24.794   5.270  49.283  1.00  0.00     0.190 A 
HETATM   22  N3  UNL     1      25.885   4.588  49.087  1.00  0.00    -0.198 NA
HETATM   23  C10 UNL     1      26.971   5.204  48.744  1.00  0.00     0.171 A 
HETATM   24  C11 UNL     1      27.015   6.631  48.569  1.00  0.00     0.111 A 
HETATM   25  S1  UNL     1      25.268   6.963  48.969  1.00  0.00    -0.058 SA
BRANCH  23  26
HETATM   26  O2  UNL     1      28.175   4.553  48.516  1.00  0.00    -0.344 OA
HETATM   27  H9  UNL     1      28.332   3.916  47.743  1.00  0.00     0.219 HD
ENDBRANCH  23  26
ENDBRANCH  11  21
TORSDOF 2
ENDMDL
MODEL 6
REMARK VINA RESULT:      -6.5     24.639     26.817
REMARK  2 active torsions:
REMARK  status: ('A' for Active; 'I' for Inactive)
REMARK    1  A    between atoms: N2_11  and  C9_12 
REMARK    2  A    between atoms: C10_14  and  O2_15 
ROOT
HETATM    1  C1  UNL     1      43.211   0.089  72.778  1.00  0.00     0.021 C 
HETATM    2  C2  UNL     1      42.320   0.279  71.847  1.00  0.00    -0.043 C 
HETATM    3  C3  UNL     1      41.022   0.959  72.099  1.00  0.00     0.007 C 
HETATM    4  C4  UNL     1      39.828   1.407  71.687  1.00  0.00     0.010 C 
HETATM    5  C5  UNL     1      39.064   1.432  70.462  1.00  0.00     0.112 A 
HETATM    6  O1  UNL     1      37.792   1.993  70.554  1.00  0.00     0.000 OA
HETATM    7  C6  UNL     1      37.657   3.342  71.002  1.00  0.00     0.000 C 
HETATM    8  C7  UNL     1      38.567   1.351  69.264  1.00  0.00     0.083 A 
HETATM    9  C8  UNL     1      39.693   0.727  68.544  1.00  0.00     0.019 C 
HETATM   10  N1  UNL     1      40.376   1.124  69.598  1.00  0.00    -0.277 N 
HETATM   11  N2  UNL     1      41.722   0.876  69.643  1.00  0.00    -0.257 N 
HETATM   12  C12 UNL     1      42.310  -0.135  70.437  1.00  0.00     0.143 C 
HETATM   13  C13 UNL     1      43.445  -0.802  69.809  1.00  0.00     0.035 C 
HETATM   14  C14 UNL     1      43.667  -2.254  69.895  1.00  0.00     0.040 C 
HETATM   15  C15 UNL     1      42.638  -3.109  69.220  1.00  0.00     0.173 A 
HETATM   16  C16 UNL     1      41.532  -3.346  68.456  1.00  0.00     0.149 A 
HETATM   17  F1  UNL     1      42.039  -2.138  68.728  1.00  0.00    -0.381 F 
HETATM   18  C17 UNL     1      40.547  -2.465  67.736  1.00  0.00     0.015 C 
HETATM   19  C18 UNL     1      39.926  -1.382  67.255  1.00  0.00    -0.022 C 
HETATM   20  C19 UNL     1      40.481  -0.029  67.542  1.00  0.00     0.081 C 
ENDROOT
BRANCH  11  21
HETATM   21  C9  UNL     1      42.690   1.658  68.919  1.00  0.00     0.190 A 
HETATM   22  N3  UNL     1      43.572   1.676  67.962  1.00  0.00    -0.198 NA
HETATM   23  C10 UNL     1      44.234   2.764  67.724  1.00  0.00     0.171 A 
HETATM   24  C11 UNL     1      44.026   3.965  68.488  1.00  0.00     0.111 A 
HETATM   25  S1  UNL     1      42.741   3.308  69.600  1.00  0.00    -0.058 SA
BRANCH  23  26
HETATM   26  O2  UNL     1      45.190   2.869  66.724  1.00  0.00    -0.344 OA
HETATM   27  H9  UNL     1      46.178   3.012  66.903  1.00  0.00     0.219 HD
ENDBRANCH  23  26
ENDBRANCH  11  21
TORSDOF 2
ENDMDL
MODEL 7
REMARK VINA RESULT:      -6.4      7.330      9.804
REMARK  2 active torsions:
REMARK  status: ('A' for Active; 'I' for Inactive)
REMARK    1  A    between atoms: N2_11  and  C9_12 
REMARK    2  A    between atoms: C10_14  and  O2_15 
ROOT
HETATM    1  C1  UNL     1      30.871  12.199  49.395  1.00  0.00     0.021 C 
HETATM    2  C2  UNL     1      30.827  11.450  48.329  1.00  0.00    -0.043 C 
HETATM    3  C3  UNL     1      31.672  11.700  47.133  1.00  0.00     0.007 C 
HETATM    4  C4  UNL     1      32.071  11.398  45.889  1.00  0.00     0.010 C 
HETATM    5  C5  UNL     1      31.763  10.412  44.881  1.00  0.00     0.112 A 
HETATM    6  O1  UNL     1      32.441  10.550  43.672  1.00  0.00     0.000 OA
HETATM    7  C6  UNL     1      33.869  10.526  43.669  1.00  0.00     0.000 C 
HETATM    8  C7  UNL     1      31.339   9.435  44.137  1.00  0.00     0.083 A 
HETATM    9  C8  UNL     1      30.408   8.769  45.067  1.00  0.00     0.019 C 
HETATM   10  N1  UNL     1      31.064   9.469  45.969  1.00  0.00    -0.277 N 
HETATM   11  N2  UNL     1      30.717   9.335  47.288  1.00  0.00    -0.257 N 
HETATM   12  C12 UNL     1      29.974  10.298  48.008  1.00  0.00     0.143 C 
HETATM   13  C13 UNL     1      29.032   9.730  48.965  1.00  0.00     0.035 C 
HETATM   14  C14 UNL     1      27.675  10.264  49.166  1.00  0.00     0.040 C 
HETATM   15  C15 UNL     1      26.748  10.135  47.996  1.00  0.00     0.173 A 
HETATM   16  C16 UNL     1      26.379   9.728  46.747  1.00  0.00     0.149 A 
HETATM   17  F1  UNL     1      27.554   9.466  47.329  1.00  0.00    -0.381 F 
HETATM   18  C17 UNL     1      27.063   8.954  45.652  1.00  0.00     0.015 C 
HETATM   19  C18 UNL     1      27.980   8.261  44.968  1.00  0.00    -0.022 C 
HETATM   20  C19 UNL     1      29.292   7.954  45.604  1.00  0.00     0.081 C 
ENDROOT
BRANCH  11  21
HETATM   21  C9  UNL     1      31.120   8.215  48.096  1.00  0.00     0.190 A 
HETATM   22  N3  UNL     1      30.757   7.321  48.971  1.00  0.00    -0.198 NA
HETATM   23  C10 UNL     1      31.626   6.470  49.414  1.00  0.00     0.171 A 
HETATM   24  C11 UNL     1      32.994   6.476  48.970  1.00  0.00     0.111 A 
HETATM   25  S1  UNL     1      32.854   7.884  47.820  1.00  0.00    -0.058 SA
BRANCH  23  26
HETATM   26  O2  UNL     1      31.321   5.487  50.345  1.00  0.00    -0.344 OA
HETATM   27  H9  UNL     1      32.018   4.902  50.793  1.00  0.00     0.219 HD
ENDBRANCH  23  26
ENDBRANCH  11  21
TORSDOF 2
ENDMDL
MODEL 8
REMARK VINA RESULT:      -6.4      4.545      6.349
REMARK  2 active torsions:
REMARK  status: ('A' for Active; 'I' for Inactive)
REMARK    1  A    between atoms: N2_11  and  C9_12 
REMARK    2  A    between atoms: C10_14  and  O2_15 
ROOT
HETATM    1  C1  UNL     1      26.784  10.371  50.037  1.00  0.00     0.021 C 
HETATM    2  C2  UNL     1      27.065   9.156  49.662  1.00  0.00    -0.043 C 
HETATM    3  C3  UNL     1      26.213   7.987  50.004  1.00  0.00     0.007 C 
HETATM    4  C4  UNL     1      25.947   6.674  49.972  1.00  0.00     0.010 C 
HETATM    5  C5  UNL     1      26.549   5.478  49.432  1.00  0.00     0.112 A 
HETATM    6  O1  UNL     1      25.888   4.286  49.720  1.00  0.00     0.000 OA
HETATM    7  C6  UNL     1      24.528   4.129  49.315  1.00  0.00     0.000 C 
HETATM    8  C7  UNL     1      27.253   4.549  48.858  1.00  0.00     0.083 A 
HETATM    9  C8  UNL     1      28.313   5.360  48.231  1.00  0.00     0.019 C 
HETATM   10  N1  UNL     1      27.463   6.344  48.444  1.00  0.00    -0.277 N 
HETATM   11  N2  UNL     1      27.803   7.608  48.040  1.00  0.00    -0.257 N 
HETATM   12  C12 UNL     1      28.221   8.630  48.921  1.00  0.00     0.143 C 
HETATM   13  C13 UNL     1      29.263   9.494  48.381  1.00  0.00     0.035 C 
HETATM   14  C14 UNL     1      30.405   9.968  49.180  1.00  0.00     0.040 C 
HETATM   15  C15 UNL     1      31.357   8.908  49.642  1.00  0.00     0.173 A 
HETATM   16  C16 UNL     1      31.857   7.641  49.721  1.00  0.00     0.149 A 
HETATM   17  F1  UNL     1      30.793   8.008  48.999  1.00  0.00    -0.381 F 
HETATM   18  C17 UNL     1      31.450   6.316  49.136  1.00  0.00     0.015 C 
HETATM   19  C18 UNL     1      30.787   5.381  48.445  1.00  0.00    -0.022 C 
HETATM   20  C19 UNL     1      29.603   5.774  47.629  1.00  0.00     0.081 C 
ENDROOT
BRANCH  11  21
HETATM   21  C9  UNL     1      27.719   8.044  46.671  1.00  0.00     0.190 A 
HETATM   22  N3  UNL     1      28.372   8.332  45.582  1.00  0.00    -0.198 NA
HETATM   23  C10 UNL     1      27.724   8.728  44.534  1.00  0.00     0.171 A 
HETATM   24  C11 UNL     1      26.292   8.863  44.529  1.00  0.00     0.111 A 
HETATM   25  S1  UNL     1      26.008   8.338  46.251  1.00  0.00    -0.058 SA
BRANCH  23  26
HETATM   26  O2  UNL     1      28.343   9.054  43.335  1.00  0.00    -0.344 OA
HETATM   27  H9  UNL     1      29.339   9.219  43.244  1.00  0.00     0.219 HD
ENDBRANCH  23  26
ENDBRANCH  11  21
TORSDOF 2
ENDMDL
MODEL 9
REMARK VINA RESULT:      -6.4      5.222      8.165
REMARK  2 active torsions:
REMARK  status: ('A' for Active; 'I' for Inactive)
REMARK    1  A    between atoms: N2_11  and  C9_12 
REMARK    2  A    between atoms: C10_14  and  O2_15 
ROOT
HETATM    1  C1  UNL     1      30.423   7.194  46.892  1.00  0.00     0.021 C 
HETATM    2  C2  UNL     1      29.431   8.030  46.769  1.00  0.00    -0.043 C 
HETATM    3  C3  UNL     1      28.670   8.198  45.504  1.00  0.00     0.007 C 
HETATM    4  C4  UNL     1      27.707   8.784  44.778  1.00  0.00     0.010 C 
HETATM    5  C5  UNL     1      26.698   9.798  44.967  1.00  0.00     0.112 A 
HETATM    6  O1  UNL     1      25.934  10.109  43.845  1.00  0.00     0.000 OA
HETATM    7  C6  UNL     1      25.183   9.076  43.206  1.00  0.00     0.000 C 
HETATM    8  C7  UNL     1      25.869  10.718  45.361  1.00  0.00     0.083 A 
HETATM    9  C8  UNL     1      26.250  10.838  46.781  1.00  0.00     0.019 C 
HETATM   10  N1  UNL     1      26.823   9.673  46.558  1.00  0.00    -0.277 N 
HETATM   11  N2  UNL     1      27.467   9.047  47.592  1.00  0.00    -0.257 N 
HETATM   12  C12 UNL     1      28.873   8.994  47.727  1.00  0.00     0.143 C 
HETATM   13  C13 UNL     1      29.344   9.093  49.103  1.00  0.00     0.035 C 
HETATM   14  C14 UNL     1      30.522   9.886  49.490  1.00  0.00     0.040 C 
HETATM   15  C15 UNL     1      30.399  11.367  49.300  1.00  0.00     0.173 A 
HETATM   16  C16 UNL     1      29.748  12.526  48.992  1.00  0.00     0.149 A 
HETATM   17  F1  UNL     1      29.202  11.305  48.975  1.00  0.00    -0.381 F 
HETATM   18  C17 UNL     1      28.353  12.855  48.536  1.00  0.00     0.015 C 
HETATM   19  C18 UNL     1      27.073  12.727  48.166  1.00  0.00    -0.022 C 
HETATM   20  C19 UNL     1      26.446  11.376  48.148  1.00  0.00     0.081 C 
ENDROOT
BRANCH  11  21
HETATM   21  C9  UNL     1      26.775   8.329  48.629  1.00  0.00     0.190 A 
HETATM   22  N3  UNL     1      26.143   8.405  49.766  1.00  0.00    -0.198 NA
HETATM   23  C10 UNL     1      25.688   7.326  50.317  1.00  0.00     0.171 A 
HETATM   24  C11 UNL     1      25.856   6.031  49.712  1.00  0.00     0.111 A 
HETATM   25  S1  UNL     1      26.765   6.587  48.234  1.00  0.00    -0.058 SA
BRANCH  23  26
HETATM   26  O2  UNL     1      25.005   7.319  51.525  1.00  0.00    -0.344 OA
HETATM   27  H9  UNL     1      24.241   7.949  51.743  1.00  0.00     0.219 HD
ENDBRANCH  23  26
ENDBRANCH  11  21
TORSDOF 2
ENDMDL
