MODEL 1
REMARK VINA RESULT:      -8.7      0.000      0.000
REMARK  2 active torsions:
REMARK  status: ('A' for Active; 'I' for Inactive)
REMARK    1  A    between atoms: C4_6  and  C5_7 
REMARK    2  A    between atoms: C12_15  and  C13_16 
ROOT
HETATM    1  N1  UNL     1      18.106   3.641  51.767  1.00  0.00    -0.191 NA
HETATM    2  C1  UNL     1      19.191   3.260  51.943  1.00  0.00     0.110 C 
HETATM    3  C2  UNL     1      20.545   2.781  52.159  1.00  0.00     0.125 C 
HETATM    4  C3  UNL     1      21.549   3.828  52.235  1.00  0.00     0.110 C 
HETATM    5  N2  UNL     1      22.336   4.672  52.286  1.00  0.00    -0.191 NA
HETATM    6  C4  UNL     1      20.831   1.494  52.273  1.00  0.00     0.045 C 
ENDROOT
BRANCH   6   7
HETATM    7  C5  UNL     1      22.186   1.011  52.488  1.00  0.00    -0.034 A 
HETATM    8  C6  UNL     1      23.327   1.218  51.747  1.00  0.00     0.012 A 
HETATM    9  C7  UNL     1      24.517   0.644  52.130  1.00  0.00     0.011 A 
HETATM   10  C8  UNL     1      24.680  -0.153  53.237  1.00  0.00    -0.013 A 
HETATM   11  C9  UNL     1      23.495  -0.342  53.970  1.00  0.00    -0.021 A 
HETATM   12  C12 UNL     1      25.749  -0.903  53.918  1.00  0.00     0.283 C 
HETATM   13  C10 UNL     1      22.283   0.209  53.628  1.00  0.00     0.021 A 
HETATM   14  C11 UNL     1      23.897  -1.236  55.115  1.00  0.00     0.310 C 
HETATM   15  N3  UNL     1      25.299  -0.812  55.307  1.00  0.00     0.100 N 
HETATM   16  H7  UNL     1      25.234   0.235  55.487  1.00  0.00     0.317 HD
BRANCH  12  17
HETATM   17  C13 UNL     1      27.110  -0.410  53.739  1.00  0.00    -0.039 C 
HETATM   18  C14 UNL     1      27.530   0.765  54.221  1.00  0.00     0.006 C 
HETATM   19  C15 UNL     1      28.901   1.250  54.036  1.00  0.00     0.012 C 
HETATM   20  C16 UNL     1      29.815   0.346  53.718  1.00  0.00    -0.030 C 
HETATM   21  C17 UNL     1      29.476  -0.919  53.787  1.00  0.00    -0.010 C 
HETATM   22  C18 UNL     1      28.196  -1.120  53.012  1.00  0.00     0.064 C 
ENDBRANCH  12  17
ENDBRANCH   6   7
TORSDOF 2
ENDMDL
MODEL 2
REMARK VINA RESULT:      -8.6      2.147      7.206
REMARK  2 active torsions:
REMARK  status: ('A' for Active; 'I' for Inactive)
REMARK    1  A    between atoms: C4_6  and  C5_7 
REMARK    2  A    between atoms: C12_15  and  C13_16 
ROOT
HETATM    1  N1  UNL     1      30.152  -1.125  53.763  1.00  0.00    -0.191 NA
HETATM    2  C1  UNL     1      29.086  -0.672  53.666  1.00  0.00     0.110 C 
HETATM    3  C2  UNL     1      27.752  -0.109  53.547  1.00  0.00     0.125 C 
HETATM    4  C3  UNL     1      27.665   1.305  53.868  1.00  0.00     0.110 C 
HETATM    5  N2  UNL     1      27.611   2.428  54.134  1.00  0.00    -0.191 NA
HETATM    6  C4  UNL     1      26.708  -0.833  53.178  1.00  0.00     0.045 C 
ENDROOT
BRANCH   6   7
HETATM    7  C5  UNL     1      25.371  -0.273  53.059  1.00  0.00    -0.034 A 
HETATM    8  C6  UNL     1      24.896   0.715  52.228  1.00  0.00     0.012 A 
HETATM    9  C7  UNL     1      23.579   1.106  52.295  1.00  0.00     0.011 A 
HETATM   10  C8  UNL     1      22.649   0.575  53.156  1.00  0.00    -0.013 A 
HETATM   11  C9  UNL     1      23.169  -0.432  53.989  1.00  0.00    -0.021 A 
HETATM   12  C12 UNL     1      21.225   0.742  53.493  1.00  0.00     0.283 C 
HETATM   13  C10 UNL     1      24.476  -0.856  53.960  1.00  0.00     0.021 A 
HETATM   14  C11 UNL     1      21.999  -0.859  54.839  1.00  0.00     0.310 C 
HETATM   15  N3  UNL     1      20.884  -0.622  53.900  1.00  0.00     0.100 N 
HETATM   16  H7  UNL     1      21.128  -1.212  53.049  1.00  0.00     0.317 HD
BRANCH  12  17
HETATM   17  C13 UNL     1      20.357   1.241  52.433  1.00  0.00    -0.039 C 
HETATM   18  C14 UNL     1      20.064   2.538  52.278  1.00  0.00     0.006 C 
HETATM   19  C15 UNL     1      19.191   3.028  51.208  1.00  0.00     0.012 C 
HETATM   20  C16 UNL     1      19.004   2.221  50.175  1.00  0.00    -0.030 C 
HETATM   21  C17 UNL     1      19.754   1.149  50.090  1.00  0.00    -0.010 C 
HETATM   22  C18 UNL     1      19.686   0.405  51.402  1.00  0.00     0.064 C 
ENDBRANCH  12  17
ENDBRANCH   6   7
TORSDOF 2
ENDMDL
MODEL 3
REMARK VINA RESULT:      -8.5      1.578      1.972
REMARK  2 active torsions:
REMARK  status: ('A' for Active; 'I' for Inactive)
REMARK    1  A    between atoms: C4_6  and  C5_7 
REMARK    2  A    between atoms: C12_15  and  C13_16 
ROOT
HETATM    1  N1  UNL     1      19.085   4.378  50.126  1.00  0.00    -0.191 NA
HETATM    2  C1  UNL     1      20.003   3.704  50.359  1.00  0.00     0.110 C 
HETATM    3  C2  UNL     1      21.150   2.862  50.656  1.00  0.00     0.125 C 
HETATM    4  C3  UNL     1      21.414   1.835  49.663  1.00  0.00     0.110 C 
HETATM    5  N2  UNL     1      21.607   1.019  48.869  1.00  0.00    -0.191 NA
HETATM    6  C4  UNL     1      21.884   3.023  51.745  1.00  0.00     0.045 C 
ENDROOT
BRANCH   6   7
HETATM    7  C5  UNL     1      23.030   2.181  52.046  1.00  0.00    -0.034 A 
HETATM    8  C6  UNL     1      24.315   2.226  51.554  1.00  0.00     0.012 A 
HETATM    9  C7  UNL     1      25.251   1.309  51.971  1.00  0.00     0.011 A 
HETATM   10  C8  UNL     1      25.011   0.304  52.877  1.00  0.00    -0.013 A 
HETATM   11  C9  UNL     1      23.690   0.288  53.359  1.00  0.00    -0.021 A 
HETATM   12  C12 UNL     1      25.733  -0.806  53.521  1.00  0.00     0.283 C 
HETATM   13  C10 UNL     1      22.720   1.183  52.972  1.00  0.00     0.021 A 
HETATM   14  C11 UNL     1      23.651  -0.876  54.315  1.00  0.00     0.310 C 
HETATM   15  N3  UNL     1      25.042  -0.865  54.810  1.00  0.00     0.100 N 
HETATM   16  H7  UNL     1      25.170   0.112  55.213  1.00  0.00     0.317 HD
BRANCH  12  17
HETATM   17  C13 UNL     1      27.176  -0.650  53.668  1.00  0.00    -0.039 C 
HETATM   18  C14 UNL     1      28.064  -1.419  53.027  1.00  0.00     0.006 C 
HETATM   19  C15 UNL     1      29.511  -1.251  53.182  1.00  0.00     0.012 C 
HETATM   20  C16 UNL     1      29.928  -0.091  53.665  1.00  0.00    -0.030 C 
HETATM   21  C17 UNL     1      29.051   0.877  53.779  1.00  0.00    -0.010 C 
HETATM   22  C18 UNL     1      27.850   0.357  54.531  1.00  0.00     0.064 C 
ENDBRANCH  12  17
ENDBRANCH   6   7
TORSDOF 2
ENDMDL
MODEL 4
REMARK VINA RESULT:      -8.3      2.532      7.731
REMARK  2 active torsions:
REMARK  status: ('A' for Active; 'I' for Inactive)
REMARK    1  A    between atoms: C4_6  and  C5_7 
REMARK    2  A    between atoms: C12_15  and  C13_16 
ROOT
HETATM    1  N1  UNL     1      29.416   0.653  54.303  1.00  0.00    -0.191 NA
HETATM    2  C1  UNL     1      28.336   0.395  53.954  1.00  0.00     0.110 C 
HETATM    3  C2  UNL     1      26.987   0.079  53.518  1.00  0.00     0.125 C 
HETATM    4  C3  UNL     1      26.867  -1.182  52.805  1.00  0.00     0.110 C 
HETATM    5  N2  UNL     1      26.788  -2.182  52.233  1.00  0.00    -0.191 NA
HETATM    6  C4  UNL     1      25.960   0.879  53.752  1.00  0.00     0.045 C 
ENDROOT
BRANCH   6   7
HETATM    7  C5  UNL     1      24.609   0.566  53.315  1.00  0.00    -0.034 A 
HETATM    8  C6  UNL     1      23.727  -0.383  53.780  1.00  0.00     0.012 A 
HETATM    9  C7  UNL     1      22.487  -0.519  53.201  1.00  0.00     0.011 A 
HETATM   10  C8  UNL     1      22.024   0.240  52.154  1.00  0.00    -0.013 A 
HETATM   11  C9  UNL     1      22.951   1.199  51.706  1.00  0.00    -0.021 A 
HETATM   12  C12 UNL     1      20.817   0.365  51.320  1.00  0.00     0.283 C 
HETATM   13  C10 UNL     1      24.202   1.373  52.251  1.00  0.00     0.021 A 
HETATM   14  C11 UNL     1      22.251   1.900  50.571  1.00  0.00     0.310 C 
HETATM   15  N3  UNL     1      20.847   1.796  51.016  1.00  0.00     0.100 N 
HETATM   16  H7  UNL     1      20.840   2.261  51.973  1.00  0.00     0.317 HD
BRANCH  12  17
HETATM   17  C13 UNL     1      19.558  -0.050  51.927  1.00  0.00    -0.039 C 
HETATM   18  C14 UNL     1      18.402  -0.096  51.254  1.00  0.00     0.006 C 
HETATM   19  C15 UNL     1      17.143  -0.517  51.873  1.00  0.00     0.012 C 
HETATM   20  C16 UNL     1      17.235  -1.211  52.998  1.00  0.00    -0.030 C 
HETATM   21  C17 UNL     1      18.421  -1.635  53.361  1.00  0.00    -0.010 C 
HETATM   22  C18 UNL     1      19.379  -0.469  53.343  1.00  0.00     0.064 C 
ENDBRANCH  12  17
ENDBRANCH   6   7
TORSDOF 2
ENDMDL
MODEL 5
REMARK VINA RESULT:      -8.2      1.981      2.536
REMARK  2 active torsions:
REMARK  status: ('A' for Active; 'I' for Inactive)
REMARK    1  A    between atoms: C4_6  and  C5_7 
REMARK    2  A    between atoms: C12_15  and  C13_16 
ROOT
HETATM    1  N1  UNL     1      17.489   1.071  50.808  1.00  0.00    -0.191 NA
HETATM    2  C1  UNL     1      18.624   0.973  51.039  1.00  0.00     0.110 C 
HETATM    3  C2  UNL     1      20.042   0.848  51.331  1.00  0.00     0.125 C 
HETATM    4  C3  UNL     1      20.912   1.052  50.185  1.00  0.00     0.110 C 
HETATM    5  N2  UNL     1      21.590   1.209  49.264  1.00  0.00    -0.191 NA
HETATM    6  C4  UNL     1      20.494   0.567  52.542  1.00  0.00     0.045 C 
ENDROOT
BRANCH   6   7
HETATM    7  C5  UNL     1      21.912   0.439  52.837  1.00  0.00    -0.034 A 
HETATM    8  C6  UNL     1      22.656  -0.679  53.137  1.00  0.00     0.012 A 
HETATM    9  C7  UNL     1      24.001  -0.568  53.400  1.00  0.00     0.011 A 
HETATM   10  C8  UNL     1      24.705   0.612  53.392  1.00  0.00    -0.013 A 
HETATM   11  C9  UNL     1      23.913   1.733  53.082  1.00  0.00    -0.021 A 
HETATM   12  C12 UNL     1      26.080   1.087  53.619  1.00  0.00     0.283 C 
HETATM   13  C10 UNL     1      22.567   1.673  52.811  1.00  0.00     0.021 A 
HETATM   14  C11 UNL     1      24.870   2.897  53.134  1.00  0.00     0.310 C 
HETATM   15  N3  UNL     1      26.121   2.235  52.713  1.00  0.00     0.100 N 
HETATM   16  H7  UNL     1      25.890   1.819  51.761  1.00  0.00     0.317 HD
BRANCH  12  17
HETATM   17  C13 UNL     1      27.152   0.133  53.361  1.00  0.00    -0.039 C 
HETATM   18  C14 UNL     1      28.270   0.073  54.094  1.00  0.00     0.006 C 
HETATM   19  C15 UNL     1      29.340  -0.891  53.825  1.00  0.00     0.012 C 
HETATM   20  C16 UNL     1      29.021  -1.946  53.092  1.00  0.00    -0.030 C 
HETATM   21  C17 UNL     1      27.752  -2.152  52.832  1.00  0.00    -0.010 C 
HETATM   22  C18 UNL     1      27.160  -0.881  52.273  1.00  0.00     0.064 C 
ENDBRANCH  12  17
ENDBRANCH   6   7
TORSDOF 2
ENDMDL
MODEL 6
REMARK VINA RESULT:      -8.1      2.663      7.465
REMARK  2 active torsions:
REMARK  status: ('A' for Active; 'I' for Inactive)
REMARK    1  A    between atoms: C4_6  and  C5_7 
REMARK    2  A    between atoms: C12_15  and  C13_16 
ROOT
HETATM    1  N1  UNL     1      29.301   2.482  54.233  1.00  0.00    -0.191 NA
HETATM    2  C1  UNL     1      28.253   2.275  53.773  1.00  0.00     0.110 C 
HETATM    3  C2  UNL     1      26.942   2.018  53.203  1.00  0.00     0.125 C 
HETATM    4  C3  UNL     1      26.843   2.287  51.778  1.00  0.00     0.110 C 
HETATM    5  N2  UNL     1      26.778   2.512  50.647  1.00  0.00    -0.191 NA
HETATM    6  C4  UNL     1      25.927   1.579  53.929  1.00  0.00     0.045 C 
ENDROOT
BRANCH   6   7
HETATM    7  C5  UNL     1      24.613   1.323  53.362  1.00  0.00    -0.034 A 
HETATM    8  C6  UNL     1      23.986   0.130  53.085  1.00  0.00     0.012 A 
HETATM    9  C7  UNL     1      22.730   0.119  52.526  1.00  0.00     0.011 A 
HETATM   10  C8  UNL     1      22.007   1.243  52.204  1.00  0.00    -0.013 A 
HETATM   11  C9  UNL     1      22.678   2.443  52.502  1.00  0.00    -0.021 A 
HETATM   12  C12 UNL     1      20.702   1.594  51.619  1.00  0.00     0.283 C 
HETATM   13  C10 UNL     1      23.933   2.505  53.059  1.00  0.00     0.021 A 
HETATM   14  C11 UNL     1      21.723   3.526  52.069  1.00  0.00     0.310 C 
HETATM   15  N3  UNL     1      20.429   2.855  52.310  1.00  0.00     0.100 N 
HETATM   16  H7  UNL     1      20.457   2.593  53.341  1.00  0.00     0.317 HD
BRANCH  12  17
HETATM   17  C13 UNL     1      19.628   0.623  51.786  1.00  0.00    -0.039 C 
HETATM   18  C14 UNL     1      19.462  -0.100  52.900  1.00  0.00     0.006 C 
HETATM   19  C15 UNL     1      18.378  -1.072  53.057  1.00  0.00     0.012 C 
HETATM   20  C16 UNL     1      17.346  -0.952  52.235  1.00  0.00    -0.030 C 
HETATM   21  C17 UNL     1      17.277   0.125  51.491  1.00  0.00    -0.010 C 
HETATM   22  C18 UNL     1      18.591   0.300  50.769  1.00  0.00     0.064 C 
ENDBRANCH  12  17
ENDBRANCH   6   7
TORSDOF 2
ENDMDL
MODEL 7
REMARK VINA RESULT:      -8.0      2.100      3.298
REMARK  2 active torsions:
REMARK  status: ('A' for Active; 'I' for Inactive)
REMARK    1  A    between atoms: C4_6  and  C5_7 
REMARK    2  A    between atoms: C12_15  and  C13_16 
ROOT
HETATM    1  N1  UNL     1      14.941   2.097  50.525  1.00  0.00    -0.191 NA
HETATM    2  C1  UNL     1      16.054   1.921  50.813  1.00  0.00     0.110 C 
HETATM    3  C2  UNL     1      17.445   1.698  51.169  1.00  0.00     0.125 C 
HETATM    4  C3  UNL     1      18.179   2.904  51.511  1.00  0.00     0.110 C 
HETATM    5  N2  UNL     1      18.750   3.873  51.773  1.00  0.00    -0.191 NA
HETATM    6  C4  UNL     1      17.990   0.492  51.176  1.00  0.00     0.045 C 
ENDROOT
BRANCH   6   7
HETATM    7  C5  UNL     1      19.382   0.266  51.531  1.00  0.00    -0.034 A 
HETATM    8  C6  UNL     1      20.528   0.494  50.804  1.00  0.00     0.012 A 
HETATM    9  C7  UNL     1      21.759   0.188  51.336  1.00  0.00     0.011 A 
HETATM   10  C8  UNL     1      21.960  -0.349  52.584  1.00  0.00    -0.013 A 
HETATM   11  C9  UNL     1      20.768  -0.568  53.297  1.00  0.00    -0.021 A 
HETATM   12  C12 UNL     1      23.077  -0.788  53.437  1.00  0.00     0.283 C 
HETATM   13  C10 UNL     1      19.515  -0.279  52.809  1.00  0.00     0.021 A 
HETATM   14  C11 UNL     1      21.217  -1.157  54.610  1.00  0.00     0.310 C 
HETATM   15  N3  UNL     1      22.531  -0.501  54.764  1.00  0.00     0.100 N 
HETATM   16  H7  UNL     1      22.310   0.540  54.730  1.00  0.00     0.317 HD
BRANCH  12  17
HETATM   17  C13 UNL     1      24.365  -0.142  53.213  1.00  0.00    -0.039 C 
HETATM   18  C14 UNL     1      25.507  -0.821  53.059  1.00  0.00     0.006 C 
HETATM   19  C15 UNL     1      26.795  -0.161  52.832  1.00  0.00     0.012 C 
HETATM   20  C16 UNL     1      26.755   1.092  52.403  1.00  0.00    -0.030 C 
HETATM   21  C17 UNL     1      25.595   1.575  52.029  1.00  0.00    -0.010 C 
HETATM   22  C18 UNL     1      24.589   1.326  53.127  1.00  0.00     0.064 C 
ENDBRANCH  12  17
ENDBRANCH   6   7
TORSDOF 2
ENDMDL
MODEL 8
REMARK VINA RESULT:      -7.9      2.811      7.464
REMARK  2 active torsions:
REMARK  status: ('A' for Active; 'I' for Inactive)
REMARK    1  A    between atoms: C4_6  and  C5_7 
REMARK    2  A    between atoms: C12_15  and  C13_16 
ROOT
HETATM    1  N1  UNL     1      28.992  -3.109  53.468  1.00  0.00    -0.191 NA
HETATM    2  C1  UNL     1      28.466  -2.083  53.318  1.00  0.00     0.110 C 
HETATM    3  C2  UNL     1      27.806  -0.803  53.129  1.00  0.00     0.125 C 
HETATM    4  C3  UNL     1      28.194   0.221  54.085  1.00  0.00     0.110 C 
HETATM    5  N2  UNL     1      28.508   1.021  54.856  1.00  0.00    -0.191 NA
HETATM    6  C4  UNL     1      26.923  -0.596  52.166  1.00  0.00     0.045 C 
ENDROOT
BRANCH   6   7
HETATM    7  C5  UNL     1      26.259   0.684  51.976  1.00  0.00    -0.034 A 
HETATM    8  C6  UNL     1      26.734   1.855  51.432  1.00  0.00     0.012 A 
HETATM    9  C7  UNL     1      25.927   2.966  51.363  1.00  0.00     0.011 A 
HETATM   10  C8  UNL     1      24.628   3.018  51.808  1.00  0.00    -0.013 A 
HETATM   11  C9  UNL     1      24.176   1.804  52.356  1.00  0.00    -0.021 A 
HETATM   12  C12 UNL     1      23.521   3.986  51.896  1.00  0.00     0.283 C 
HETATM   13  C10 UNL     1      24.944   0.668  52.447  1.00  0.00     0.021 A 
HETATM   14  C11 UNL     1      22.756   2.086  52.777  1.00  0.00     0.310 C 
HETATM   15  N3  UNL     1      22.370   3.091  51.767  1.00  0.00     0.100 N 
HETATM   16  H7  UNL     1      22.530   2.602  50.836  1.00  0.00     0.317 HD
BRANCH  12  17
HETATM   17  C13 UNL     1      23.509   5.057  50.906  1.00  0.00    -0.039 C 
HETATM   18  C14 UNL     1      23.139   4.872  49.634  1.00  0.00     0.006 C 
HETATM   19  C15 UNL     1      23.129   5.956  48.648  1.00  0.00     0.012 C 
HETATM   20  C16 UNL     1      23.127   7.192  49.122  1.00  0.00    -0.030 C 
HETATM   21  C17 UNL     1      22.934   7.355  50.409  1.00  0.00    -0.010 C 
HETATM   22  C18 UNL     1      23.900   6.470  51.159  1.00  0.00     0.064 C 
ENDBRANCH  12  17
ENDBRANCH   6   7
TORSDOF 2
ENDMDL
MODEL 9
REMARK VINA RESULT:      -7.7      3.284      4.287
REMARK  2 active torsions:
REMARK  status: ('A' for Active; 'I' for Inactive)
REMARK    1  A    between atoms: C4_6  and  C5_7 
REMARK    2  A    between atoms: C12_15  and  C13_16 
ROOT
HETATM    1  N1  UNL     1      22.508   8.247  47.456  1.00  0.00    -0.191 NA
HETATM    2  C1  UNL     1      23.035   7.455  48.125  1.00  0.00     0.110 C 
HETATM    3  C2  UNL     1      23.696   6.464  48.957  1.00  0.00     0.125 C 
HETATM    4  C3  UNL     1      24.088   6.946  50.270  1.00  0.00     0.110 C 
HETATM    5  N2  UNL     1      24.401   7.346  51.307  1.00  0.00    -0.191 NA
HETATM    6  C4  UNL     1      23.920   5.227  48.543  1.00  0.00     0.045 C 
ENDROOT
BRANCH   6   7
HETATM    7  C5  UNL     1      24.583   4.234  49.372  1.00  0.00    -0.034 A 
HETATM    8  C6  UNL     1      25.925   3.991  49.559  1.00  0.00     0.012 A 
HETATM    9  C7  UNL     1      26.337   2.975  50.390  1.00  0.00     0.011 A 
HETATM   10  C8  UNL     1      25.493   2.141  51.083  1.00  0.00    -0.013 A 
HETATM   11  C9  UNL     1      24.131   2.418  50.868  1.00  0.00    -0.021 A 
HETATM   12  C12 UNL     1      25.574   1.001  52.012  1.00  0.00     0.283 C 
HETATM   13  C10 UNL     1      23.671   3.421  50.048  1.00  0.00     0.021 A 
HETATM   14  C11 UNL     1      23.402   1.399  51.704  1.00  0.00     0.310 C 
HETATM   15  N3  UNL     1      24.365   1.217  52.808  1.00  0.00     0.100 N 
HETATM   16  H7  UNL     1      24.494   2.194  53.208  1.00  0.00     0.317 HD
BRANCH  12  17
HETATM   17  C13 UNL     1      26.775   0.912  52.834  1.00  0.00    -0.039 C 
HETATM   18  C14 UNL     1      27.603  -0.138  52.808  1.00  0.00     0.006 C 
HETATM   19  C15 UNL     1      28.808  -0.216  53.638  1.00  0.00     0.012 C 
HETATM   20  C16 UNL     1      29.268   0.925  54.129  1.00  0.00    -0.030 C 
HETATM   21  C17 UNL     1      28.742   2.040  53.684  1.00  0.00    -0.010 C 
HETATM   22  C18 UNL     1      27.239   1.946  53.798  1.00  0.00     0.064 C 
ENDBRANCH  12  17
ENDBRANCH   6   7
TORSDOF 2
ENDMDL
