MODEL 1
REMARK VINA RESULT:     -10.3      0.000      0.000
REMARK  1 active torsions:
REMARK  status: ('A' for Active; 'I' for Inactive)
REMARK    1  A    between atoms: C2_2  and  C3_3 
ROOT
HETATM    1  C3  UNL     1      22.128   3.487  50.860  1.00  0.00     0.170 C 
HETATM    2  C4  UNL     1      22.045   2.031  50.591  1.00  0.00     0.157 C 
HETATM    3  N1  UNL     1      22.544   1.211  51.670  1.00  0.00    -0.373 N 
HETATM    4  C5  UNL     1      23.989   1.446  51.623  1.00  0.00     0.162 C 
HETATM    5  C6  UNL     1      24.597   0.850  52.830  1.00  0.00    -0.023 C 
HETATM    6  C7  UNL     1      25.849   1.181  53.065  1.00  0.00     0.084 C 
HETATM    7  C8  UNL     1      26.809   2.029  52.387  1.00  0.00     0.245 C 
HETATM    8  O1  UNL     1      27.955   2.429  52.520  1.00  0.00    -0.268 OA
HETATM    9  N2  UNL     1      26.726   2.753  51.219  1.00  0.00    -0.334 N 
HETATM   10  C9  UNL     1      26.640   3.497  50.020  1.00  0.00     0.092 C 
HETATM   11  C10 UNL     1      25.784   4.480  49.897  1.00  0.00     0.031 C 
HETATM   12  C11 UNL     1      25.116   5.558  49.211  1.00  0.00    -0.006 A 
HETATM   13  C12 UNL     1      26.078   6.249  48.548  1.00  0.00     0.014 A 
HETATM   14  C13 UNL     1      25.748   7.310  47.725  1.00  0.00     0.001 A 
HETATM   15  C14 UNL     1      24.440   7.675  47.574  1.00  0.00     0.002 A 
HETATM   16  C15 UNL     1      23.517   6.932  48.279  1.00  0.00     0.032 A 
HETATM   17  C16 UNL     1      23.780   5.863  49.116  1.00  0.00     0.067 A 
HETATM   18  N3  UNL     1      22.571   5.376  49.690  1.00  0.00    -0.262 N 
HETATM   19  C17 UNL     1      21.988   6.444  50.521  1.00  0.00     0.186 C 
HETATM   20  O2  UNL     1      21.735   4.283  49.770  1.00  0.00    -0.271 OA
HETATM   21  C18 UNL     1      23.580   0.057  53.445  1.00  0.00    -0.002 A 
HETATM   22  C19 UNL     1      23.594  -0.801  54.510  1.00  0.00     0.014 A 
HETATM   23  C20 UNL     1      22.399  -1.402  54.838  1.00  0.00     0.001 A 
HETATM   24  C21 UNL     1      21.224  -1.150  54.119  1.00  0.00     0.002 A 
HETATM   25  C22 UNL     1      21.222  -0.270  53.031  1.00  0.00     0.030 A 
HETATM   26  C23 UNL     1      22.437   0.300  52.749  1.00  0.00     0.041 A 
HETATM   27  H12 UNL     1      25.940   2.400  50.702  1.00  0.00     0.168 HD
ENDROOT
BRANCH   1  28
HETATM   28  C2  UNL     1      21.221   3.768  52.075  1.00  0.00     0.032 C 
HETATM   29  C1  UNL     1      19.777   3.576  51.834  1.00  0.00     0.007 C 
ENDBRANCH   1  28
TORSDOF 1
ENDMDL
MODEL 2
REMARK VINA RESULT:     -10.1      1.652      6.676
REMARK  1 active torsions:
REMARK  status: ('A' for Active; 'I' for Inactive)
REMARK    1  A    between atoms: C2_2  and  C3_3 
ROOT
HETATM    1  C3  UNL     1      21.984   3.119  50.434  1.00  0.00     0.170 C 
HETATM    2  C4  UNL     1      22.718   4.295  50.960  1.00  0.00     0.157 C 
HETATM    3  N1  UNL     1      24.077   4.393  50.483  1.00  0.00    -0.373 N 
HETATM    4  C5  UNL     1      24.748   3.287  51.169  1.00  0.00     0.162 C 
HETATM    5  C6  UNL     1      26.096   3.125  50.586  1.00  0.00    -0.023 C 
HETATM    6  C7  UNL     1      26.738   2.025  50.918  1.00  0.00     0.084 C 
HETATM    7  C8  UNL     1      26.415   0.888  51.758  1.00  0.00     0.245 C 
HETATM    8  O1  UNL     1      26.900  -0.176  52.109  1.00  0.00    -0.268 OA
HETATM    9  N2  UNL     1      25.314   0.607  52.534  1.00  0.00    -0.334 N 
HETATM   10  C9  UNL     1      24.182   0.318  53.330  1.00  0.00     0.092 C 
HETATM   11  C10 UNL     1      22.999   0.168  52.790  1.00  0.00     0.031 C 
HETATM   12  C11 UNL     1      21.577  -0.077  52.792  1.00  0.00    -0.006 A 
HETATM   13  C12 UNL     1      21.364  -1.101  53.657  1.00  0.00     0.014 A 
HETATM   14  C13 UNL     1      20.082  -1.531  53.944  1.00  0.00     0.001 A 
HETATM   15  C14 UNL     1      19.011  -0.923  53.352  1.00  0.00     0.002 A 
HETATM   16  C15 UNL     1      19.301   0.108  52.482  1.00  0.00     0.032 A 
HETATM   17  C16 UNL     1      20.556   0.584  52.154  1.00  0.00     0.067 A 
HETATM   18  N3  UNL     1      20.452   1.633  51.196  1.00  0.00    -0.262 N 
HETATM   19  C17 UNL     1      19.861   1.081  49.965  1.00  0.00     0.186 C 
HETATM   20  O2  UNL     1      20.695   2.972  50.978  1.00  0.00    -0.271 OA
HETATM   21  C18 UNL     1      26.317   4.268  49.758  1.00  0.00    -0.002 A 
HETATM   22  C19 UNL     1      27.410   4.712  49.067  1.00  0.00     0.014 A 
HETATM   23  C20 UNL     1      27.260   5.879  48.350  1.00  0.00     0.001 A 
HETATM   24  C21 UNL     1      26.048   6.581  48.327  1.00  0.00     0.002 A 
HETATM   25  C22 UNL     1      24.936   6.116  49.039  1.00  0.00     0.030 A 
HETATM   26  C23 UNL     1      25.141   4.952  49.734  1.00  0.00     0.041 A 
HETATM   27  H12 UNL     1      24.814   1.468  52.670  1.00  0.00     0.168 HD
ENDROOT
BRANCH   1  28
HETATM   28  C2  UNL     1      21.897   3.294  48.905  1.00  0.00     0.032 C 
HETATM   29  C1  UNL     1      22.669   2.313  48.118  1.00  0.00     0.007 C 
ENDBRANCH   1  28
TORSDOF 1
ENDMDL
MODEL 3
REMARK VINA RESULT:      -9.3      1.527      6.838
REMARK  1 active torsions:
REMARK  status: ('A' for Active; 'I' for Inactive)
REMARK    1  A    between atoms: C2_2  and  C3_3 
ROOT
HETATM    1  C3  UNL     1      21.161   3.914  51.730  1.00  0.00     0.170 C 
HETATM    2  C4  UNL     1      21.718   5.213  52.177  1.00  0.00     0.157 C 
HETATM    3  N1  UNL     1      22.639   5.805  51.236  1.00  0.00    -0.373 N 
HETATM    4  C5  UNL     1      23.809   4.929  51.323  1.00  0.00     0.162 C 
HETATM    5  C6  UNL     1      24.740   5.285  50.231  1.00  0.00    -0.023 C 
HETATM    6  C7  UNL     1      25.724   4.438  50.017  1.00  0.00     0.084 C 
HETATM    7  C8  UNL     1      26.123   3.185  50.628  1.00  0.00     0.245 C 
HETATM    8  O1  UNL     1      26.972   2.317  50.500  1.00  0.00    -0.268 OA
HETATM    9  N2  UNL     1      25.605   2.479  51.689  1.00  0.00    -0.334 N 
HETATM   10  C9  UNL     1      25.072   1.753  52.779  1.00  0.00     0.092 C 
HETATM   11  C10 UNL     1      23.857   1.267  52.735  1.00  0.00     0.031 C 
HETATM   12  C11 UNL     1      22.708   0.560  53.246  1.00  0.00    -0.006 A 
HETATM   13  C12 UNL     1      23.182  -0.553  53.861  1.00  0.00     0.014 A 
HETATM   14  C13 UNL     1      22.328  -1.413  54.526  1.00  0.00     0.001 A 
HETATM   15  C14 UNL     1      20.988  -1.147  54.567  1.00  0.00     0.002 A 
HETATM   16  C15 UNL     1      20.576  -0.002  53.918  1.00  0.00     0.032 A 
HETATM   17  C16 UNL     1      21.376   0.896  53.237  1.00  0.00     0.067 A 
HETATM   18  N3  UNL     1      20.582   1.935  52.672  1.00  0.00    -0.262 N 
HETATM   19  C17 UNL     1      19.667   1.335  51.685  1.00  0.00     0.186 C 
HETATM   20  O2  UNL     1      20.343   3.292  52.691  1.00  0.00    -0.271 OA
HETATM   21  C18 UNL     1      24.258   6.508  49.673  1.00  0.00    -0.002 A 
HETATM   22  C19 UNL     1      24.765   7.356  48.728  1.00  0.00     0.014 A 
HETATM   23  C20 UNL     1      24.010   8.467  48.421  1.00  0.00     0.001 A 
HETATM   24  C21 UNL     1      22.782   8.720  49.045  1.00  0.00     0.002 A 
HETATM   25  C22 UNL     1      22.273   7.845  50.012  1.00  0.00     0.030 A 
HETATM   26  C23 UNL     1      23.065   6.757  50.277  1.00  0.00     0.041 A 
HETATM   27  H12 UNL     1      25.016   3.105  52.208  1.00  0.00     0.168 HD
ENDROOT
BRANCH   1  28
HETATM   28  C2  UNL     1      20.353   4.193  50.448  1.00  0.00     0.032 C 
HETATM   29  C1  UNL     1      20.951   3.667  49.205  1.00  0.00     0.007 C 
ENDBRANCH   1  28
TORSDOF 1
ENDMDL
MODEL 4
REMARK VINA RESULT:      -8.9      1.434      1.945
REMARK  1 active torsions:
REMARK  status: ('A' for Active; 'I' for Inactive)
REMARK    1  A    between atoms: C2_2  and  C3_3 
ROOT
HETATM    1  C3  UNL     1      21.453   3.687  49.840  1.00  0.00     0.170 C 
HETATM    2  C4  UNL     1      21.161   2.275  49.495  1.00  0.00     0.157 C 
HETATM    3  N1  UNL     1      21.054   1.406  50.643  1.00  0.00    -0.373 N 
HETATM    4  C5  UNL     1      22.435   1.321  51.123  1.00  0.00     0.162 C 
HETATM    5  C6  UNL     1      22.430   0.652  52.440  1.00  0.00    -0.023 C 
HETATM    6  C7  UNL     1      23.555   0.713  53.120  1.00  0.00     0.084 C 
HETATM    7  C8  UNL     1      24.852   1.309  52.866  1.00  0.00     0.245 C 
HETATM    8  O1  UNL     1      25.932   1.456  53.416  1.00  0.00    -0.268 OA
HETATM    9  N2  UNL     1      25.348   1.991  51.778  1.00  0.00    -0.334 N 
HETATM   10  C9  UNL     1      25.857   2.692  50.661  1.00  0.00     0.092 C 
HETATM   11  C10 UNL     1      25.334   3.832  50.286  1.00  0.00     0.031 C 
HETATM   12  C11 UNL     1      25.202   5.004  49.455  1.00  0.00    -0.006 A 
HETATM   13  C12 UNL     1      26.461   5.446  49.209  1.00  0.00     0.014 A 
HETATM   14  C13 UNL     1      26.683   6.524  48.371  1.00  0.00     0.001 A 
HETATM   15  C14 UNL     1      25.625   7.156  47.780  1.00  0.00     0.002 A 
HETATM   16  C15 UNL     1      24.375   6.656  48.077  1.00  0.00     0.032 A 
HETATM   17  C16 UNL     1      24.087   5.587  48.904  1.00  0.00     0.067 A 
HETATM   18  N3  UNL     1      22.678   5.393  48.989  1.00  0.00    -0.262 N 
HETATM   19  C17 UNL     1      22.081   6.591  49.604  1.00  0.00     0.186 C 
HETATM   20  O2  UNL     1      21.655   4.510  48.717  1.00  0.00    -0.271 OA
HETATM   21  C18 UNL     1      21.116   0.120  52.618  1.00  0.00    -0.002 A 
HETATM   22  C19 UNL     1      20.564  -0.682  53.578  1.00  0.00     0.014 A 
HETATM   23  C20 UNL     1      19.232  -0.998  53.433  1.00  0.00     0.001 A 
HETATM   24  C21 UNL     1      18.474  -0.525  52.355  1.00  0.00     0.002 A 
HETATM   25  C22 UNL     1      19.049   0.296  51.378  1.00  0.00     0.030 A 
HETATM   26  C23 UNL     1      20.377   0.579  51.572  1.00  0.00     0.041 A 
HETATM   27  H12 UNL     1      24.742   1.798  51.000  1.00  0.00     0.168 HD
ENDROOT
BRANCH   1  28
HETATM   28  C2  UNL     1      20.255   4.201  50.663  1.00  0.00     0.032 C 
HETATM   29  C1  UNL     1      18.986   4.315  49.917  1.00  0.00     0.007 C 
ENDBRANCH   1  28
TORSDOF 1
ENDMDL
MODEL 5
REMARK VINA RESULT:      -8.9      2.232      5.415
REMARK  1 active torsions:
REMARK  status: ('A' for Active; 'I' for Inactive)
REMARK    1  A    between atoms: C2_2  and  C3_3 
ROOT
HETATM    1  C3  UNL     1      23.662   3.492  51.112  1.00  0.00     0.170 C 
HETATM    2  C4  UNL     1      24.437   3.666  52.363  1.00  0.00     0.157 C 
HETATM    3  N1  UNL     1      25.127   2.472  52.791  1.00  0.00    -0.373 N 
HETATM    4  C5  UNL     1      24.036   1.600  53.230  1.00  0.00     0.162 C 
HETATM    5  C6  UNL     1      24.586   0.249  53.471  1.00  0.00    -0.023 C 
HETATM    6  C7  UNL     1      23.702  -0.711  53.634  1.00  0.00     0.084 C 
HETATM    7  C8  UNL     1      22.252  -0.753  53.634  1.00  0.00     0.245 C 
HETATM    8  O1  UNL     1      21.346  -1.564  53.740  1.00  0.00    -0.268 OA
HETATM    9  N2  UNL     1      21.308   0.239  53.496  1.00  0.00    -0.334 N 
HETATM   10  C9  UNL     1      20.339   1.257  53.354  1.00  0.00     0.092 C 
HETATM   11  C10 UNL     1      20.252   1.955  52.250  1.00  0.00     0.031 C 
HETATM   12  C11 UNL     1      19.713   2.972  51.380  1.00  0.00    -0.006 A 
HETATM   13  C12 UNL     1      18.362   2.907  51.501  1.00  0.00     0.014 A 
HETATM   14  C13 UNL     1      17.547   3.810  50.844  1.00  0.00     0.001 A 
HETATM   15  C14 UNL     1      18.101   4.783  50.060  1.00  0.00     0.002 A 
HETATM   16  C15 UNL     1      19.478   4.788  49.980  1.00  0.00     0.032 A 
HETATM   17  C16 UNL     1      20.346   3.915  50.609  1.00  0.00     0.067 A 
HETATM   18  N3  UNL     1      21.693   4.218  50.255  1.00  0.00    -0.262 N 
HETATM   19  C17 UNL     1      21.849   4.015  48.804  1.00  0.00     0.186 C 
HETATM   20  O2  UNL     1      22.911   4.626  50.753  1.00  0.00    -0.271 OA
HETATM   21  C18 UNL     1      26.008   0.380  53.428  1.00  0.00    -0.002 A 
HETATM   22  C19 UNL     1      27.026  -0.495  53.687  1.00  0.00     0.014 A 
HETATM   23  C20 UNL     1      28.309  -0.020  53.533  1.00  0.00     0.001 A 
HETATM   24  C21 UNL     1      28.565   1.297  53.130  1.00  0.00     0.002 A 
HETATM   25  C22 UNL     1      27.515   2.184  52.868  1.00  0.00     0.030 A 
HETATM   26  C23 UNL     1      26.260   1.659  53.036  1.00  0.00     0.041 A 
HETATM   27  H12 UNL     1      21.767   1.116  53.663  1.00  0.00     0.168 HD
ENDROOT
BRANCH   1  28
HETATM   28  C2  UNL     1      24.676   3.155  50.002  1.00  0.00     0.032 C 
HETATM   29  C1  UNL     1      25.597   4.252  49.642  1.00  0.00     0.007 C 
ENDBRANCH   1  28
TORSDOF 1
ENDMDL
MODEL 6
REMARK VINA RESULT:      -8.8      1.920      6.765
REMARK  1 active torsions:
REMARK  status: ('A' for Active; 'I' for Inactive)
REMARK    1  A    between atoms: C2_2  and  C3_3 
ROOT
HETATM    1  C3  UNL     1      22.206   4.531  48.701  1.00  0.00     0.170 C 
HETATM    2  C4  UNL     1      22.850   5.705  49.337  1.00  0.00     0.157 C 
HETATM    3  N1  UNL     1      24.278   5.765  49.136  1.00  0.00    -0.373 N 
HETATM    4  C5  UNL     1      24.775   4.663  49.962  1.00  0.00     0.162 C 
HETATM    5  C6  UNL     1      26.207   4.461  49.659  1.00  0.00    -0.023 C 
HETATM    6  C7  UNL     1      26.744   3.357  50.132  1.00  0.00     0.084 C 
HETATM    7  C8  UNL     1      26.236   2.247  50.915  1.00  0.00     0.245 C 
HETATM    8  O1  UNL     1      26.617   1.182  51.375  1.00  0.00    -0.268 OA
HETATM    9  N2  UNL     1      24.998   2.006  51.464  1.00  0.00    -0.334 N 
HETATM   10  C9  UNL     1      23.725   1.758  52.027  1.00  0.00     0.092 C 
HETATM   11  C10 UNL     1      22.668   1.619  51.268  1.00  0.00     0.031 C 
HETATM   12  C11 UNL     1      21.268   1.402  50.995  1.00  0.00    -0.006 A 
HETATM   13  C12 UNL     1      20.864   0.403  51.821  1.00  0.00     0.014 A 
HETATM   14  C13 UNL     1      19.541   0.005  51.858  1.00  0.00     0.001 A 
HETATM   15  C14 UNL     1      18.622   0.619  51.055  1.00  0.00     0.002 A 
HETATM   16  C15 UNL     1      19.102   1.623  50.240  1.00  0.00     0.032 A 
HETATM   17  C16 UNL     1      20.408   2.066  50.155  1.00  0.00     0.067 A 
HETATM   18  N3  UNL     1      20.518   3.094  49.175  1.00  0.00    -0.262 N 
HETATM   19  C17 UNL     1      20.168   2.524  47.863  1.00  0.00     0.186 C 
HETATM   20  O2  UNL     1      20.832   4.422  48.983  1.00  0.00    -0.271 OA
HETATM   21  C18 UNL     1      26.613   5.579  48.868  1.00  0.00    -0.002 A 
HETATM   22  C19 UNL     1      27.831   5.985  48.397  1.00  0.00     0.014 A 
HETATM   23  C20 UNL     1      27.852   7.137  47.642  1.00  0.00     0.001 A 
HETATM   24  C21 UNL     1      26.686   7.861  47.367  1.00  0.00     0.002 A 
HETATM   25  C22 UNL     1      25.444   7.436  47.855  1.00  0.00     0.030 A 
HETATM   26  C23 UNL     1      25.481   6.285  48.600  1.00  0.00     0.041 A 
HETATM   27  H12 UNL     1      24.502   2.879  51.482  1.00  0.00     0.168 HD
ENDROOT
BRANCH   1  28
HETATM   28  C2  UNL     1      22.424   4.671  47.182  1.00  0.00     0.032 C 
HETATM   29  C1  UNL     1      21.860   5.895  46.579  1.00  0.00     0.007 C 
ENDBRANCH   1  28
TORSDOF 1
ENDMDL
MODEL 7
REMARK VINA RESULT:      -8.7      2.658      6.137
REMARK  1 active torsions:
REMARK  status: ('A' for Active; 'I' for Inactive)
REMARK    1  A    between atoms: C2_2  and  C3_3 
ROOT
HETATM    1  C3  UNL     1      23.242  -0.334  53.306  1.00  0.00     0.170 C 
HETATM    2  C4  UNL     1      24.489  -0.916  52.754  1.00  0.00     0.157 C 
HETATM    3  N1  UNL     1      25.629  -0.035  52.839  1.00  0.00    -0.373 N 
HETATM    4  C5  UNL     1      25.318   1.005  51.855  1.00  0.00     0.162 C 
HETATM    5  C6  UNL     1      26.295   2.102  52.011  1.00  0.00    -0.023 C 
HETATM    6  C7  UNL     1      26.012   3.218  51.373  1.00  0.00     0.084 C 
HETATM    7  C8  UNL     1      24.920   3.637  50.516  1.00  0.00     0.245 C 
HETATM    8  O1  UNL     1      24.541   4.626  49.909  1.00  0.00    -0.268 OA
HETATM    9  N2  UNL     1      23.813   2.965  50.050  1.00  0.00    -0.334 N 
HETATM   10  C9  UNL     1      22.675   2.275  49.573  1.00  0.00     0.092 C 
HETATM   11  C10 UNL     1      21.766   1.823  50.399  1.00  0.00     0.031 C 
HETATM   12  C11 UNL     1      20.544   1.147  50.763  1.00  0.00    -0.006 A 
HETATM   13  C12 UNL     1      19.604   1.540  49.867  1.00  0.00     0.014 A 
HETATM   14  C13 UNL     1      18.328   1.007  49.898  1.00  0.00     0.001 A 
HETATM   15  C14 UNL     1      18.003   0.072  50.840  1.00  0.00     0.002 A 
HETATM   16  C15 UNL     1      19.007  -0.279  51.719  1.00  0.00     0.032 A 
HETATM   17  C16 UNL     1      20.297   0.216  51.742  1.00  0.00     0.067 A 
HETATM   18  N3  UNL     1      21.029  -0.363  52.818  1.00  0.00    -0.262 N 
HETATM   19  C17 UNL     1      20.388   0.037  54.083  1.00  0.00     0.186 C 
HETATM   20  O2  UNL     1      22.113  -1.154  53.131  1.00  0.00    -0.271 OA
HETATM   21  C18 UNL     1      27.314   1.614  52.885  1.00  0.00    -0.002 A 
HETATM   22  C19 UNL     1      28.510   2.136  53.293  1.00  0.00     0.014 A 
HETATM   23  C20 UNL     1      29.253   1.375  54.169  1.00  0.00     0.001 A 
HETATM   24  C21 UNL     1      28.810   0.126  54.621  1.00  0.00     0.002 A 
HETATM   25  C22 UNL     1      27.583  -0.398  54.195  1.00  0.00     0.030 A 
HETATM   26  C23 UNL     1      26.886   0.400  53.326  1.00  0.00     0.041 A 
HETATM   27  H12 UNL     1      23.984   1.983  50.172  1.00  0.00     0.168 HD
ENDROOT
BRANCH   1  28
HETATM   28  C2  UNL     1      23.491  -0.090  54.808  1.00  0.00     0.032 C 
HETATM   29  C1  UNL     1      23.574  -1.310  55.634  1.00  0.00     0.007 C 
ENDBRANCH   1  28
TORSDOF 1
ENDMDL
MODEL 8
REMARK VINA RESULT:      -8.7      1.445      4.199
REMARK  1 active torsions:
REMARK  status: ('A' for Active; 'I' for Inactive)
REMARK    1  A    between atoms: C2_2  and  C3_3 
ROOT
HETATM    1  C3  UNL     1      24.899   2.500  51.667  1.00  0.00     0.170 C 
HETATM    2  C4  UNL     1      24.220   2.530  52.985  1.00  0.00     0.157 C 
HETATM    3  N1  UNL     1      23.094   1.633  53.079  1.00  0.00    -0.373 N 
HETATM    4  C5  UNL     1      22.096   2.262  52.211  1.00  0.00     0.162 C 
HETATM    5  C6  UNL     1      20.974   1.317  52.029  1.00  0.00    -0.023 C 
HETATM    6  C7  UNL     1      20.111   1.626  51.085  1.00  0.00     0.084 C 
HETATM    7  C8  UNL     1      20.000   2.724  50.144  1.00  0.00     0.245 C 
HETATM    8  O1  UNL     1      19.284   3.094  49.227  1.00  0.00    -0.268 OA
HETATM    9  N2  UNL     1      20.768   3.851  49.959  1.00  0.00    -0.334 N 
HETATM   10  C9  UNL     1      21.557   5.008  49.767  1.00  0.00     0.092 C 
HETATM   11  C10 UNL     1      22.812   4.915  49.408  1.00  0.00     0.031 C 
HETATM   12  C11 UNL     1      24.118   5.421  49.059  1.00  0.00    -0.006 A 
HETATM   13  C12 UNL     1      23.913   6.485  48.242  1.00  0.00     0.014 A 
HETATM   14  C13 UNL     1      24.976   7.245  47.788  1.00  0.00     0.001 A 
HETATM   15  C14 UNL     1      26.251   6.925  48.162  1.00  0.00     0.002 A 
HETATM   16  C15 UNL     1      26.384   5.830  48.990  1.00  0.00     0.032 A 
HETATM   17  C16 UNL     1      25.367   5.032  49.477  1.00  0.00     0.067 A 
HETATM   18  N3  UNL     1      25.903   3.980  50.273  1.00  0.00    -0.262 N 
HETATM   19  C17 UNL     1      26.747   3.131  49.415  1.00  0.00     0.186 C 
HETATM   20  O2  UNL     1      25.932   3.447  51.544  1.00  0.00    -0.271 OA
HETATM   21  C18 UNL     1      21.178   0.263  52.971  1.00  0.00    -0.002 A 
HETATM   22  C19 UNL     1      20.416  -0.813  53.333  1.00  0.00     0.014 A 
HETATM   23  C20 UNL     1      20.940  -1.650  54.294  1.00  0.00     0.001 A 
HETATM   24  C21 UNL     1      22.192  -1.414  54.875  1.00  0.00     0.002 A 
HETATM   25  C22 UNL     1      22.963  -0.308  54.496  1.00  0.00     0.030 A 
HETATM   26  C23 UNL     1      22.394   0.490  53.537  1.00  0.00     0.041 A 
HETATM   27  H12 UNL     1      21.323   3.976  50.786  1.00  0.00     0.168 HD
ENDROOT
BRANCH   1  28
HETATM   28  C2  UNL     1      25.461   1.076  51.487  1.00  0.00     0.032 C 
HETATM   29  C1  UNL     1      26.604   0.741  52.360  1.00  0.00     0.007 C 
ENDBRANCH   1  28
TORSDOF 1
ENDMDL
MODEL 9
REMARK VINA RESULT:      -8.6      2.930      5.873
REMARK  1 active torsions:
REMARK  status: ('A' for Active; 'I' for Inactive)
REMARK    1  A    between atoms: C2_2  and  C3_3 
ROOT
HETATM    1  C3  UNL     1      22.365  -0.003  53.344  1.00  0.00     0.170 C 
HETATM    2  C4  UNL     1      21.139   0.808  53.539  1.00  0.00     0.157 C 
HETATM    3  N1  UNL     1      20.180   0.679  52.468  1.00  0.00    -0.373 N 
HETATM    4  C5  UNL     1      20.830   1.377  51.356  1.00  0.00     0.162 C 
HETATM    5  C6  UNL     1      20.058   1.114  50.124  1.00  0.00    -0.023 C 
HETATM    6  C7  UNL     1      20.639   1.464  48.997  1.00  0.00     0.084 C 
HETATM    7  C8  UNL     1      21.914   2.073  48.669  1.00  0.00     0.245 C 
HETATM    8  O1  UNL     1      22.560   2.408  47.689  1.00  0.00    -0.268 OA
HETATM    9  N2  UNL     1      22.940   2.531  49.464  1.00  0.00    -0.334 N 
HETATM   10  C9  UNL     1      23.994   3.000  50.280  1.00  0.00     0.092 C 
HETATM   11  C10 UNL     1      24.660   2.183  51.056  1.00  0.00     0.031 C 
HETATM   12  C11 UNL     1      25.662   1.823  52.029  1.00  0.00    -0.006 A 
HETATM   13  C12 UNL     1      26.792   2.495  51.687  1.00  0.00     0.014 A 
HETATM   14  C13 UNL     1      27.926   2.421  52.474  1.00  0.00     0.001 A 
HETATM   15  C14 UNL     1      27.918   1.665  53.612  1.00  0.00     0.002 A 
HETATM   16  C15 UNL     1      26.739   1.008  53.896  1.00  0.00     0.032 A 
HETATM   17  C16 UNL     1      25.574   1.039  53.153  1.00  0.00     0.067 A 
HETATM   18  N3  UNL     1      24.585   0.206  53.750  1.00  0.00    -0.262 N 
HETATM   19  C17 UNL     1      25.074  -1.183  53.731  1.00  0.00     0.186 C 
HETATM   20  O2  UNL     1      23.339   0.201  54.338  1.00  0.00    -0.271 OA
HETATM   21  C18 UNL     1      18.840   0.494  50.537  1.00  0.00    -0.002 A 
HETATM   22  C19 UNL     1      17.709   0.134  49.858  1.00  0.00     0.014 A 
HETATM   23  C20 UNL     1      16.708  -0.465  50.591  1.00  0.00     0.001 A 
HETATM   24  C21 UNL     1      16.837  -0.695  51.966  1.00  0.00     0.002 A 
HETATM   25  C22 UNL     1      17.999  -0.321  52.651  1.00  0.00     0.030 A 
HETATM   26  C23 UNL     1      18.962   0.269  51.873  1.00  0.00     0.041 A 
HETATM   27  H12 UNL     1      22.575   2.640  50.393  1.00  0.00     0.168 HD
ENDROOT
BRANCH   1  28
HETATM   28  C2  UNL     1      21.925  -1.480  53.330  1.00  0.00     0.032 C 
HETATM   29  C1  UNL     1      21.339  -1.970  54.593  1.00  0.00     0.007 C 
ENDBRANCH   1  28
TORSDOF 1
ENDMDL
