MODEL 1
REMARK VINA RESULT:      -8.4      0.000      0.000
REMARK  4 active torsions:
REMARK  status: ('A' for Active; 'I' for Inactive)
REMARK    1  A    between atoms: C7_8  and  O1_9 
REMARK    2  A    between atoms: O1_9  and  C8_10 
REMARK    3  A    between atoms: C12_16  and  O2_17 
REMARK    4  A    between atoms: C14_19  and  O3_20 
ROOT
HETATM    1  C8  UNL     1      23.965  -0.426  53.581  1.00  0.00     0.183 A 
HETATM    2  N1  UNL     1      24.280  -0.968  54.753  1.00  0.00    -0.217 NA
HETATM    3  C9  UNL     1      23.347  -1.418  55.592  1.00  0.00     0.236 A 
HETATM    4  N2  UNL     1      22.033  -1.318  55.235  1.00  0.00    -0.241 NA
HETATM    5  C10 UNL     1      21.679  -0.777  54.061  1.00  0.00     0.075 A 
HETATM    6  C11 UNL     1      20.361  -0.654  53.653  1.00  0.00     0.072 A 
HETATM    7  C12 UNL     1      20.055  -0.085  52.424  1.00  0.00     0.103 A 
HETATM    8  C14 UNL     1      21.028   0.380  51.558  1.00  0.00     0.102 A 
HETATM    9  C16 UNL     1      22.338   0.252  51.975  1.00  0.00     0.057 A 
HETATM   10  C17 UNL     1      22.645  -0.312  53.194  1.00  0.00     0.049 A 
ENDROOT
BRANCH   1  11
HETATM   11  O1  UNL     1      24.924   0.031  52.729  1.00  0.00    -0.291 OA
BRANCH  11  12
HETATM   12  C7  UNL     1      26.230   0.335  53.007  1.00  0.00     0.085 A 
HETATM   13  C2  UNL     1      27.305  -0.530  52.990  1.00  0.00    -0.006 A 
HETATM   14  C1  UNL     1      27.030  -1.927  52.637  1.00  0.00     0.053 C 
HETATM   15  C3  UNL     1      28.529  -0.010  53.302  1.00  0.00     0.042 A 
HETATM   16 CL1  UNL     1      29.907  -1.099  53.284  1.00  0.00    -0.084 Cl
HETATM   17  C4  UNL     1      28.741   1.312  53.628  1.00  0.00     0.024 A 
HETATM   18  C5  UNL     1      27.682   2.160  53.644  1.00  0.00     0.004 A 
HETATM   19  C6  UNL     1      26.413   1.679  53.333  1.00  0.00     0.038 A 
ENDBRANCH  11  12
ENDBRANCH   1  11
BRANCH   8  20
HETATM   20  O3  UNL     1      20.573   0.925  50.365  1.00  0.00    -0.353 OA
HETATM   21  C15 UNL     1      21.362   1.010  49.201  1.00  0.00     0.210 C 
ENDBRANCH   8  20
BRANCH   7  22
HETATM   22  O2  UNL     1      18.716  -0.002  52.101  1.00  0.00    -0.353 OA
HETATM   23  C13 UNL     1      17.797  -0.905  52.680  1.00  0.00     0.210 C 
ENDBRANCH   7  22
TORSDOF 4
ENDMDL
MODEL 2
REMARK VINA RESULT:      -7.9      2.236      3.255
REMARK  4 active torsions:
REMARK  status: ('A' for Active; 'I' for Inactive)
REMARK    1  A    between atoms: C7_8  and  O1_9 
REMARK    2  A    between atoms: O1_9  and  C8_10 
REMARK    3  A    between atoms: C12_16  and  O2_17 
REMARK    4  A    between atoms: C14_19  and  O3_20 
ROOT
HETATM    1  C8  UNL     1      24.865   1.848  52.166  1.00  0.00     0.183 A 
HETATM    2  N1  UNL     1      25.441   2.670  51.294  1.00  0.00    -0.217 NA
HETATM    3  C9  UNL     1      24.813   3.074  50.190  1.00  0.00     0.236 A 
HETATM    4  N2  UNL     1      23.543   2.632  49.952  1.00  0.00    -0.241 NA
HETATM    5  C10 UNL     1      22.932   1.803  50.809  1.00  0.00     0.075 A 
HETATM    6  C11 UNL     1      21.646   1.327  50.613  1.00  0.00     0.072 A 
HETATM    7  C12 UNL     1      21.063   0.470  51.537  1.00  0.00     0.103 A 
HETATM    8  C14 UNL     1      21.721   0.054  52.681  1.00  0.00     0.102 A 
HETATM    9  C16 UNL     1      23.001   0.534  52.866  1.00  0.00     0.057 A 
HETATM   10  C17 UNL     1      23.583   1.385  51.951  1.00  0.00     0.049 A 
ENDROOT
BRANCH   1  11
HETATM   11  O1  UNL     1      25.513   1.439  53.292  1.00  0.00    -0.291 OA
BRANCH  11  12
HETATM   12  C7  UNL     1      26.811   1.021  53.419  1.00  0.00     0.085 A 
HETATM   13  C2  UNL     1      27.291  -0.261  53.249  1.00  0.00    -0.006 A 
HETATM   14  C1  UNL     1      26.313  -1.296  52.894  1.00  0.00     0.053 C 
HETATM   15  C3  UNL     1      28.631  -0.454  53.426  1.00  0.00     0.042 A 
HETATM   16 CL1  UNL     1      29.256  -2.083  53.213  1.00  0.00    -0.084 Cl
HETATM   17  C4  UNL     1      29.514   0.549  53.761  1.00  0.00     0.024 A 
HETATM   18  C5  UNL     1      29.039   1.810  53.927  1.00  0.00     0.004 A 
HETATM   19  C6  UNL     1      27.680   2.058  53.757  1.00  0.00     0.038 A 
ENDBRANCH  11  12
ENDBRANCH   1  11
BRANCH   8  20
HETATM   20  O3  UNL     1      21.014  -0.803  53.513  1.00  0.00    -0.353 OA
HETATM   21  C15 UNL     1      21.630  -1.674  54.433  1.00  0.00     0.210 C 
ENDBRANCH   8  20
BRANCH   7  22
HETATM   22  O2  UNL     1      19.781   0.046  51.259  1.00  0.00    -0.353 OA
HETATM   23  C13 UNL     1      18.724   0.981  51.224  1.00  0.00     0.210 C 
ENDBRANCH   7  22
TORSDOF 4
ENDMDL
MODEL 3
REMARK VINA RESULT:      -7.8      3.498      7.332
REMARK  4 active torsions:
REMARK  status: ('A' for Active; 'I' for Inactive)
REMARK    1  A    between atoms: C7_8  and  O1_9 
REMARK    2  A    between atoms: O1_9  and  C8_10 
REMARK    3  A    between atoms: C12_16  and  O2_17 
REMARK    4  A    between atoms: C14_19  and  O3_20 
ROOT
HETATM    1  C8  UNL     1      22.879   1.687  52.097  1.00  0.00     0.183 A 
HETATM    2  N1  UNL     1      22.401   2.920  51.961  1.00  0.00    -0.217 NA
HETATM    3  C9  UNL     1      23.051   3.981  52.438  1.00  0.00     0.236 A 
HETATM    4  N2  UNL     1      24.240   3.795  53.082  1.00  0.00    -0.241 NA
HETATM    5  C10 UNL     1      24.752   2.566  53.237  1.00  0.00     0.075 A 
HETATM    6  C11 UNL     1      25.954   2.324  53.882  1.00  0.00     0.072 A 
HETATM    7  C12 UNL     1      26.435   1.028  54.012  1.00  0.00     0.103 A 
HETATM    8  C14 UNL     1      25.755  -0.070  53.515  1.00  0.00     0.102 A 
HETATM    9  C16 UNL     1      24.559   0.183  52.875  1.00  0.00     0.057 A 
HETATM   10  C17 UNL     1      24.078   1.468  52.744  1.00  0.00     0.049 A 
ENDROOT
BRANCH   1  11
HETATM   11  O1  UNL     1      22.209   0.607  51.608  1.00  0.00    -0.291 OA
BRANCH  11  12
HETATM   12  C7  UNL     1      20.897   0.263  51.802  1.00  0.00     0.085 A 
HETATM   13  C2  UNL     1      19.850   0.461  50.927  1.00  0.00    -0.006 A 
HETATM   14  C1  UNL     1      20.163   1.109  49.648  1.00  0.00     0.053 C 
HETATM   15  C3  UNL     1      18.614   0.037  51.327  1.00  0.00     0.042 A 
HETATM   16 CL1  UNL     1      17.270   0.283  50.223  1.00  0.00    -0.084 Cl
HETATM   17  C4  UNL     1      18.365  -0.567  52.541  1.00  0.00     0.024 A 
HETATM   18  C5  UNL     1      19.399  -0.760  53.399  1.00  0.00     0.004 A 
HETATM   19  C6  UNL     1      20.678  -0.346  53.037  1.00  0.00     0.038 A 
ENDBRANCH  11  12
ENDBRANCH   1  11
BRANCH   8  20
HETATM   20  O3  UNL     1      26.357  -1.303  53.720  1.00  0.00    -0.353 OA
HETATM   21  C15 UNL     1      27.077  -1.989  52.723  1.00  0.00     0.210 C 
ENDBRANCH   8  20
BRANCH   7  22
HETATM   22  O2  UNL     1      27.639   0.883  54.669  1.00  0.00    -0.353 OA
HETATM   23  C13 UNL     1      28.844   1.200  54.006  1.00  0.00     0.210 C 
ENDBRANCH   7  22
TORSDOF 4
ENDMDL
MODEL 4
REMARK VINA RESULT:      -7.6      3.558      7.151
REMARK  4 active torsions:
REMARK  status: ('A' for Active; 'I' for Inactive)
REMARK    1  A    between atoms: C7_8  and  O1_9 
REMARK    2  A    between atoms: O1_9  and  C8_10 
REMARK    3  A    between atoms: C12_16  and  O2_17 
REMARK    4  A    between atoms: C14_19  and  O3_20 
ROOT
HETATM    1  C8  UNL     1      24.398   2.396  51.915  1.00  0.00     0.183 A 
HETATM    2  N1  UNL     1      24.783   3.278  50.997  1.00  0.00    -0.217 NA
HETATM    3  C9  UNL     1      26.052   3.369  50.600  1.00  0.00     0.236 A 
HETATM    4  N2  UNL     1      26.980   2.533  51.150  1.00  0.00    -0.241 NA
HETATM    5  C10 UNL     1      26.628   1.631  52.077  1.00  0.00     0.075 A 
HETATM    6  C11 UNL     1      27.531   0.761  52.664  1.00  0.00     0.072 A 
HETATM    7  C12 UNL     1      27.108  -0.154  53.620  1.00  0.00     0.103 A 
HETATM    8  C14 UNL     1      25.789  -0.244  54.029  1.00  0.00     0.102 A 
HETATM    9  C16 UNL     1      24.898   0.629  53.437  1.00  0.00     0.057 A 
HETATM   10  C17 UNL     1      25.315   1.538  52.488  1.00  0.00     0.049 A 
ENDROOT
BRANCH   1  11
HETATM   11  O1  UNL     1      23.101   2.308  52.316  1.00  0.00    -0.291 OA
BRANCH  11  12
HETATM   12  C7  UNL     1      22.047   1.729  51.660  1.00  0.00     0.085 A 
HETATM   13  C2  UNL     1      21.014   1.009  52.223  1.00  0.00    -0.006 A 
HETATM   14  C1  UNL     1      21.036   0.839  53.681  1.00  0.00     0.053 C 
HETATM   15  C3  UNL     1      20.061   0.517  51.376  1.00  0.00     0.042 A 
HETATM   16 CL1  UNL     1      18.740  -0.402  52.079  1.00  0.00    -0.084 Cl
HETATM   17  C4  UNL     1      20.080   0.701  50.011  1.00  0.00     0.024 A 
HETATM   18  C5  UNL     1      21.098   1.410  49.460  1.00  0.00     0.004 A 
HETATM   19  C6  UNL     1      22.093   1.932  50.281  1.00  0.00     0.038 A 
ENDBRANCH  11  12
ENDBRANCH   1  11
BRANCH   8  20
HETATM   20  O3  UNL     1      25.513  -1.204  54.991  1.00  0.00    -0.353 OA
HETATM   21  C15 UNL     1      24.276  -1.302  55.658  1.00  0.00     0.210 C 
ENDBRANCH   8  20
BRANCH   7  22
HETATM   22  O2  UNL     1      28.076  -0.980  54.151  1.00  0.00    -0.353 OA
HETATM   23  C13 UNL     1      29.438  -0.739  53.868  1.00  0.00     0.210 C 
ENDBRANCH   7  22
TORSDOF 4
ENDMDL
MODEL 5
REMARK VINA RESULT:      -7.6      4.371      5.472
REMARK  4 active torsions:
REMARK  status: ('A' for Active; 'I' for Inactive)
REMARK    1  A    between atoms: C7_8  and  O1_9 
REMARK    2  A    between atoms: O1_9  and  C8_10 
REMARK    3  A    between atoms: C12_16  and  O2_17 
REMARK    4  A    between atoms: C14_19  and  O3_20 
ROOT
HETATM    1  C8  UNL     1      25.965   2.461  51.123  1.00  0.00     0.183 A 
HETATM    2  N1  UNL     1      27.184   2.485  51.653  1.00  0.00    -0.217 NA
HETATM    3  C9  UNL     1      27.482   1.802  52.758  1.00  0.00     0.236 A 
HETATM    4  N2  UNL     1      26.509   1.059  53.360  1.00  0.00    -0.241 NA
HETATM    5  C10 UNL     1      25.269   1.011  52.854  1.00  0.00     0.075 A 
HETATM    6  C11 UNL     1      24.247   0.273  53.427  1.00  0.00     0.072 A 
HETATM    7  C12 UNL     1      22.981   0.261  52.856  1.00  0.00     0.103 A 
HETATM    8  C14 UNL     1      22.677   0.972  51.709  1.00  0.00     0.102 A 
HETATM    9  C16 UNL     1      23.703   1.705  51.147  1.00  0.00     0.057 A 
HETATM   10  C17 UNL     1      24.960   1.719  51.710  1.00  0.00     0.049 A 
ENDROOT
BRANCH   1  11
HETATM   11  O1  UNL     1      25.667   3.161  49.994  1.00  0.00    -0.291 OA
BRANCH  11  12
HETATM   12  C7  UNL     1      26.029   4.442  49.669  1.00  0.00     0.085 A 
HETATM   13  C2  UNL     1      25.384   5.604  50.037  1.00  0.00    -0.006 A 
HETATM   14  C1  UNL     1      24.181   5.466  50.866  1.00  0.00     0.053 C 
HETATM   15  C3  UNL     1      25.922   6.781  49.599  1.00  0.00     0.042 A 
HETATM   16 CL1  UNL     1      25.111   8.270  50.060  1.00  0.00    -0.084 Cl
HETATM   17  C4  UNL     1      27.056   6.864  48.821  1.00  0.00     0.024 A 
HETATM   18  C5  UNL     1      27.688   5.718  48.461  1.00  0.00     0.004 A 
HETATM   19  C6  UNL     1      27.179   4.493  48.883  1.00  0.00     0.038 A 
ENDBRANCH  11  12
ENDBRANCH   1  11
BRANCH   8  20
HETATM   20  O3  UNL     1      21.370   0.866  51.254  1.00  0.00    -0.353 OA
HETATM   21  C15 UNL     1      21.009   0.984  49.898  1.00  0.00     0.210 C 
ENDBRANCH   8  20
BRANCH   7  22
HETATM   22  O2  UNL     1      22.026  -0.502  53.495  1.00  0.00    -0.353 OA
HETATM   23  C13 UNL     1      22.259  -0.965  54.808  1.00  0.00     0.210 C 
ENDBRANCH   7  22
TORSDOF 4
ENDMDL
MODEL 6
REMARK VINA RESULT:      -7.4      4.008      7.368
REMARK  4 active torsions:
REMARK  status: ('A' for Active; 'I' for Inactive)
REMARK    1  A    between atoms: C7_8  and  O1_9 
REMARK    2  A    between atoms: O1_9  and  C8_10 
REMARK    3  A    between atoms: C12_16  and  O2_17 
REMARK    4  A    between atoms: C14_19  and  O3_20 
ROOT
HETATM    1  C8  UNL     1      24.392   1.862  51.249  1.00  0.00     0.183 A 
HETATM    2  N1  UNL     1      24.753   2.794  50.372  1.00  0.00    -0.217 NA
HETATM    3  C9  UNL     1      26.010   3.230  50.291  1.00  0.00     0.236 A 
HETATM    4  N2  UNL     1      26.949   2.704  51.130  1.00  0.00    -0.241 NA
HETATM    5  C10 UNL     1      26.620   1.763  52.026  1.00  0.00     0.075 A 
HETATM    6  C11 UNL     1      27.535   1.199  52.899  1.00  0.00     0.072 A 
HETATM    7  C12 UNL     1      27.136   0.227  53.807  1.00  0.00     0.103 A 
HETATM    8  C14 UNL     1      25.830  -0.222  53.887  1.00  0.00     0.102 A 
HETATM    9  C16 UNL     1      24.927   0.348  53.012  1.00  0.00     0.057 A 
HETATM   10  C17 UNL     1      25.319   1.313  52.111  1.00  0.00     0.049 A 
ENDROOT
BRANCH   1  11
HETATM   11  O1  UNL     1      23.106   1.421  51.327  1.00  0.00    -0.291 OA
BRANCH  11  12
HETATM   12  C7  UNL     1      21.953   2.123  51.094  1.00  0.00     0.085 A 
HETATM   13  C2  UNL     1      21.130   2.024  49.991  1.00  0.00    -0.006 A 
HETATM   14  C1  UNL     1      21.523   1.067  48.950  1.00  0.00     0.053 C 
HETATM   15  C3  UNL     1      20.023   2.824  49.964  1.00  0.00     0.042 A 
HETATM   16 CL1  UNL     1      18.966   2.709  48.566  1.00  0.00    -0.084 Cl
HETATM   17  C4  UNL     1      19.692   3.710  50.966  1.00  0.00     0.024 A 
HETATM   18  C5  UNL     1      20.504   3.805  52.050  1.00  0.00     0.004 A 
HETATM   19  C6  UNL     1      21.644   3.011  52.124  1.00  0.00     0.038 A 
ENDBRANCH  11  12
ENDBRANCH   1  11
BRANCH   8  20
HETATM   20  O3  UNL     1      25.578  -1.197  54.842  1.00  0.00    -0.353 OA
HETATM   21  C15 UNL     1      24.366  -1.290  55.554  1.00  0.00     0.210 C 
ENDBRANCH   8  20
BRANCH   7  22
HETATM   22  O2  UNL     1      28.115  -0.278  54.637  1.00  0.00    -0.353 OA
HETATM   23  C13 UNL     1      29.383  -0.606  54.110  1.00  0.00     0.210 C 
ENDBRANCH   7  22
TORSDOF 4
ENDMDL
MODEL 7
REMARK VINA RESULT:      -7.4      3.017      4.430
REMARK  4 active torsions:
REMARK  status: ('A' for Active; 'I' for Inactive)
REMARK    1  A    between atoms: C7_8  and  O1_9 
REMARK    2  A    between atoms: O1_9  and  C8_10 
REMARK    3  A    between atoms: C12_16  and  O2_17 
REMARK    4  A    between atoms: C14_19  and  O3_20 
ROOT
HETATM    1  C8  UNL     1      25.546   2.727  51.580  1.00  0.00     0.183 A 
HETATM    2  N1  UNL     1      26.456   3.210  50.739  1.00  0.00    -0.217 NA
HETATM    3  C9  UNL     1      26.108   3.838  49.615  1.00  0.00     0.236 A 
HETATM    4  N2  UNL     1      24.784   3.989  49.323  1.00  0.00    -0.241 NA
HETATM    5  C10 UNL     1      23.840   3.515  50.149  1.00  0.00     0.075 A 
HETATM    6  C11 UNL     1      22.484   3.643  49.898  1.00  0.00     0.072 A 
HETATM    7  C12 UNL     1      21.551   3.132  50.791  1.00  0.00     0.103 A 
HETATM    8  C14 UNL     1      21.918   2.481  51.956  1.00  0.00     0.102 A 
HETATM    9  C16 UNL     1      23.272   2.360  52.195  1.00  0.00     0.057 A 
HETATM   10  C17 UNL     1      24.200   2.865  51.311  1.00  0.00     0.049 A 
ENDROOT
BRANCH   1  11
HETATM   11  O1  UNL     1      25.908   2.087  52.726  1.00  0.00    -0.291 OA
BRANCH  11  12
HETATM   12  C7  UNL     1      26.688   0.969  52.863  1.00  0.00     0.085 A 
HETATM   13  C2  UNL     1      28.009   0.923  53.260  1.00  0.00    -0.006 A 
HETATM   14  C1  UNL     1      28.656   2.202  53.571  1.00  0.00     0.053 C 
HETATM   15  C3  UNL     1      28.597  -0.308  53.328  1.00  0.00     0.042 A 
HETATM   16 CL1  UNL     1      30.278  -0.383  53.832  1.00  0.00    -0.084 Cl
HETATM   17  C4  UNL     1      27.949  -1.486  53.025  1.00  0.00     0.024 A 
HETATM   18  C5  UNL     1      26.650  -1.437  52.636  1.00  0.00     0.004 A 
HETATM   19  C6  UNL     1      26.006  -0.206  52.550  1.00  0.00     0.038 A 
ENDBRANCH  11  12
ENDBRANCH   1  11
BRANCH   8  20
HETATM   20  O3  UNL     1      20.877   2.024  52.752  1.00  0.00    -0.353 OA
HETATM   21  C15 UNL     1      20.884   0.769  53.391  1.00  0.00     0.210 C 
ENDBRANCH   8  20
BRANCH   7  22
HETATM   22  O2  UNL     1      20.224   3.306  50.460  1.00  0.00    -0.353 OA
HETATM   23  C13 UNL     1      19.650   4.594  50.508  1.00  0.00     0.210 C 
ENDBRANCH   7  22
TORSDOF 4
ENDMDL
MODEL 8
REMARK VINA RESULT:      -7.3      4.452      6.345
REMARK  4 active torsions:
REMARK  status: ('A' for Active; 'I' for Inactive)
REMARK    1  A    between atoms: C7_8  and  O1_9 
REMARK    2  A    between atoms: O1_9  and  C8_10 
REMARK    3  A    between atoms: C12_16  and  O2_17 
REMARK    4  A    between atoms: C14_19  and  O3_20 
ROOT
HETATM    1  C8  UNL     1      23.848   3.201  51.410  1.00  0.00     0.183 A 
HETATM    2  N1  UNL     1      22.786   3.090  50.617  1.00  0.00    -0.217 NA
HETATM    3  C9  UNL     1      22.061   1.972  50.570  1.00  0.00     0.236 A 
HETATM    4  N2  UNL     1      22.419   0.916  51.356  1.00  0.00    -0.241 NA
HETATM    5  C10 UNL     1      23.484   0.994  52.167  1.00  0.00     0.075 A 
HETATM    6  C11 UNL     1      23.888  -0.049  52.984  1.00  0.00     0.072 A 
HETATM    7  C12 UNL     1      25.000   0.089  53.805  1.00  0.00     0.103 A 
HETATM    8  C14 UNL     1      25.749   1.252  53.850  1.00  0.00     0.102 A 
HETATM    9  C16 UNL     1      25.337   2.284  53.031  1.00  0.00     0.057 A 
HETATM   10  C17 UNL     1      24.234   2.150  52.216  1.00  0.00     0.049 A 
ENDROOT
BRANCH   1  11
HETATM   11  O1  UNL     1      24.584   4.346  51.454  1.00  0.00    -0.291 OA
BRANCH  11  12
HETATM   12  C7  UNL     1      25.389   4.874  50.480  1.00  0.00     0.085 A 
HETATM   13  C2  UNL     1      25.386   6.174  50.016  1.00  0.00    -0.006 A 
HETATM   14  C1  UNL     1      24.421   7.096  50.624  1.00  0.00     0.053 C 
HETATM   15  C3  UNL     1      26.280   6.487  49.032  1.00  0.00     0.042 A 
HETATM   16 CL1  UNL     1      26.287   8.138  48.430  1.00  0.00    -0.084 Cl
HETATM   17  C4  UNL     1      27.170   5.586  48.488  1.00  0.00     0.024 A 
HETATM   18  C5  UNL     1      27.171   4.309  48.947  1.00  0.00     0.004 A 
HETATM   19  C6  UNL     1      26.278   3.940  49.950  1.00  0.00     0.038 A 
ENDBRANCH  11  12
ENDBRANCH   1  11
BRANCH   8  20
HETATM   20  O3  UNL     1      26.833   1.245  54.717  1.00  0.00    -0.353 OA
HETATM   21  C15 UNL     1      28.147   0.941  54.312  1.00  0.00     0.210 C 
ENDBRANCH   8  20
BRANCH   7  22
HETATM   22  O2  UNL     1      25.328  -1.001  54.584  1.00  0.00    -0.353 OA
HETATM   23  C13 UNL     1      24.543  -1.321  55.712  1.00  0.00     0.210 C 
ENDBRANCH   7  22
TORSDOF 4
ENDMDL
MODEL 9
REMARK VINA RESULT:      -7.2      8.461     11.871
REMARK  4 active torsions:
REMARK  status: ('A' for Active; 'I' for Inactive)
REMARK    1  A    between atoms: C7_8  and  O1_9 
REMARK    2  A    between atoms: O1_9  and  C8_10 
REMARK    3  A    between atoms: C12_16  and  O2_17 
REMARK    4  A    between atoms: C14_19  and  O3_20 
ROOT
HETATM    1  C8  UNL     1      29.124   7.288  48.339  1.00  0.00     0.183 A 
HETATM    2  N1  UNL     1      28.812   8.499  48.792  1.00  0.00    -0.217 NA
HETATM    3  C9  UNL     1      29.724   9.295  49.350  1.00  0.00     0.236 A 
HETATM    4  N2  UNL     1      31.011   8.855  49.457  1.00  0.00    -0.241 NA
HETATM    5  C10 UNL     1      31.361   7.640  49.011  1.00  0.00     0.075 A 
HETATM    6  C11 UNL     1      32.653   7.148  49.097  1.00  0.00     0.072 A 
HETATM    7  C12 UNL     1      32.957   5.881  48.616  1.00  0.00     0.103 A 
HETATM    8  C14 UNL     1      32.006   5.058  48.038  1.00  0.00     0.102 A 
HETATM    9  C16 UNL     1      30.723   5.560  47.959  1.00  0.00     0.057 A 
HETATM   10  C17 UNL     1      30.417   6.816  48.435  1.00  0.00     0.049 A 
ENDROOT
BRANCH   1  11
HETATM   11  O1  UNL     1      28.188   6.480  47.771  1.00  0.00    -0.291 OA
BRANCH  11  12
HETATM   12  C7  UNL     1      27.135   5.845  48.375  1.00  0.00     0.085 A 
HETATM   13  C2  UNL     1      25.845   6.316  48.502  1.00  0.00    -0.006 A 
HETATM   14  C1  UNL     1      25.558   7.637  47.932  1.00  0.00     0.053 C 
HETATM   15  C3  UNL     1      24.948   5.512  49.146  1.00  0.00     0.042 A 
HETATM   16 CL1  UNL     1      23.300   6.099  49.316  1.00  0.00    -0.084 Cl
HETATM   17  C4  UNL     1      25.261   4.276  49.668  1.00  0.00     0.024 A 
HETATM   18  C5  UNL     1      26.532   3.816  49.541  1.00  0.00     0.004 A 
HETATM   19  C6  UNL     1      27.483   4.598  48.892  1.00  0.00     0.038 A 
ENDBRANCH  11  12
ENDBRANCH   1  11
BRANCH   8  20
HETATM   20  O3  UNL     1      32.455   3.819  47.604  1.00  0.00    -0.353 OA
HETATM   21  C15 UNL     1      32.439   3.418  46.254  1.00  0.00     0.210 C 
ENDBRANCH   8  20
BRANCH   7  22
HETATM   22  O2  UNL     1      34.268   5.474  48.744  1.00  0.00    -0.353 OA
HETATM   23  C13 UNL     1      35.312   6.417  48.627  1.00  0.00     0.210 C 
ENDBRANCH   7  22
TORSDOF 4
ENDMDL
