MODEL 1
REMARK VINA RESULT:      -7.0      0.000      0.000
REMARK  4 active torsions:
REMARK  status: ('A' for Active; 'I' for Inactive)
REMARK    1  A    between atoms: C2_2  and  C3_3 
REMARK    2  A    between atoms: C3_3  and  N1_4 
REMARK    3  A    between atoms: N1_4  and  C4_5 
REMARK    4  A    between atoms: C19_25  and  O2_26 
ROOT
HETATM    1  C4  UNL     1      21.303   0.789  52.233  1.00  0.00     0.105 C 
HETATM    2  N2  UNL     1      22.092  -0.148  52.684  1.00  0.00    -0.229 NA
HETATM    3  C5  UNL     1      23.242   0.186  53.399  1.00  0.00     0.234 C 
HETATM    4  N3  UNL     1      24.408   0.217  53.918  1.00  0.00    -0.254 NA
HETATM    5  C6  UNL     1      25.390  -0.770  53.679  1.00  0.00     0.116 C 
HETATM    6  C7  UNL     1      26.434  -1.149  52.976  1.00  0.00     0.018 C 
HETATM    7  C8  UNL     1      26.838  -0.155  51.939  1.00  0.00     0.196 C 
HETATM    8  O1  UNL     1      25.984   0.950  51.981  1.00  0.00    -0.387 OA
HETATM    9  C9  UNL     1      26.459   1.838  50.991  1.00  0.00     0.169 C 
HETATM   10  C10 UNL     1      25.609   3.090  50.960  1.00  0.00     0.046 C 
HETATM   11  C11 UNL     1      24.159   2.809  50.613  1.00  0.00     0.120 C 
HETATM   12  N4  UNL     1      23.435   4.013  50.671  1.00  0.00    -0.395 N 
HETATM   13  C12 UNL     1      24.136   5.186  50.272  1.00  0.00     0.137 C 
HETATM   14  C13 UNL     1      23.308   6.393  50.016  1.00  0.00     0.136 C 
HETATM   15  N5  UNL     1      22.163   6.454  50.849  1.00  0.00    -0.412 N 
HETATM   16  C14 UNL     1      21.383   7.642  50.738  1.00  0.00     0.143 C 
HETATM   17  C15 UNL     1      21.453   5.253  51.088  1.00  0.00     0.155 C 
HETATM   18  C16 UNL     1      22.058   4.026  50.430  1.00  0.00     0.097 A 
HETATM   19  C17 UNL     1      21.321   2.831  50.906  1.00  0.00    -0.042 A 
HETATM   20  C18 UNL     1      20.843   2.674  49.671  1.00  0.00     0.013 A 
HETATM   21  C19 UNL     1      21.527   3.851  49.071  1.00  0.00     0.178 A 
HETATM   22  C21 UNL     1      21.292   2.260  52.281  1.00  0.00     0.114 C 
ENDROOT
BRANCH   1  23
HETATM   23  N1  UNL     1      20.233   0.157  51.557  1.00  0.00    -0.374 N 
HETATM   24  H6  UNL     1      20.267  -0.127  50.533  1.00  0.00     0.161 HD
BRANCH  23  25
HETATM   25  C3  UNL     1      18.949  -0.177  52.176  1.00  0.00     0.147 C 
BRANCH  25  26
HETATM   26  C2  UNL     1      17.894  -0.160  51.135  1.00  0.00    -0.018 C 
HETATM   27  C1  UNL     1      17.789   0.547  50.008  1.00  0.00     0.008 C 
ENDBRANCH  25  26
ENDBRANCH  23  25
ENDBRANCH   1  23
BRANCH  21  28
HETATM   28  O2  UNL     1      22.371   3.460  48.046  1.00  0.00    -0.384 OA
HETATM   29  C20 UNL     1      22.167   4.418  47.026  1.00  0.00     0.202 C 
ENDBRANCH  21  28
TORSDOF 4
ENDMDL
MODEL 2
REMARK VINA RESULT:      -7.0      2.356      5.495
REMARK  4 active torsions:
REMARK  status: ('A' for Active; 'I' for Inactive)
REMARK    1  A    between atoms: C2_2  and  C3_3 
REMARK    2  A    between atoms: C3_3  and  N1_4 
REMARK    3  A    between atoms: N1_4  and  C4_5 
REMARK    4  A    between atoms: C19_25  and  O2_26 
ROOT
HETATM    1  C4  UNL     1      25.984   3.677  50.128  1.00  0.00     0.105 C 
HETATM    2  N2  UNL     1      26.727   3.018  50.975  1.00  0.00    -0.229 NA
HETATM    3  C5  UNL     1      26.597   1.634  51.096  1.00  0.00     0.234 C 
HETATM    4  N3  UNL     1      26.564   0.429  51.517  1.00  0.00    -0.254 NA
HETATM    5  C6  UNL     1      26.864   0.064  52.848  1.00  0.00     0.116 C 
HETATM    6  C7  UNL     1      26.415  -0.200  54.054  1.00  0.00     0.018 C 
HETATM    7  C8  UNL     1      24.931  -0.089  54.168  1.00  0.00     0.196 C 
HETATM    8  O1  UNL     1      24.386   0.274  52.934  1.00  0.00    -0.387 OA
HETATM    9  C9  UNL     1      22.989   0.327  53.134  1.00  0.00     0.169 C 
HETATM   10  C10 UNL     1      22.290   0.700  51.844  1.00  0.00     0.046 C 
HETATM   11  C11 UNL     1      22.693   2.069  51.330  1.00  0.00     0.120 C 
HETATM   12  N4  UNL     1      22.048   2.303  50.103  1.00  0.00    -0.395 N 
HETATM   13  C12 UNL     1      20.741   1.754  49.966  1.00  0.00     0.137 C 
HETATM   14  C13 UNL     1      19.930   2.260  48.829  1.00  0.00     0.136 C 
HETATM   15  N5  UNL     1      20.722   2.593  47.702  1.00  0.00    -0.412 N 
HETATM   16  C14 UNL     1      20.001   2.977  46.533  1.00  0.00     0.143 C 
HETATM   17  C15 UNL     1      21.954   3.253  47.927  1.00  0.00     0.155 C 
HETATM   18  C16 UNL     1      22.280   3.485  49.392  1.00  0.00     0.097 A 
HETATM   19  C17 UNL     1      23.660   4.017  49.484  1.00  0.00    -0.042 A 
HETATM   20  C18 UNL     1      23.150   5.176  49.902  1.00  0.00     0.013 A 
HETATM   21  C19 UNL     1      21.721   4.764  49.852  1.00  0.00     0.178 A 
HETATM   22  C21 UNL     1      24.934   3.319  49.158  1.00  0.00     0.114 C 
ENDROOT
BRANCH   1  23
HETATM   23  N1  UNL     1      26.335   5.043  50.224  1.00  0.00    -0.374 N 
HETATM   24  H6  UNL     1      26.295   5.600  51.129  1.00  0.00     0.161 HD
BRANCH  23  25
HETATM   25  C3  UNL     1      26.788   5.861  49.097  1.00  0.00     0.147 C 
BRANCH  25  26
HETATM   26  C2  UNL     1      27.968   5.215  48.477  1.00  0.00    -0.018 C 
HETATM   27  C1  UNL     1      29.184   5.693  48.206  1.00  0.00     0.008 C 
ENDBRANCH  25  26
ENDBRANCH  23  25
ENDBRANCH   1  23
BRANCH  21  28
HETATM   28  O2  UNL     1      21.139   4.852  51.104  1.00  0.00    -0.384 OA
HETATM   29  C20 UNL     1      19.780   5.146  50.850  1.00  0.00     0.202 C 
ENDBRANCH  21  28
TORSDOF 4
ENDMDL
MODEL 3
REMARK VINA RESULT:      -6.9      3.097      6.723
REMARK  4 active torsions:
REMARK  status: ('A' for Active; 'I' for Inactive)
REMARK    1  A    between atoms: C2_2  and  C3_3 
REMARK    2  A    between atoms: C3_3  and  N1_4 
REMARK    3  A    between atoms: N1_4  and  C4_5 
REMARK    4  A    between atoms: C19_25  and  O2_26 
ROOT
HETATM    1  C4  UNL     1      19.101  -0.555  53.120  1.00  0.00     0.105 C 
HETATM    2  N2  UNL     1      17.896  -0.749  53.582  1.00  0.00    -0.229 NA
HETATM    3  C5  UNL     1      16.796  -0.684  52.726  1.00  0.00     0.234 C 
HETATM    4  N3  UNL     1      15.638  -0.517  52.213  1.00  0.00    -0.254 NA
HETATM    5  C6  UNL     1      14.525  -0.052  52.946  1.00  0.00     0.116 C 
HETATM    6  C7  UNL     1      13.784   0.971  53.310  1.00  0.00     0.018 C 
HETATM    7  C8  UNL     1      14.254   2.269  52.742  1.00  0.00     0.196 C 
HETATM    8  O1  UNL     1      15.386   2.059  51.951  1.00  0.00    -0.387 OA
HETATM    9  C9  UNL     1      15.736   3.329  51.441  1.00  0.00     0.169 C 
HETATM   10  C10 UNL     1      16.953   3.217  50.548  1.00  0.00     0.046 C 
HETATM   11  C11 UNL     1      18.178   2.705  51.283  1.00  0.00     0.120 C 
HETATM   12  N4  UNL     1      19.237   2.572  50.367  1.00  0.00    -0.395 N 
HETATM   13  C12 UNL     1      19.281   3.532  49.316  1.00  0.00     0.137 C 
HETATM   14  C13 UNL     1      20.550   3.607  48.547  1.00  0.00     0.136 C 
HETATM   15  N5  UNL     1      21.196   2.351  48.439  1.00  0.00    -0.412 N 
HETATM   16  C14 UNL     1      22.362   2.325  47.617  1.00  0.00     0.143 C 
HETATM   17  C15 UNL     1      21.211   1.512  49.579  1.00  0.00     0.155 C 
HETATM   18  C16 UNL     1      20.477   2.078  50.782  1.00  0.00     0.097 A 
HETATM   19  C17 UNL     1      20.423   1.032  51.830  1.00  0.00    -0.042 A 
HETATM   20  C18 UNL     1      21.241   1.779  52.573  1.00  0.00     0.013 A 
HETATM   21  C19 UNL     1      21.380   2.898  51.602  1.00  0.00     0.178 A 
HETATM   22  C21 UNL     1      19.680  -0.258  51.799  1.00  0.00     0.114 C 
ENDROOT
BRANCH   1  23
HETATM   23  N1  UNL     1      20.000  -0.683  54.205  1.00  0.00    -0.374 N 
HETATM   24  H6  UNL     1      19.987  -0.050  55.059  1.00  0.00     0.161 HD
BRANCH  23  25
HETATM   25  C3  UNL     1      21.059  -1.690  54.285  1.00  0.00     0.147 C 
BRANCH  25  26
HETATM   26  C2  UNL     1      22.303  -1.044  54.763  1.00  0.00    -0.018 C 
HETATM   27  C1  UNL     1      23.427  -0.726  54.118  1.00  0.00     0.008 C 
ENDBRANCH  25  26
ENDBRANCH  23  25
ENDBRANCH   1  23
BRANCH  21  28
HETATM   28  O2  UNL     1      20.927   4.085  52.151  1.00  0.00    -0.384 OA
HETATM   29  C20 UNL     1      21.873   5.054  51.745  1.00  0.00     0.202 C 
ENDBRANCH  21  28
TORSDOF 4
ENDMDL
MODEL 4
REMARK VINA RESULT:      -6.7      8.466     11.709
REMARK  4 active torsions:
REMARK  status: ('A' for Active; 'I' for Inactive)
REMARK    1  A    between atoms: C2_2  and  C3_3 
REMARK    2  A    between atoms: C3_3  and  N1_4 
REMARK    3  A    between atoms: N1_4  and  C4_5 
REMARK    4  A    between atoms: C19_25  and  O2_26 
ROOT
HETATM    1  C4  UNL     1      28.340   7.542  48.017  1.00  0.00     0.105 C 
HETATM    2  N2  UNL     1      27.723   8.615  48.431  1.00  0.00    -0.229 NA
HETATM    3  C5  UNL     1      27.846   9.813  47.727  1.00  0.00     0.234 C 
HETATM    4  N3  UNL     1      27.921  11.039  47.379  1.00  0.00    -0.254 NA
HETATM    5  C6  UNL     1      27.822  12.112  48.293  1.00  0.00     0.116 C 
HETATM    6  C7  UNL     1      28.444  12.976  49.062  1.00  0.00     0.018 C 
HETATM    7  C8  UNL     1      29.930  12.841  49.015  1.00  0.00     0.196 C 
HETATM    8  O1  UNL     1      30.287  11.808  48.146  1.00  0.00    -0.387 OA
HETATM    9  C9  UNL     1      31.698  11.776  48.148  1.00  0.00     0.169 C 
HETATM   10  C10 UNL     1      32.199  10.692  47.218  1.00  0.00     0.046 C 
HETATM   11  C11 UNL     1      31.746   9.305  47.633  1.00  0.00     0.120 C 
HETATM   12  N4  UNL     1      32.200   8.374  46.682  1.00  0.00    -0.395 N 
HETATM   13  C12 UNL     1      33.461   8.654  46.082  1.00  0.00     0.137 C 
HETATM   14  C13 UNL     1      34.097   7.538  45.336  1.00  0.00     0.136 C 
HETATM   15  N5  UNL     1      33.149   6.687  44.717  1.00  0.00    -0.412 N 
HETATM   16  C14 UNL     1      33.690   5.659  43.889  1.00  0.00     0.143 C 
HETATM   17  C15 UNL     1      31.978   6.360  45.443  1.00  0.00     0.155 C 
HETATM   18  C16 UNL     1      31.884   7.018  46.808  1.00  0.00     0.097 A 
HETATM   19  C17 UNL     1      30.544   6.731  47.372  1.00  0.00    -0.042 A 
HETATM   20  C18 UNL     1      31.132   5.976  48.300  1.00  0.00     0.013 A 
HETATM   21  C19 UNL     1      32.529   6.184  47.832  1.00  0.00     0.178 A 
HETATM   22  C21 UNL     1      29.222   7.214  46.885  1.00  0.00     0.114 C 
ENDROOT
BRANCH   1  23
HETATM   23  N1  UNL     1      28.031   6.497  48.919  1.00  0.00    -0.374 N 
HETATM   24  H6  UNL     1      28.676   6.188  49.706  1.00  0.00     0.161 HD
BRANCH  23  25
HETATM   25  C3  UNL     1      26.798   5.709  48.878  1.00  0.00     0.147 C 
BRANCH  25  26
HETATM   26  C2  UNL     1      27.140   4.273  49.012  1.00  0.00    -0.018 C 
HETATM   27  C1  UNL     1      26.494   3.273  49.615  1.00  0.00     0.008 C 
ENDBRANCH  25  26
ENDBRANCH  23  25
ENDBRANCH   1  23
BRANCH  21  28
HETATM   28  O2  UNL     1      33.297   6.775  48.819  1.00  0.00    -0.384 OA
HETATM   29  C20 UNL     1      34.542   6.109  48.754  1.00  0.00     0.202 C 
ENDBRANCH  21  28
TORSDOF 4
ENDMDL
MODEL 5
REMARK VINA RESULT:      -6.6      7.991     11.705
REMARK  4 active torsions:
REMARK  status: ('A' for Active; 'I' for Inactive)
REMARK    1  A    between atoms: C2_2  and  C3_3 
REMARK    2  A    between atoms: C3_3  and  N1_4 
REMARK    3  A    between atoms: N1_4  and  C4_5 
REMARK    4  A    between atoms: C19_25  and  O2_26 
ROOT
HETATM    1  C4  UNL     1      30.053  10.591  48.456  1.00  0.00     0.105 C 
HETATM    2  N2  UNL     1      28.786  10.721  48.741  1.00  0.00    -0.229 NA
HETATM    3  C5  UNL     1      28.184   9.870  49.668  1.00  0.00     0.234 C 
HETATM    4  N3  UNL     1      27.370   9.141  50.329  1.00  0.00    -0.254 NA
HETATM    5  C6  UNL     1      26.015   8.968  49.968  1.00  0.00     0.116 C 
HETATM    6  C7  UNL     1      25.118   8.245  49.337  1.00  0.00     0.018 C 
HETATM    7  C8  UNL     1      25.697   7.043  48.667  1.00  0.00     0.196 C 
HETATM    8  O1  UNL     1      27.075   6.993  48.889  1.00  0.00    -0.387 OA
HETATM    9  C9  UNL     1      27.523   5.818  48.245  1.00  0.00     0.169 C 
HETATM   10  C10 UNL     1      29.015   5.654  48.436  1.00  0.00     0.046 C 
HETATM   11  C11 UNL     1      29.816   6.795  47.835  1.00  0.00     0.120 C 
HETATM   12  N4  UNL     1      31.179   6.592  48.115  1.00  0.00    -0.395 N 
HETATM   13  C12 UNL     1      31.619   5.238  48.143  1.00  0.00     0.137 C 
HETATM   14  C13 UNL     1      33.088   5.023  48.110  1.00  0.00     0.136 C 
HETATM   15  N5  UNL     1      33.804   6.055  48.767  1.00  0.00    -0.412 N 
HETATM   16  C14 UNL     1      35.213   5.857  48.874  1.00  0.00     0.143 C 
HETATM   17  C15 UNL     1      33.368   7.388  48.579  1.00  0.00     0.155 C 
HETATM   18  C16 UNL     1      32.134   7.526  47.704  1.00  0.00     0.097 A 
HETATM   19  C17 UNL     1      31.693   8.940  47.739  1.00  0.00    -0.042 A 
HETATM   20  C18 UNL     1      32.036   9.045  46.455  1.00  0.00     0.013 A 
HETATM   21  C19 UNL     1      32.513   7.645  46.289  1.00  0.00     0.178 A 
HETATM   22  C21 UNL     1      31.138   9.698  48.894  1.00  0.00     0.114 C 
ENDROOT
BRANCH   1  23
HETATM   23  N1  UNL     1      30.378  11.580  47.498  1.00  0.00    -0.374 N 
HETATM   24  H6  UNL     1      31.358  11.967  47.359  1.00  0.00     0.161 HD
BRANCH  23  25
HETATM   25  C3  UNL     1      29.410  12.199  46.590  1.00  0.00     0.147 C 
BRANCH  25  26
HETATM   26  C2  UNL     1      29.476  11.514  45.277  1.00  0.00    -0.018 C 
HETATM   27  C1  UNL     1      28.924  10.375  44.857  1.00  0.00     0.008 C 
ENDBRANCH  25  26
ENDBRANCH  23  25
ENDBRANCH   1  23
BRANCH  21  28
HETATM   28  O2  UNL     1      31.777   6.986  45.320  1.00  0.00    -0.384 OA
HETATM   29  C20 UNL     1      32.733   6.255  44.577  1.00  0.00     0.202 C 
ENDBRANCH  21  28
TORSDOF 4
ENDMDL
MODEL 6
REMARK VINA RESULT:      -6.6      2.209      5.096
REMARK  4 active torsions:
REMARK  status: ('A' for Active; 'I' for Inactive)
REMARK    1  A    between atoms: C2_2  and  C3_3 
REMARK    2  A    between atoms: C3_3  and  N1_4 
REMARK    3  A    between atoms: N1_4  and  C4_5 
REMARK    4  A    between atoms: C19_25  and  O2_26 
ROOT
HETATM    1  C4  UNL     1      24.132   4.261  51.214  1.00  0.00     0.105 C 
HETATM    2  N2  UNL     1      24.967   3.576  51.947  1.00  0.00    -0.229 NA
HETATM    3  C5  UNL     1      25.185   2.223  51.687  1.00  0.00     0.234 C 
HETATM    4  N3  UNL     1      25.433   0.973  51.772  1.00  0.00    -0.254 NA
HETATM    5  C6  UNL     1      25.736   0.323  52.988  1.00  0.00     0.116 C 
HETATM    6  C7  UNL     1      25.298  -0.367  54.017  1.00  0.00     0.018 C 
HETATM    7  C8  UNL     1      23.830  -0.632  53.966  1.00  0.00     0.196 C 
HETATM    8  O1  UNL     1      23.285  -0.067  52.810  1.00  0.00    -0.387 OA
HETATM    9  C9  UNL     1      21.911  -0.392  52.838  1.00  0.00     0.169 C 
HETATM   10  C10 UNL     1      21.218   0.162  51.612  1.00  0.00     0.046 C 
HETATM   11  C11 UNL     1      21.292   1.676  51.527  1.00  0.00     0.120 C 
HETATM   12  N4  UNL     1      20.682   2.096  50.332  1.00  0.00    -0.395 N 
HETATM   13  C12 UNL     1      19.567   1.326  49.892  1.00  0.00     0.137 C 
HETATM   14  C13 UNL     1      18.724   1.936  48.832  1.00  0.00     0.136 C 
HETATM   15  N5  UNL     1      19.471   2.745  47.941  1.00  0.00    -0.412 N 
HETATM   16  C14 UNL     1      18.746   3.272  46.830  1.00  0.00     0.143 C 
HETATM   17  C15 UNL     1      20.479   3.576  48.485  1.00  0.00     0.155 C 
HETATM   18  C16 UNL     1      20.649   3.450  49.989  1.00  0.00     0.097 A 
HETATM   19  C17 UNL     1      21.841   4.234  50.391  1.00  0.00    -0.042 A 
HETATM   20  C18 UNL     1      21.030   5.079  51.028  1.00  0.00     0.013 A 
HETATM   21  C19 UNL     1      19.758   4.385  50.691  1.00  0.00     0.178 A 
HETATM   22  C21 UNL     1      23.268   3.965  50.060  1.00  0.00     0.114 C 
ENDROOT
BRANCH   1  23
HETATM   23  N1  UNL     1      24.120   5.587  51.707  1.00  0.00    -0.374 N 
HETATM   24  H6  UNL     1      23.709   5.862  52.647  1.00  0.00     0.161 HD
BRANCH  23  25
HETATM   25  C3  UNL     1      24.661   6.741  50.986  1.00  0.00     0.147 C 
BRANCH  25  26
HETATM   26  C2  UNL     1      23.588   7.748  50.814  1.00  0.00    -0.018 C 
HETATM   27  C1  UNL     1      22.884   8.100  49.737  1.00  0.00     0.008 C 
ENDBRANCH  25  26
ENDBRANCH  23  25
ENDBRANCH   1  23
BRANCH  21  28
HETATM   28  O2  UNL     1      19.100   3.979  51.839  1.00  0.00    -0.384 OA
HETATM   29  C20 UNL     1      17.726   4.048  51.509  1.00  0.00     0.202 C 
ENDBRANCH  21  28
TORSDOF 4
ENDMDL
MODEL 7
REMARK VINA RESULT:      -6.3      8.289     10.408
REMARK  4 active torsions:
REMARK  status: ('A' for Active; 'I' for Inactive)
REMARK    1  A    between atoms: C2_2  and  C3_3 
REMARK    2  A    between atoms: C3_3  and  N1_4 
REMARK    3  A    between atoms: N1_4  and  C4_5 
REMARK    4  A    between atoms: C19_25  and  O2_26 
ROOT
HETATM    1  C4  UNL     1      29.790   6.530  48.618  1.00  0.00     0.105 C 
HETATM    2  N2  UNL     1      30.553   5.472  48.575  1.00  0.00    -0.229 NA
HETATM    3  C5  UNL     1      31.905   5.593  48.250  1.00  0.00     0.234 C 
HETATM    4  N3  UNL     1      33.095   5.406  47.828  1.00  0.00    -0.254 NA
HETATM    5  C6  UNL     1      33.507   4.227  47.168  1.00  0.00     0.116 C 
HETATM    6  C7  UNL     1      33.711   3.606  46.029  1.00  0.00     0.018 C 
HETATM    7  C8  UNL     1      33.389   4.445  44.836  1.00  0.00     0.196 C 
HETATM    8  O1  UNL     1      32.944   5.704  45.247  1.00  0.00    -0.387 OA
HETATM    9  C9  UNL     1      32.693   6.425  44.059  1.00  0.00     0.169 C 
HETATM   10  C10 UNL     1      32.216   7.824  44.389  1.00  0.00     0.046 C 
HETATM   11  C11 UNL     1      30.916   7.834  45.171  1.00  0.00     0.120 C 
HETATM   12  N4  UNL     1      30.584   9.163  45.486  1.00  0.00    -0.395 N 
HETATM   13  C12 UNL     1      30.939  10.145  44.518  1.00  0.00     0.137 C 
HETATM   14  C13 UNL     1      30.316  11.484  44.680  1.00  0.00     0.136 C 
HETATM   15  N5  UNL     1      30.093  11.821  46.038  1.00  0.00    -0.412 N 
HETATM   16  C14 UNL     1      29.602  13.139  46.274  1.00  0.00     0.143 C 
HETATM   17  C15 UNL     1      29.618  10.807  46.904  1.00  0.00     0.155 C 
HETATM   18  C16 UNL     1      29.444   9.451  46.243  1.00  0.00     0.097 A 
HETATM   19  C17 UNL     1      29.116   8.459  47.293  1.00  0.00    -0.042 A 
HETATM   20  C18 UNL     1      27.898   8.347  46.762  1.00  0.00     0.013 A 
HETATM   21  C19 UNL     1      28.101   9.326  45.660  1.00  0.00     0.178 A 
HETATM   22  C21 UNL     1      29.987   7.972  48.399  1.00  0.00     0.114 C 
ENDROOT
BRANCH   1  23
HETATM   23  N1  UNL     1      28.488   6.103  48.971  1.00  0.00    -0.374 N 
HETATM   24  H6  UNL     1      27.816   6.681  49.557  1.00  0.00     0.161 HD
BRANCH  23  25
HETATM   25  C3  UNL     1      27.909   4.815  48.584  1.00  0.00     0.147 C 
BRANCH  25  26
HETATM   26  C2  UNL     1      26.510   4.752  49.065  1.00  0.00    -0.018 C 
HETATM   27  C1  UNL     1      25.535   5.663  49.043  1.00  0.00     0.008 C 
ENDBRANCH  25  26
ENDBRANCH  23  25
ENDBRANCH   1  23
BRANCH  21  28
HETATM   28  O2  UNL     1      27.938   8.721  44.426  1.00  0.00    -0.384 OA
HETATM   29  C20 UNL     1      27.186   9.647  43.667  1.00  0.00     0.202 C 
ENDBRANCH  21  28
TORSDOF 4
ENDMDL
MODEL 8
REMARK VINA RESULT:      -6.2      7.262     10.588
REMARK  4 active torsions:
REMARK  status: ('A' for Active; 'I' for Inactive)
REMARK    1  A    between atoms: C2_2  and  C3_3 
REMARK    2  A    between atoms: C3_3  and  N1_4 
REMARK    3  A    between atoms: N1_4  and  C4_5 
REMARK    4  A    between atoms: C19_25  and  O2_26 
ROOT
HETATM    1  C4  UNL     1      29.855   6.035  48.208  1.00  0.00     0.105 C 
HETATM    2  N2  UNL     1      28.992   5.283  48.835  1.00  0.00    -0.229 NA
HETATM    3  C5  UNL     1      27.639   5.333  48.497  1.00  0.00     0.234 C 
HETATM    4  N3  UNL     1      26.363   5.308  48.504  1.00  0.00    -0.254 NA
HETATM    5  C6  UNL     1      25.599   5.034  49.659  1.00  0.00     0.116 C 
HETATM    6  C7  UNL     1      24.936   5.508  50.690  1.00  0.00     0.018 C 
HETATM    7  C8  UNL     1      24.936   6.999  50.754  1.00  0.00     0.196 C 
HETATM    8  O1  UNL     1      25.655   7.521  49.676  1.00  0.00    -0.387 OA
HETATM    9  C9  UNL     1      25.575   8.925  49.808  1.00  0.00     0.169 C 
HETATM   10  C10 UNL     1      26.315   9.599  48.672  1.00  0.00     0.046 C 
HETATM   11  C11 UNL     1      27.794   9.262  48.649  1.00  0.00     0.120 C 
HETATM   12  N4  UNL     1      28.384   9.876  47.531  1.00  0.00    -0.395 N 
HETATM   13  C12 UNL     1      27.850  11.141  47.155  1.00  0.00     0.137 C 
HETATM   14  C13 UNL     1      28.660  11.941  46.200  1.00  0.00     0.136 C 
HETATM   15  N5  UNL     1      29.377  11.131  45.285  1.00  0.00    -0.412 N 
HETATM   16  C14 UNL     1      30.087  11.833  44.266  1.00  0.00     0.143 C 
HETATM   17  C15 UNL     1      29.984   9.951  45.777  1.00  0.00     0.155 C 
HETATM   18  C16 UNL     1      29.742   9.692  47.253  1.00  0.00     0.097 A 
HETATM   19  C17 UNL     1      30.279   8.351  47.585  1.00  0.00    -0.042 A 
HETATM   20  C18 UNL     1      31.214   8.945  48.328  1.00  0.00     0.013 A 
HETATM   21  C19 UNL     1      30.775  10.343  48.071  1.00  0.00     0.178 A 
HETATM   22  C21 UNL     1      29.784   7.026  47.121  1.00  0.00     0.114 C 
ENDROOT
BRANCH   1  23
HETATM   23  N1  UNL     1      31.131   5.771  48.759  1.00  0.00    -0.374 N 
HETATM   24  H6  UNL     1      31.396   5.993  49.764  1.00  0.00     0.161 HD
BRANCH  23  25
HETATM   25  C3  UNL     1      32.242   5.171  48.018  1.00  0.00     0.147 C 
BRANCH  25  26
HETATM   26  C2  UNL     1      33.515   5.752  48.505  1.00  0.00    -0.018 C 
HETATM   27  C1  UNL     1      34.771   5.573  48.093  1.00  0.00     0.008 C 
ENDBRANCH  25  26
ENDBRANCH  23  25
ENDBRANCH   1  23
BRANCH  21  28
HETATM   28  O2  UNL     1      30.424  10.974  49.252  1.00  0.00    -0.384 OA
HETATM   29  C20 UNL     1      30.863  12.308  49.092  1.00  0.00     0.202 C 
ENDBRANCH  21  28
TORSDOF 4
ENDMDL
MODEL 9
REMARK VINA RESULT:      -6.2      2.530      5.645
REMARK  4 active torsions:
REMARK  status: ('A' for Active; 'I' for Inactive)
REMARK    1  A    between atoms: C2_2  and  C3_3 
REMARK    2  A    between atoms: C3_3  and  N1_4 
REMARK    3  A    between atoms: N1_4  and  C4_5 
REMARK    4  A    between atoms: C19_25  and  O2_26 
ROOT
HETATM    1  C4  UNL     1      24.333   3.656  50.361  1.00  0.00     0.105 C 
HETATM    2  N2  UNL     1      24.399   2.947  51.455  1.00  0.00    -0.229 NA
HETATM    3  C5  UNL     1      23.861   1.660  51.493  1.00  0.00     0.234 C 
HETATM    4  N3  UNL     1      23.316   0.559  51.842  1.00  0.00    -0.254 NA
HETATM    5  C6  UNL     1      22.865   0.299  53.155  1.00  0.00     0.116 C 
HETATM    6  C7  UNL     1      21.863   0.300  54.004  1.00  0.00     0.018 C 
HETATM    7  C8  UNL     1      20.582   0.776  53.403  1.00  0.00     0.196 C 
HETATM    8  O1  UNL     1      20.781   1.106  52.060  1.00  0.00    -0.387 OA
HETATM    9  C9  UNL     1      19.519   1.515  51.577  1.00  0.00     0.169 C 
HETATM   10  C10 UNL     1      19.615   1.884  50.112  1.00  0.00     0.046 C 
HETATM   11  C11 UNL     1      20.561   3.043  49.857  1.00  0.00     0.120 C 
HETATM   12  N4  UNL     1      20.637   3.273  48.472  1.00  0.00    -0.395 N 
HETATM   13  C12 UNL     1      19.443   3.041  47.731  1.00  0.00     0.137 C 
HETATM   14  C13 UNL     1      19.411   3.583  46.348  1.00  0.00     0.136 C 
HETATM   15  N5  UNL     1      20.686   3.575  45.731  1.00  0.00    -0.412 N 
HETATM   16  C14 UNL     1      20.711   3.975  44.362  1.00  0.00     0.143 C 
HETATM   17  C15 UNL     1      21.805   3.943  46.515  1.00  0.00     0.155 C 
HETATM   18  C16 UNL     1      21.476   4.268  47.962  1.00  0.00     0.097 A 
HETATM   19  C17 UNL     1      22.747   4.461  48.697  1.00  0.00    -0.042 A 
HETATM   20  C18 UNL     1      22.436   5.751  48.832  1.00  0.00     0.013 A 
HETATM   21  C19 UNL     1      21.136   5.690  48.110  1.00  0.00     0.178 A 
HETATM   22  C21 UNL     1      23.789   3.444  49.009  1.00  0.00     0.114 C 
ENDROOT
BRANCH   1  23
HETATM   23  N1  UNL     1      24.955   4.899  50.620  1.00  0.00    -0.374 N 
HETATM   24  H6  UNL     1      24.856   5.429  51.536  1.00  0.00     0.161 HD
BRANCH  23  25
HETATM   25  C3  UNL     1      25.801   5.614  49.662  1.00  0.00     0.147 C 
BRANCH  25  26
HETATM   26  C2  UNL     1      26.817   4.679  49.126  1.00  0.00    -0.018 C 
HETATM   27  C1  UNL     1      27.996   4.909  48.544  1.00  0.00     0.008 C 
ENDBRANCH  25  26
ENDBRANCH  23  25
ENDBRANCH   1  23
BRANCH  21  28
HETATM   28  O2  UNL     1      20.095   6.068  48.939  1.00  0.00    -0.384 OA
HETATM   29  C20 UNL     1      19.269   6.883  48.131  1.00  0.00     0.202 C 
ENDBRANCH  21  28
TORSDOF 4
ENDMDL
