MODEL 1
REMARK VINA RESULT:      -7.0      0.000      0.000
REMARK  4 active torsions:
REMARK  status: ('A' for Active; 'I' for Inactive)
REMARK    1  A    between atoms: O1_2  and  C2_3 
REMARK    2  A    between atoms: C2_3  and  C3_4 
REMARK    3  A    between atoms: C3_4  and  C4_5 
REMARK    4  A    between atoms: N1_8  and  C7_9 
ROOT
HETATM    1  C4  UNL     1      25.136   2.719  51.889  1.00  0.00     0.039 C 
HETATM    2  C5  UNL     1      26.314   2.555  50.978  1.00  0.00     0.079 C 
HETATM    3  C6  UNL     1      26.054   3.186  49.658  1.00  0.00     0.129 C 
HETATM    4  N1  UNL     1      25.976   4.603  49.586  1.00  0.00    -0.379 N 
HETATM    5  C13 UNL     1      24.859   5.155  50.274  1.00  0.00     0.146 C 
HETATM    6  C14 UNL     1      23.546   4.783  49.719  1.00  0.00     0.251 C 
HETATM    7  N2  UNL     1      22.732   4.192  50.565  1.00  0.00    -0.297 NA
HETATM    8  C15 UNL     1      23.188   3.967  51.918  1.00  0.00     0.168 C 
HETATM    9  N3  UNL     1      24.138   3.393  52.625  1.00  0.00    -0.255 NA
ENDROOT
BRANCH   1  10
HETATM   10  C3  UNL     1      24.456   1.671  52.425  1.00  0.00     0.064 C 
BRANCH  10  11
HETATM   11  C2  UNL     1      23.506   0.768  53.050  1.00  0.00     0.076 C 
HETATM   12  C16 UNL     1      22.215   0.394  53.137  1.00  0.00     0.087 C 
HETATM   13  I1  UNL     1      22.000  -1.173  54.507  1.00  0.00    -0.054 I 
BRANCH  11  14
HETATM   14  O1  UNL     1      24.553   0.189  53.770  1.00  0.00    -0.355 OA
HETATM   15  C1  UNL     1      25.533  -0.553  53.078  1.00  0.00     0.210 C 
ENDBRANCH  11  14
ENDBRANCH  10  11
ENDBRANCH   1  10
BRANCH   4  16
HETATM   16  C7  UNL     1      26.948   5.383  48.890  1.00  0.00     0.030 A 
HETATM   17  C8  UNL     1      26.675   6.642  48.403  1.00  0.00     0.029 A 
HETATM   18  C9  UNL     1      27.563   7.462  47.717  1.00  0.00     0.002 A 
HETATM   19  C10 UNL     1      28.858   6.976  47.493  1.00  0.00     0.000 A 
HETATM   20  C11 UNL     1      29.173   5.736  47.959  1.00  0.00     0.002 A 
HETATM   21  C12 UNL     1      28.235   5.009  48.618  1.00  0.00     0.029 A 
ENDBRANCH   4  16
TORSDOF 4
ENDMDL
MODEL 2
REMARK VINA RESULT:      -6.8      4.344      7.873
REMARK  4 active torsions:
REMARK  status: ('A' for Active; 'I' for Inactive)
REMARK    1  A    between atoms: O1_2  and  C2_3 
REMARK    2  A    between atoms: C2_3  and  C3_4 
REMARK    3  A    between atoms: C3_4  and  C4_5 
REMARK    4  A    between atoms: N1_8  and  C7_9 
ROOT
HETATM    1  C4  UNL     1      23.609   0.511  52.657  1.00  0.00     0.039 C 
HETATM    2  C5  UNL     1      22.691  -0.395  53.421  1.00  0.00     0.079 C 
HETATM    3  C6  UNL     1      21.403   0.283  53.716  1.00  0.00     0.129 C 
HETATM    4  N1  UNL     1      20.517   0.558  52.640  1.00  0.00    -0.379 N 
HETATM    5  C13 UNL     1      21.017   1.515  51.712  1.00  0.00     0.146 C 
HETATM    6  C14 UNL     1      21.205   2.869  52.259  1.00  0.00     0.251 C 
HETATM    7  N2  UNL     1      22.424   3.347  52.153  1.00  0.00    -0.297 NA
HETATM    8  C15 UNL     1      23.437   2.524  51.530  1.00  0.00     0.168 C 
HETATM    9  N3  UNL     1      24.037   1.355  51.611  1.00  0.00    -0.255 NA
ENDROOT
BRANCH   1  10
HETATM   10  C3  UNL     1      24.835   0.884  53.110  1.00  0.00     0.064 C 
BRANCH  10  11
HETATM   11  C2  UNL     1      26.244   1.037  53.423  1.00  0.00     0.076 C 
HETATM   12  C16 UNL     1      27.288   1.888  53.479  1.00  0.00     0.087 C 
HETATM   13  I1  UNL     1      29.007   0.890  54.135  1.00  0.00    -0.054 I 
BRANCH  11  14
HETATM   14  O1  UNL     1      26.302  -0.317  53.758  1.00  0.00    -0.355 OA
HETATM   15  C1  UNL     1      26.470  -1.271  52.732  1.00  0.00     0.210 C 
ENDBRANCH  11  14
ENDBRANCH  10  11
ENDBRANCH   1  10
BRANCH   4  16
HETATM   16  C7  UNL     1      19.250  -0.086  52.515  1.00  0.00     0.030 A 
HETATM   17  C8  UNL     1      18.372   0.200  51.493  1.00  0.00     0.029 A 
HETATM   18  C9  UNL     1      17.124  -0.382  51.303  1.00  0.00     0.002 A 
HETATM   19  C10 UNL     1      16.708  -1.349  52.228  1.00  0.00     0.000 A 
HETATM   20  C11 UNL     1      17.546  -1.664  53.254  1.00  0.00     0.002 A 
HETATM   21  C12 UNL     1      18.746  -1.040  53.356  1.00  0.00     0.029 A 
ENDBRANCH   4  16
TORSDOF 4
ENDMDL
MODEL 3
REMARK VINA RESULT:      -6.7      3.837      6.486
REMARK  4 active torsions:
REMARK  status: ('A' for Active; 'I' for Inactive)
REMARK    1  A    between atoms: O1_2  and  C2_3 
REMARK    2  A    between atoms: C2_3  and  C3_4 
REMARK    3  A    between atoms: C3_4  and  C4_5 
REMARK    4  A    between atoms: N1_8  and  C7_9 
ROOT
HETATM    1  C4  UNL     1      24.812   3.263  49.997  1.00  0.00     0.039 C 
HETATM    2  C5  UNL     1      26.260   2.876  49.978  1.00  0.00     0.079 C 
HETATM    3  C6  UNL     1      26.792   2.749  51.359  1.00  0.00     0.129 C 
HETATM    4  N1  UNL     1      26.337   1.673  52.166  1.00  0.00    -0.379 N 
HETATM    5  C13 UNL     1      24.958   1.753  52.511  1.00  0.00     0.146 C 
HETATM    6  C14 UNL     1      24.599   2.900  53.362  1.00  0.00     0.251 C 
HETATM    7  N2  UNL     1      23.676   3.693  52.865  1.00  0.00    -0.297 NA
HETATM    8  C15 UNL     1      23.118   3.376  51.569  1.00  0.00     0.168 C 
HETATM    9  N3  UNL     1      23.439   3.168  50.309  1.00  0.00    -0.255 NA
ENDROOT
BRANCH   1  10
HETATM   10  C3  UNL     1      24.336   4.398  49.422  1.00  0.00     0.064 C 
BRANCH  10  11
HETATM   11  C2  UNL     1      23.936   5.481  48.540  1.00  0.00     0.076 C 
HETATM   12  C16 UNL     1      23.014   5.920  47.661  1.00  0.00     0.087 C 
HETATM   13  I1  UNL     1      23.534   7.817  46.947  1.00  0.00    -0.054 I 
BRANCH  11  14
HETATM   14  O1  UNL     1      25.075   6.193  48.922  1.00  0.00    -0.355 OA
HETATM   15  C1  UNL     1      25.176   6.667  50.247  1.00  0.00     0.210 C 
ENDBRANCH  11  14
ENDBRANCH  10  11
ENDBRANCH   1  10
BRANCH   4  16
HETATM   16  C7  UNL     1      27.199   0.612  52.576  1.00  0.00     0.030 A 
HETATM   17  C8  UNL     1      26.886  -0.715  52.377  1.00  0.00     0.029 A 
HETATM   18  C9  UNL     1      27.670  -1.802  52.745  1.00  0.00     0.002 A 
HETATM   19  C10 UNL     1      28.892  -1.540  53.378  1.00  0.00     0.000 A 
HETATM   20  C11 UNL     1      29.243  -0.242  53.593  1.00  0.00     0.002 A 
HETATM   21  C12 UNL     1      28.410   0.753  53.197  1.00  0.00     0.029 A 
ENDBRANCH   4  16
TORSDOF 4
ENDMDL
MODEL 4
REMARK VINA RESULT:      -6.7      1.026      1.675
REMARK  4 active torsions:
REMARK  status: ('A' for Active; 'I' for Inactive)
REMARK    1  A    between atoms: O1_2  and  C2_3 
REMARK    2  A    between atoms: C2_3  and  C3_4 
REMARK    3  A    between atoms: C3_4  and  C4_5 
REMARK    4  A    between atoms: N1_8  and  C7_9 
ROOT
HETATM    1  C4  UNL     1      24.686   2.712  51.753  1.00  0.00     0.039 C 
HETATM    2  C5  UNL     1      25.613   2.528  50.590  1.00  0.00     0.079 C 
HETATM    3  C6  UNL     1      25.282   3.474  49.494  1.00  0.00     0.129 C 
HETATM    4  N1  UNL     1      25.530   4.859  49.693  1.00  0.00    -0.379 N 
HETATM    5  C13 UNL     1      24.714   5.452  50.698  1.00  0.00     0.146 C 
HETATM    6  C14 UNL     1      23.274   5.477  50.390  1.00  0.00     0.251 C 
HETATM    7  N2  UNL     1      22.506   4.885  51.276  1.00  0.00    -0.297 NA
HETATM    8  C15 UNL     1      23.126   4.280  52.433  1.00  0.00     0.168 C 
HETATM    9  N3  UNL     1      24.022   3.388  52.799  1.00  0.00    -0.255 NA
ENDROOT
BRANCH   1  10
HETATM   10  C3  UNL     1      23.884   1.726  52.231  1.00  0.00     0.064 C 
BRANCH  10  11
HETATM   11  C2  UNL     1      23.225   0.674  52.986  1.00  0.00     0.076 C 
HETATM   12  C16 UNL     1      23.380  -0.313  53.890  1.00  0.00     0.087 C 
HETATM   13  I1  UNL     1      21.550  -1.262  54.252  1.00  0.00    -0.054 I 
BRANCH  11  14
HETATM   14  O1  UNL     1      22.015   1.017  52.380  1.00  0.00    -0.355 OA
HETATM   15  C1  UNL     1      21.875   0.852  50.986  1.00  0.00     0.210 C 
ENDBRANCH  11  14
ENDBRANCH  10  11
ENDBRANCH   1  10
BRANCH   4  16
HETATM   16  C7  UNL     1      26.520   5.569  48.950  1.00  0.00     0.030 A 
HETATM   17  C8  UNL     1      27.797   5.086  48.769  1.00  0.00     0.029 A 
HETATM   18  C9  UNL     1      28.814   5.715  48.061  1.00  0.00     0.002 A 
HETATM   19  C10 UNL     1      28.529   6.954  47.474  1.00  0.00     0.000 A 
HETATM   20  C11 UNL     1      27.278   7.469  47.626  1.00  0.00     0.002 A 
HETATM   21  C12 UNL     1      26.351   6.780  48.336  1.00  0.00     0.029 A 
ENDBRANCH   4  16
TORSDOF 4
ENDMDL
MODEL 5
REMARK VINA RESULT:      -6.5      3.226      5.542
REMARK  4 active torsions:
REMARK  status: ('A' for Active; 'I' for Inactive)
REMARK    1  A    between atoms: O1_2  and  C2_3 
REMARK    2  A    between atoms: C2_3  and  C3_4 
REMARK    3  A    between atoms: C3_4  and  C4_5 
REMARK    4  A    between atoms: N1_8  and  C7_9 
ROOT
HETATM    1  C4  UNL     1      23.493   2.189  52.489  1.00  0.00     0.039 C 
HETATM    2  C5  UNL     1      23.980   0.814  52.835  1.00  0.00     0.079 C 
HETATM    3  C6  UNL     1      25.170   0.454  52.022  1.00  0.00     0.129 C 
HETATM    4  N1  UNL     1      26.392   1.136  52.267  1.00  0.00    -0.379 N 
HETATM    5  C13 UNL     1      26.357   2.519  51.934  1.00  0.00     0.146 C 
HETATM    6  C14 UNL     1      26.171   2.805  50.501  1.00  0.00     0.251 C 
HETATM    7  N2  UNL     1      25.128   3.552  50.215  1.00  0.00    -0.297 NA
HETATM    8  C15 UNL     1      24.286   4.008  51.299  1.00  0.00     0.168 C 
HETATM    9  N3  UNL     1      23.551   3.587  52.306  1.00  0.00    -0.255 NA
ENDROOT
BRANCH   1  10
HETATM   10  C3  UNL     1      22.245   2.440  52.014  1.00  0.00     0.064 C 
BRANCH  10  11
HETATM   11  C2  UNL     1      20.821   2.633  51.801  1.00  0.00     0.076 C 
HETATM   12  C16 UNL     1      19.774   3.467  51.951  1.00  0.00     0.087 C 
HETATM   13  I1  UNL     1      18.028   2.588  51.204  1.00  0.00    -0.054 I 
BRANCH  11  14
HETATM   14  O1  UNL     1      20.751   1.363  51.226  1.00  0.00    -0.355 OA
HETATM   15  C1  UNL     1      21.373   1.139  49.979  1.00  0.00     0.210 C 
ENDBRANCH  11  14
ENDBRANCH  10  11
ENDBRANCH   1  10
BRANCH   4  16
HETATM   16  C7  UNL     1      27.535   0.476  52.810  1.00  0.00     0.030 A 
HETATM   17  C8  UNL     1      27.663  -0.896  52.820  1.00  0.00     0.029 A 
HETATM   18  C9  UNL     1      28.742  -1.611  53.328  1.00  0.00     0.002 A 
HETATM   19  C10 UNL     1      29.802  -0.883  53.884  1.00  0.00     0.000 A 
HETATM   20  C11 UNL     1      29.719   0.476  53.893  1.00  0.00     0.002 A 
HETATM   21  C12 UNL     1      28.623   1.085  53.374  1.00  0.00     0.029 A 
ENDBRANCH   4  16
TORSDOF 4
ENDMDL
MODEL 6
REMARK VINA RESULT:      -6.3      3.531      7.363
REMARK  4 active torsions:
REMARK  status: ('A' for Active; 'I' for Inactive)
REMARK    1  A    between atoms: O1_2  and  C2_3 
REMARK    2  A    between atoms: C2_3  and  C3_4 
REMARK    3  A    between atoms: C3_4  and  C4_5 
REMARK    4  A    between atoms: N1_8  and  C7_9 
ROOT
HETATM    1  C4  UNL     1      24.454   3.432  49.960  1.00  0.00     0.039 C 
HETATM    2  C5  UNL     1      25.027   2.913  51.244  1.00  0.00     0.079 C 
HETATM    3  C6  UNL     1      24.001   2.907  52.318  1.00  0.00     0.129 C 
HETATM    4  N1  UNL     1      22.925   1.984  52.224  1.00  0.00    -0.379 N 
HETATM    5  C13 UNL     1      22.045   2.233  51.134  1.00  0.00     0.146 C 
HETATM    6  C14 UNL     1      21.304   3.503  51.215  1.00  0.00     0.251 C 
HETATM    7  N2  UNL     1      21.475   4.311  50.193  1.00  0.00    -0.297 NA
HETATM    8  C15 UNL     1      22.348   3.893  49.119  1.00  0.00     0.168 C 
HETATM    9  N3  UNL     1      23.578   3.504  48.856  1.00  0.00    -0.255 NA
ENDROOT
BRANCH   1  10
HETATM   10  C3  UNL     1      24.935   4.528  49.318  1.00  0.00     0.064 C 
BRANCH  10  11
HETATM   11  C2  UNL     1      25.219   5.849  48.786  1.00  0.00     0.076 C 
HETATM   12  C16 UNL     1      24.731   6.906  48.107  1.00  0.00     0.087 C 
HETATM   13  I1  UNL     1      26.198   8.386  47.912  1.00  0.00    -0.054 I 
BRANCH  11  14
HETATM   14  O1  UNL     1      26.518   5.757  49.290  1.00  0.00    -0.355 OA
HETATM   15  C1  UNL     1      27.421   4.851  48.696  1.00  0.00     0.210 C 
ENDBRANCH  11  14
ENDBRANCH  10  11
ENDBRANCH   1  10
BRANCH   4  16
HETATM   16  C7  UNL     1      22.767   0.905  53.145  1.00  0.00     0.030 A 
HETATM   17  C8  UNL     1      21.550   0.581  53.705  1.00  0.00     0.029 A 
HETATM   18  C9  UNL     1      21.315  -0.451  54.606  1.00  0.00     0.002 A 
HETATM   19  C10 UNL     1      22.406  -1.241  54.990  1.00  0.00     0.000 A 
HETATM   20  C11 UNL     1      23.628  -0.959  54.460  1.00  0.00     0.002 A 
HETATM   21  C12 UNL     1      23.758   0.072  53.586  1.00  0.00     0.029 A 
ENDBRANCH   4  16
TORSDOF 4
ENDMDL
MODEL 7
REMARK VINA RESULT:      -6.1      2.849      3.481
REMARK  4 active torsions:
REMARK  status: ('A' for Active; 'I' for Inactive)
REMARK    1  A    between atoms: O1_2  and  C2_3 
REMARK    2  A    between atoms: C2_3  and  C3_4 
REMARK    3  A    between atoms: C3_4  and  C4_5 
REMARK    4  A    between atoms: N1_8  and  C7_9 
ROOT
HETATM    1  C4  UNL     1      22.577   2.328  49.948  1.00  0.00     0.039 C 
HETATM    2  C5  UNL     1      23.117   2.900  48.673  1.00  0.00     0.079 C 
HETATM    3  C6  UNL     1      23.515   4.319  48.856  1.00  0.00     0.129 C 
HETATM    4  N1  UNL     1      24.646   4.609  49.667  1.00  0.00    -0.379 N 
HETATM    5  C13 UNL     1      24.464   4.292  51.043  1.00  0.00     0.146 C 
HETATM    6  C14 UNL     1      23.430   5.085  51.729  1.00  0.00     0.251 C 
HETATM    7  N2  UNL     1      22.471   4.382  52.288  1.00  0.00    -0.297 NA
HETATM    8  C15 UNL     1      22.517   2.941  52.179  1.00  0.00     0.168 C 
HETATM    9  N3  UNL     1      22.563   1.954  51.309  1.00  0.00    -0.255 NA
ENDROOT
BRANCH   1  10
HETATM   10  C3  UNL     1      21.320   1.826  50.067  1.00  0.00     0.064 C 
BRANCH  10  11
HETATM   11  C2  UNL     1      20.089   1.164  50.461  1.00  0.00     0.076 C 
HETATM   12  C16 UNL     1      19.514   0.296  51.316  1.00  0.00     0.087 C 
HETATM   13  I1  UNL     1      17.476   0.090  50.887  1.00  0.00    -0.054 I 
BRANCH  11  14
HETATM   14  O1  UNL     1      19.418   1.833  49.435  1.00  0.00    -0.355 OA
HETATM   15  C1  UNL     1      19.221   3.226  49.539  1.00  0.00     0.210 C 
ENDBRANCH  11  14
ENDBRANCH  10  11
ENDBRANCH   1  10
BRANCH   4  16
HETATM   16  C7  UNL     1      25.848   5.157  49.128  1.00  0.00     0.030 A 
HETATM   17  C8  UNL     1      25.922   6.443  48.640  1.00  0.00     0.029 A 
HETATM   18  C9  UNL     1      27.051   7.048  48.102  1.00  0.00     0.002 A 
HETATM   19  C10 UNL     1      28.229   6.292  48.041  1.00  0.00     0.000 A 
HETATM   20  C11 UNL     1      28.202   5.015  48.513  1.00  0.00     0.002 A 
HETATM   21  C12 UNL     1      27.049   4.512  49.021  1.00  0.00     0.029 A 
ENDBRANCH   4  16
TORSDOF 4
ENDMDL
MODEL 8
REMARK VINA RESULT:      -6.1      4.498      6.374
REMARK  4 active torsions:
REMARK  status: ('A' for Active; 'I' for Inactive)
REMARK    1  A    between atoms: O1_2  and  C2_3 
REMARK    2  A    between atoms: C2_3  and  C3_4 
REMARK    3  A    between atoms: C3_4  and  C4_5 
REMARK    4  A    between atoms: N1_8  and  C7_9 
ROOT
HETATM    1  C4  UNL     1      20.425   2.115  52.265  1.00  0.00     0.039 C 
HETATM    2  C5  UNL     1      21.066   0.762  52.194  1.00  0.00     0.079 C 
HETATM    3  C6  UNL     1      22.332   0.817  51.419  1.00  0.00     0.129 C 
HETATM    4  N1  UNL     1      23.442   1.504  51.978  1.00  0.00    -0.379 N 
HETATM    5  C13 UNL     1      23.247   2.908  52.105  1.00  0.00     0.146 C 
HETATM    6  C14 UNL     1      23.098   3.630  50.830  1.00  0.00     0.251 C 
HETATM    7  N2  UNL     1      21.984   4.315  50.706  1.00  0.00    -0.297 NA
HETATM    8  C15 UNL     1      21.037   4.297  51.798  1.00  0.00     0.168 C 
HETATM    9  N3  UNL     1      20.311   3.493  52.547  1.00  0.00    -0.255 NA
ENDROOT
BRANCH   1  10
HETATM   10  C3  UNL     1      19.180   2.376  51.786  1.00  0.00     0.064 C 
BRANCH  10  11
HETATM   11  C2  UNL     1      17.870   2.912  51.459  1.00  0.00     0.076 C 
HETATM   12  C16 UNL     1      17.141   4.026  51.256  1.00  0.00     0.087 C 
HETATM   13  I1  UNL     1      15.160   3.528  50.799  1.00  0.00    -0.054 I 
BRANCH  11  14
HETATM   14  O1  UNL     1      17.375   1.609  51.374  1.00  0.00    -0.355 OA
HETATM   15  C1  UNL     1      17.786   0.787  50.303  1.00  0.00     0.210 C 
ENDBRANCH  11  14
ENDBRANCH  10  11
ENDBRANCH   1  10
BRANCH   4  16
HETATM   16  C7  UNL     1      24.632   0.826  52.380  1.00  0.00     0.030 A 
HETATM   17  C8  UNL     1      24.635  -0.157  53.346  1.00  0.00     0.029 A 
HETATM   18  C9  UNL     1      25.747  -0.861  53.790  1.00  0.00     0.002 A 
HETATM   19  C10 UNL     1      26.986  -0.552  53.214  1.00  0.00     0.000 A 
HETATM   20  C11 UNL     1      27.031   0.412  52.255  1.00  0.00     0.002 A 
HETATM   21  C12 UNL     1      25.889   1.046  51.886  1.00  0.00     0.029 A 
ENDBRANCH   4  16
TORSDOF 4
ENDMDL
MODEL 9
REMARK VINA RESULT:      -6.0      4.412      7.439
REMARK  4 active torsions:
REMARK  status: ('A' for Active; 'I' for Inactive)
REMARK    1  A    between atoms: O1_2  and  C2_3 
REMARK    2  A    between atoms: C2_3  and  C3_4 
REMARK    3  A    between atoms: C3_4  and  C4_5 
REMARK    4  A    between atoms: N1_8  and  C7_9 
ROOT
HETATM    1  C4  UNL     1      27.270   5.649  48.486  1.00  0.00     0.039 C 
HETATM    2  C5  UNL     1      27.165   4.208  48.883  1.00  0.00     0.079 C 
HETATM    3  C6  UNL     1      26.256   4.044  50.046  1.00  0.00     0.129 C 
HETATM    4  N1  UNL     1      24.866   4.272  49.859  1.00  0.00    -0.379 N 
HETATM    5  C13 UNL     1      24.539   5.626  49.562  1.00  0.00     0.146 C 
HETATM    6  C14 UNL     1      24.826   6.583  50.643  1.00  0.00     0.251 C 
HETATM    7  N2  UNL     1      25.633   7.567  50.315  1.00  0.00    -0.297 NA
HETATM    8  C15 UNL     1      26.148   7.615  48.965  1.00  0.00     0.168 C 
HETATM    9  N3  UNL     1      26.830   6.925  48.075  1.00  0.00    -0.255 NA
ENDROOT
BRANCH   1  10
HETATM   10  C3  UNL     1      28.442   6.336  48.475  1.00  0.00     0.064 C 
BRANCH  10  11
HETATM   11  C2  UNL     1      29.543   7.260  48.261  1.00  0.00     0.076 C 
HETATM   12  C16 UNL     1      29.898   8.499  47.869  1.00  0.00     0.087 C 
HETATM   13  I1  UNL     1      31.975   8.730  47.978  1.00  0.00    -0.054 I 
BRANCH  11  14
HETATM   14  O1  UNL     1      30.434   6.272  48.684  1.00  0.00    -0.355 OA
HETATM   15  C1  UNL     1      30.740   5.205  47.813  1.00  0.00     0.210 C 
ENDBRANCH  11  14
ENDBRANCH  10  11
ENDBRANCH   1  10
BRANCH   4  16
HETATM   16  C7  UNL     1      23.903   3.223  49.954  1.00  0.00     0.030 A 
HETATM   17  C8  UNL     1      23.116   2.842  48.890  1.00  0.00     0.029 A 
HETATM   18  C9  UNL     1      22.160   1.833  48.903  1.00  0.00     0.002 A 
HETATM   19  C10 UNL     1      21.967   1.133  50.101  1.00  0.00     0.000 A 
HETATM   20  C11 UNL     1      22.726   1.475  51.179  1.00  0.00     0.002 A 
HETATM   21  C12 UNL     1      23.635   2.476  51.069  1.00  0.00     0.029 A 
ENDBRANCH   4  16
TORSDOF 4
ENDMDL
