MODEL 1
REMARK VINA RESULT:      -6.2      0.000      0.000
REMARK  4 active torsions:
REMARK  status: ('A' for Active; 'I' for Inactive)
REMARK    1  A    between atoms: O1_2  and  C2_3 
REMARK    2  A    between atoms: C2_3  and  C3_5 
REMARK    3  A    between atoms: C3_5  and  C4_6 
REMARK    4  A    between atoms: C12_17  and  O4_18 
ROOT
HETATM    1  C4  UNL     1      23.538   2.855  50.366  1.00  0.00    -0.010 C 
HETATM    2  C5  UNL     1      22.401   2.779  49.637  1.00  0.00     0.007 C 
HETATM    3  C6  UNL     1      22.776   2.324  48.249  1.00  0.00     0.068 C 
HETATM    4  N1  UNL     1      20.950   2.934  49.615  1.00  0.00    -0.390 N 
HETATM    5  C7  UNL     1      20.087   3.689  50.545  1.00  0.00     0.148 C 
HETATM    6  C8  UNL     1      20.980   4.270  51.653  1.00  0.00     0.010 C 
HETATM    7  C9  UNL     1      22.120   3.657  52.121  1.00  0.00     0.039 C 
HETATM    8  C10 UNL     1      23.325   4.617  52.149  1.00  0.00     0.253 C 
HETATM    9  O3  UNL     1      23.237   5.881  51.862  1.00  0.00    -0.268 OA
HETATM   10  N2  UNL     1      24.407   3.727  52.556  1.00  0.00    -0.334 N 
HETATM   11  C11 UNL     1      23.808   2.652  51.804  1.00  0.00     0.136 A 
HETATM   12  C12 UNL     1      24.662   1.452  52.008  1.00  0.00     0.083 A 
HETATM   13  C14 UNL     1      24.031   0.538  52.714  1.00  0.00     0.036 A 
HETATM   14  C15 UNL     1      22.721   1.053  53.049  1.00  0.00     0.014 A 
HETATM   15  C16 UNL     1      22.574   2.297  52.543  1.00  0.00    -0.003 A 
HETATM   16  H9  UNL     1      20.468   2.448  48.846  1.00  0.00     0.159 HD
HETATM   17  H13 UNL     1      25.130   4.156  53.167  1.00  0.00     0.164 HD
ENDROOT
BRANCH   1  18
HETATM   18  C3  UNL     1      24.769   3.165  49.591  1.00  0.00     0.150 C 
BRANCH  18  19
HETATM   19  C2  UNL     1      25.007   4.550  49.241  1.00  0.00     0.262 C 
HETATM   20  O2  UNL     1      25.976   4.962  49.974  1.00  0.00    -0.265 OA
BRANCH  19  21
HETATM   21  O1  UNL     1      24.949   5.789  48.675  1.00  0.00    -0.326 OA
HETATM   22  C1  UNL     1      23.737   6.343  48.242  1.00  0.00     0.213 C 
ENDBRANCH  19  21
ENDBRANCH  18  19
ENDBRANCH   1  18
BRANCH  12  23
HETATM   23  O4  UNL     1      25.955   1.147  51.597  1.00  0.00    -0.357 OA
HETATM   24  C13 UNL     1      26.719   0.071  52.056  1.00  0.00     0.209 C 
ENDBRANCH  12  23
TORSDOF 4
ENDMDL
MODEL 2
REMARK VINA RESULT:      -6.1      1.719      3.033
REMARK  4 active torsions:
REMARK  status: ('A' for Active; 'I' for Inactive)
REMARK    1  A    between atoms: O1_2  and  C2_3 
REMARK    2  A    between atoms: C2_3  and  C3_5 
REMARK    3  A    between atoms: C3_5  and  C4_6 
REMARK    4  A    between atoms: C12_17  and  O4_18 
ROOT
HETATM    1  C4  UNL     1      23.437   3.317  49.760  1.00  0.00    -0.010 C 
HETATM    2  C5  UNL     1      22.657   2.224  49.600  1.00  0.00     0.007 C 
HETATM    3  C6  UNL     1      22.301   2.123  48.139  1.00  0.00     0.068 C 
HETATM    4  N1  UNL     1      22.014   1.078  50.235  1.00  0.00    -0.390 N 
HETATM    5  C7  UNL     1      21.707   0.863  51.663  1.00  0.00     0.148 C 
HETATM    6  C8  UNL     1      22.258   2.063  52.450  1.00  0.00     0.010 C 
HETATM    7  C9  UNL     1      23.385   2.766  52.090  1.00  0.00     0.039 C 
HETATM    8  C10 UNL     1      23.136   4.286  52.062  1.00  0.00     0.253 C 
HETATM    9  O3  UNL     1      22.019   4.834  52.438  1.00  0.00    -0.268 OA
HETATM   10  N2  UNL     1      24.408   4.788  51.551  1.00  0.00    -0.334 N 
HETATM   11  C11 UNL     1      24.529   3.625  50.707  1.00  0.00     0.136 A 
HETATM   12  C12 UNL     1      25.823   3.747  49.985  1.00  0.00     0.083 A 
HETATM   13  C14 UNL     1      26.676   2.829  50.390  1.00  0.00     0.036 A 
HETATM   14  C15 UNL     1      26.033   2.036  51.414  1.00  0.00     0.014 A 
HETATM   15  C16 UNL     1      24.781   2.495  51.631  1.00  0.00    -0.003 A 
HETATM   16  H9  UNL     1      21.740   0.318  49.596  1.00  0.00     0.159 HD
HETATM   17  H13 UNL     1      24.715   5.700  51.941  1.00  0.00     0.164 HD
ENDROOT
BRANCH   1  18
HETATM   18  C3  UNL     1      23.195   4.417  48.788  1.00  0.00     0.150 C 
BRANCH  18  19
HETATM   19  C2  UNL     1      22.096   5.318  49.060  1.00  0.00     0.262 C 
HETATM   20  O2  UNL     1      22.608   6.444  49.402  1.00  0.00    -0.265 OA
BRANCH  19  21
HETATM   21  O1  UNL     1      20.858   5.867  49.225  1.00  0.00    -0.326 OA
HETATM   22  C1  UNL     1      19.770   5.105  49.670  1.00  0.00     0.213 C 
ENDBRANCH  19  21
ENDBRANCH  18  19
ENDBRANCH   1  18
BRANCH  12  23
HETATM   23  O4  UNL     1      26.264   4.625  49.001  1.00  0.00    -0.357 OA
HETATM   24  C13 UNL     1      27.599   4.872  48.673  1.00  0.00     0.209 C 
ENDBRANCH  12  23
TORSDOF 4
ENDMDL
MODEL 3
REMARK VINA RESULT:      -5.8      2.275      4.324
REMARK  4 active torsions:
REMARK  status: ('A' for Active; 'I' for Inactive)
REMARK    1  A    between atoms: O1_2  and  C2_3 
REMARK    2  A    between atoms: C2_3  and  C3_5 
REMARK    3  A    between atoms: C3_5  and  C4_6 
REMARK    4  A    between atoms: C12_17  and  O4_18 
ROOT
HETATM    1  C4  UNL     1      22.606   3.129  52.072  1.00  0.00    -0.010 C 
HETATM    2  C5  UNL     1      23.372   4.243  52.024  1.00  0.00     0.007 C 
HETATM    3  C6  UNL     1      22.848   5.204  53.061  1.00  0.00     0.068 C 
HETATM    4  N1  UNL     1      24.507   4.920  51.406  1.00  0.00    -0.390 N 
HETATM    5  C7  UNL     1      25.163   4.635  50.115  1.00  0.00     0.148 C 
HETATM    6  C8  UNL     1      24.484   3.399  49.503  1.00  0.00     0.010 C 
HETATM    7  C9  UNL     1      23.953   2.368  50.244  1.00  0.00     0.039 C 
HETATM    8  C10 UNL     1      22.515   2.024  49.813  1.00  0.00     0.253 C 
HETATM    9  O3  UNL     1      21.922   2.579  48.798  1.00  0.00    -0.268 OA
HETATM   10  N2  UNL     1      22.141   1.013  50.797  1.00  0.00    -0.334 N 
HETATM   11  C11 UNL     1      22.907   1.707  51.803  1.00  0.00     0.136 A 
HETATM   12  C12 UNL     1      22.805   0.909  53.053  1.00  0.00     0.083 A 
HETATM   13  C14 UNL     1      23.965   0.370  53.365  1.00  0.00     0.036 A 
HETATM   14  C15 UNL     1      24.924   0.750  52.351  1.00  0.00     0.014 A 
HETATM   15  C16 UNL     1      24.325   1.517  51.415  1.00  0.00    -0.003 A 
HETATM   16  H9  UNL     1      24.901   5.702  51.949  1.00  0.00     0.159 HD
HETATM   17  H13 UNL     1      21.524   0.256  50.444  1.00  0.00     0.164 HD
ENDROOT
BRANCH   1  18
HETATM   18  C3  UNL     1      21.201   3.342  52.511  1.00  0.00     0.150 C 
BRANCH  18  19
HETATM   19  C2  UNL     1      20.294   3.958  51.566  1.00  0.00     0.262 C 
HETATM   20  O2  UNL     1      19.102   3.721  51.979  1.00  0.00    -0.265 OA
BRANCH  19  21
HETATM   21  O1  UNL     1      19.759   4.638  50.511  1.00  0.00    -0.326 OA
HETATM   22  C1  UNL     1      18.392   4.574  50.213  1.00  0.00     0.213 C 
ENDBRANCH  19  21
ENDBRANCH  18  19
ENDBRANCH   1  18
BRANCH  12  23
HETATM   23  O4  UNL     1      21.740   0.648  53.909  1.00  0.00    -0.357 OA
HETATM   24  C13 UNL     1      21.509  -0.561  54.570  1.00  0.00     0.209 C 
ENDBRANCH  12  23
TORSDOF 4
ENDMDL
MODEL 4
REMARK VINA RESULT:      -5.8      5.869      7.325
REMARK  4 active torsions:
REMARK  status: ('A' for Active; 'I' for Inactive)
REMARK    1  A    between atoms: O1_2  and  C2_3 
REMARK    2  A    between atoms: C2_3  and  C3_5 
REMARK    3  A    between atoms: C3_5  and  C4_6 
REMARK    4  A    between atoms: C12_17  and  O4_18 
ROOT
HETATM    1  C4  UNL     1      27.556   8.343  47.241  1.00  0.00    -0.010 C 
HETATM    2  C5  UNL     1      26.529   8.325  46.361  1.00  0.00     0.007 C 
HETATM    3  C6  UNL     1      27.063   8.763  45.021  1.00  0.00     0.068 C 
HETATM    4  N1  UNL     1      25.112   8.049  46.143  1.00  0.00    -0.390 N 
HETATM    5  C7  UNL     1      24.025   7.949  47.136  1.00  0.00     0.148 C 
HETATM    6  C8  UNL     1      24.644   8.118  48.533  1.00  0.00     0.010 C 
HETATM    7  C9  UNL     1      25.916   7.707  48.864  1.00  0.00     0.039 C 
HETATM    8  C10 UNL     1      26.720   8.818  49.565  1.00  0.00     0.253 C 
HETATM    9  O3  UNL     1      26.213   9.969  49.894  1.00  0.00    -0.268 OA
HETATM   10  N2  UNL     1      28.033   8.196  49.703  1.00  0.00    -0.334 N 
HETATM   11  C11 UNL     1      27.851   7.529  48.437  1.00  0.00     0.136 A 
HETATM   12  C12 UNL     1      29.059   6.692  48.212  1.00  0.00     0.083 A 
HETATM   13  C14 UNL     1      28.763   5.410  48.274  1.00  0.00     0.036 A 
HETATM   14  C15 UNL     1      27.350   5.288  48.557  1.00  0.00     0.014 A 
HETATM   15  C16 UNL     1      26.797   6.515  48.677  1.00  0.00    -0.003 A 
HETATM   16  H9  UNL     1      24.840   7.904  45.160  1.00  0.00     0.159 HD
HETATM   17  H13 UNL     1      28.554   8.443  50.567  1.00  0.00     0.164 HD
ENDROOT
BRANCH   1  18
HETATM   18  C3  UNL     1      28.623   9.338  46.949  1.00  0.00     0.150 C 
BRANCH  18  19
HETATM   19  C2  UNL     1      28.462  10.669  47.495  1.00  0.00     0.262 C 
HETATM   20  O2  UNL     1      29.329  10.799  48.431  1.00  0.00    -0.265 OA
BRANCH  19  21
HETATM   21  O1  UNL     1      28.043  11.941  47.749  1.00  0.00    -0.326 OA
HETATM   22  C1  UNL     1      28.544  12.678  48.829  1.00  0.00     0.213 C 
ENDBRANCH  19  21
ENDBRANCH  18  19
ENDBRANCH   1  18
BRANCH  12  23
HETATM   23  O4  UNL     1      30.387   7.018  47.957  1.00  0.00    -0.357 OA
HETATM   24  C13 UNL     1      31.408   7.062  48.909  1.00  0.00     0.209 C 
ENDBRANCH  12  23
TORSDOF 4
ENDMDL
MODEL 5
REMARK VINA RESULT:      -5.7      1.978      4.244
REMARK  4 active torsions:
REMARK  status: ('A' for Active; 'I' for Inactive)
REMARK    1  A    between atoms: O1_2  and  C2_3 
REMARK    2  A    between atoms: C2_3  and  C3_5 
REMARK    3  A    between atoms: C3_5  and  C4_6 
REMARK    4  A    between atoms: C12_17  and  O4_18 
ROOT
HETATM    1  C4  UNL     1      23.598   4.063  51.609  1.00  0.00    -0.010 C 
HETATM    2  C5  UNL     1      23.826   5.300  52.106  1.00  0.00     0.007 C 
HETATM    3  C6  UNL     1      23.381   5.306  53.547  1.00  0.00     0.068 C 
HETATM    4  N1  UNL     1      24.335   6.644  51.852  1.00  0.00    -0.390 N 
HETATM    5  C7  UNL     1      24.554   7.321  50.559  1.00  0.00     0.148 C 
HETATM    6  C8  UNL     1      24.215   6.324  49.440  1.00  0.00     0.010 C 
HETATM    7  C9  UNL     1      24.400   4.963  49.541  1.00  0.00     0.039 C 
HETATM    8  C10 UNL     1      23.139   4.175  49.138  1.00  0.00     0.253 C 
HETATM    9  O3  UNL     1      22.068   4.736  48.661  1.00  0.00    -0.268 OA
HETATM   10  N2  UNL     1      23.537   2.802  49.436  1.00  0.00    -0.334 N 
HETATM   11  C11 UNL     1      24.290   3.267  50.575  1.00  0.00     0.136 A 
HETATM   12  C12 UNL     1      24.935   2.073  51.183  1.00  0.00     0.083 A 
HETATM   13  C14 UNL     1      26.242   2.114  51.030  1.00  0.00     0.036 A 
HETATM   14  C15 UNL     1      26.572   3.319  50.302  1.00  0.00     0.014 A 
HETATM   15  C16 UNL     1      25.445   4.002  50.007  1.00  0.00    -0.003 A 
HETATM   16  H9  UNL     1      24.573   7.189  52.693  1.00  0.00     0.159 HD
HETATM   17  H13 UNL     1      23.164   2.081  48.788  1.00  0.00     0.164 HD
ENDROOT
BRANCH   1  18
HETATM   18  C3  UNL     1      22.463   3.329  52.231  1.00  0.00     0.150 C 
BRANCH  18  19
HETATM   19  C2  UNL     1      21.124   3.781  51.917  1.00  0.00     0.262 C 
HETATM   20  O2  UNL     1      20.333   3.234  52.767  1.00  0.00    -0.265 OA
BRANCH  19  21
HETATM   21  O1  UNL     1      20.043   4.392  51.353  1.00  0.00    -0.326 OA
HETATM   22  C1  UNL     1      19.017   3.657  50.746  1.00  0.00     0.213 C 
ENDBRANCH  19  21
ENDBRANCH  18  19
ENDBRANCH   1  18
BRANCH  12  23
HETATM   23  O4  UNL     1      24.415   0.972  51.855  1.00  0.00    -0.357 OA
HETATM   24  C13 UNL     1      25.031   0.304  52.916  1.00  0.00     0.209 C 
ENDBRANCH  12  23
TORSDOF 4
ENDMDL
MODEL 6
REMARK VINA RESULT:      -5.6     23.045     24.626
REMARK  4 active torsions:
REMARK  status: ('A' for Active; 'I' for Inactive)
REMARK    1  A    between atoms: O1_2  and  C2_3 
REMARK    2  A    between atoms: C2_3  and  C3_5 
REMARK    3  A    between atoms: C3_5  and  C4_6 
REMARK    4  A    between atoms: C12_17  and  O4_18 
ROOT
HETATM    1  C4  UNL     1      39.237  -1.865  69.165  1.00  0.00    -0.010 C 
HETATM    2  C5  UNL     1      40.077  -1.639  70.202  1.00  0.00     0.007 C 
HETATM    3  C6  UNL     1      39.238  -1.469  71.443  1.00  0.00     0.068 C 
HETATM    4  N1  UNL     1      41.460  -1.502  70.646  1.00  0.00    -0.390 N 
HETATM    5  C7  UNL     1      42.665  -1.212  69.844  1.00  0.00     0.148 C 
HETATM    6  C8  UNL     1      42.243  -1.139  68.368  1.00  0.00     0.010 C 
HETATM    7  C9  UNL     1      41.220  -1.882  67.824  1.00  0.00     0.039 C 
HETATM    8  C10 UNL     1      40.235  -1.012  67.020  1.00  0.00     0.253 C 
HETATM    9  O3  UNL     1      40.418   0.257  66.801  1.00  0.00    -0.268 OA
HETATM   10  N2  UNL     1      39.207  -1.981  66.655  1.00  0.00    -0.334 N 
HETATM   11  C11 UNL     1      39.386  -2.648  67.922  1.00  0.00     0.136 A 
HETATM   12  C12 UNL     1      38.466  -3.816  67.930  1.00  0.00     0.083 A 
HETATM   13  C14 UNL     1      39.139  -4.947  67.894  1.00  0.00     0.036 A 
HETATM   14  C15 UNL     1      40.549  -4.630  67.845  1.00  0.00     0.014 A 
HETATM   15  C16 UNL     1      40.719  -3.290  67.841  1.00  0.00    -0.003 A 
HETATM   16  H9  UNL     1      41.610  -1.626  71.658  1.00  0.00     0.159 HD
HETATM   17  H13 UNL     1      38.774  -1.840  65.722  1.00  0.00     0.164 HD
ENDROOT
BRANCH   1  18
HETATM   18  C3  UNL     1      37.889  -1.249  69.295  1.00  0.00     0.150 C 
BRANCH  18  19
HETATM   19  C2  UNL     1      37.779   0.174  69.050  1.00  0.00     0.262 C 
HETATM   20  O2  UNL     1      37.152   0.317  67.940  1.00  0.00    -0.265 OA
BRANCH  19  21
HETATM   21  O1  UNL     1      37.860   1.532  69.144  1.00  0.00    -0.326 OA
HETATM   22  C1  UNL     1      38.427   2.159  70.261  1.00  0.00     0.213 C 
ENDBRANCH  19  21
ENDBRANCH  18  19
ENDBRANCH   1  18
BRANCH  12  23
HETATM   23  O4  UNL     1      37.079  -3.911  67.967  1.00  0.00    -0.357 OA
HETATM   24  C13 UNL     1      36.352  -4.908  68.621  1.00  0.00     0.209 C 
ENDBRANCH  12  23
TORSDOF 4
ENDMDL
MODEL 7
REMARK VINA RESULT:      -5.4      6.417      8.309
REMARK  4 active torsions:
REMARK  status: ('A' for Active; 'I' for Inactive)
REMARK    1  A    between atoms: O1_2  and  C2_3 
REMARK    2  A    between atoms: C2_3  and  C3_5 
REMARK    3  A    between atoms: C3_5  and  C4_6 
REMARK    4  A    between atoms: C12_17  and  O4_18 
ROOT
HETATM    1  C4  UNL     1      29.040   8.101  46.931  1.00  0.00    -0.010 C 
HETATM    2  C5  UNL     1      28.115   8.670  46.125  1.00  0.00     0.007 C 
HETATM    3  C6  UNL     1      28.595   8.529  44.703  1.00  0.00     0.068 C 
HETATM    4  N1  UNL     1      26.831   9.358  46.034  1.00  0.00    -0.390 N 
HETATM    5  C7  UNL     1      26.091  10.079  47.087  1.00  0.00     0.148 C 
HETATM    6  C8  UNL     1      26.878   9.936  48.400  1.00  0.00     0.010 C 
HETATM    7  C9  UNL     1      27.635   8.834  48.726  1.00  0.00     0.039 C 
HETATM    8  C10 UNL     1      29.054   9.219  49.184  1.00  0.00     0.253 C 
HETATM    9  O3  UNL     1      29.445  10.449  49.341  1.00  0.00    -0.268 OA
HETATM   10  N2  UNL     1      29.680   7.911  49.354  1.00  0.00    -0.334 N 
HETATM   11  C11 UNL     1      28.929   7.406  48.230  1.00  0.00     0.136 A 
HETATM   12  C12 UNL     1      29.284   5.970  48.083  1.00  0.00     0.083 A 
HETATM   13  C14 UNL     1      28.259   5.198  48.377  1.00  0.00     0.036 A 
HETATM   14  C15 UNL     1      27.150   6.047  48.753  1.00  0.00     0.014 A 
HETATM   15  C16 UNL     1      27.524   7.344  48.694  1.00  0.00    -0.003 A 
HETATM   16  H9  UNL     1      26.384   9.332  45.106  1.00  0.00     0.159 HD
HETATM   17  H13 UNL     1      30.362   7.842  50.134  1.00  0.00     0.164 HD
ENDROOT
BRANCH   1  18
HETATM   18  C3  UNL     1      30.436   8.135  46.418  1.00  0.00     0.150 C 
BRANCH  18  19
HETATM   19  C2  UNL     1      31.200   9.343  46.643  1.00  0.00     0.262 C 
HETATM   20  O2  UNL     1      32.127   9.051  47.482  1.00  0.00    -0.265 OA
BRANCH  19  21
HETATM   21  O1  UNL     1      31.675  10.621  46.612  1.00  0.00    -0.326 OA
HETATM   22  C1  UNL     1      30.962  11.654  45.990  1.00  0.00     0.213 C 
ENDBRANCH  19  21
ENDBRANCH  18  19
ENDBRANCH   1  18
BRANCH  12  23
HETATM   23  O4  UNL     1      30.462   5.333  47.705  1.00  0.00    -0.357 OA
HETATM   24  C13 UNL     1      31.648   5.318  48.442  1.00  0.00     0.209 C 
ENDBRANCH  12  23
TORSDOF 4
ENDMDL
MODEL 8
REMARK VINA RESULT:      -5.2     23.386     25.159
REMARK  4 active torsions:
REMARK  status: ('A' for Active; 'I' for Inactive)
REMARK    1  A    between atoms: O1_2  and  C2_3 
REMARK    2  A    between atoms: C2_3  and  C3_5 
REMARK    3  A    between atoms: C3_5  and  C4_6 
REMARK    4  A    between atoms: C12_17  and  O4_18 
ROOT
HETATM    1  C4  UNL     1      40.148   0.002  69.763  1.00  0.00    -0.010 C 
HETATM    2  C5  UNL     1      41.058  -0.895  70.208  1.00  0.00     0.007 C 
HETATM    3  C6  UNL     1      41.785  -0.272  71.373  1.00  0.00     0.068 C 
HETATM    4  N1  UNL     1      41.638  -2.225  70.055  1.00  0.00    -0.390 N 
HETATM    5  C7  UNL     1      41.591  -3.127  68.887  1.00  0.00     0.148 C 
HETATM    6  C8  UNL     1      40.729  -2.455  67.806  1.00  0.00     0.010 C 
HETATM    7  C9  UNL     1      39.662  -1.628  68.079  1.00  0.00     0.039 C 
HETATM    8  C10 UNL     1      39.742  -0.302  67.299  1.00  0.00     0.253 C 
HETATM    9  O3  UNL     1      40.658  -0.049  66.413  1.00  0.00    -0.268 OA
HETATM   10  N2  UNL     1      38.597   0.429  67.833  1.00  0.00    -0.334 N 
HETATM   11  C11 UNL     1      38.823  -0.161  69.130  1.00  0.00     0.136 A 
HETATM   12  C12 UNL     1      37.752   0.343  70.028  1.00  0.00     0.083 A 
HETATM   13  C14 UNL     1      36.929  -0.626  70.371  1.00  0.00     0.036 A 
HETATM   14  C15 UNL     1      37.371  -1.841  69.725  1.00  0.00     0.014 A 
HETATM   15  C16 UNL     1      38.468  -1.592  68.976  1.00  0.00    -0.003 A 
HETATM   16  H9  UNL     1      42.147  -2.579  70.878  1.00  0.00     0.159 HD
HETATM   17  H13 UNL     1      38.102   1.039  67.153  1.00  0.00     0.164 HD
ENDROOT
BRANCH   1  18
HETATM   18  C3  UNL     1      40.509   1.430  69.973  1.00  0.00     0.150 C 
BRANCH  18  19
HETATM   19  C2  UNL     1      41.639   1.949  69.231  1.00  0.00     0.262 C 
HETATM   20  O2  UNL     1      41.692   3.210  69.460  1.00  0.00    -0.265 OA
BRANCH  19  21
HETATM   21  O1  UNL     1      42.735   2.079  68.431  1.00  0.00    -0.326 OA
HETATM   22  C1  UNL     1      43.547   0.983  68.112  1.00  0.00     0.213 C 
ENDBRANCH  19  21
ENDBRANCH  18  19
ENDBRANCH   1  18
BRANCH  12  23
HETATM   23  O4  UNL     1      37.485   1.607  70.544  1.00  0.00    -0.357 OA
HETATM   24  C13 UNL     1      36.931   1.870  71.799  1.00  0.00     0.209 C 
ENDBRANCH  12  23
TORSDOF 4
ENDMDL
MODEL 9
REMARK VINA RESULT:      -5.2      6.707      9.218
REMARK  4 active torsions:
REMARK  status: ('A' for Active; 'I' for Inactive)
REMARK    1  A    between atoms: O1_2  and  C2_3 
REMARK    2  A    between atoms: C2_3  and  C3_5 
REMARK    3  A    between atoms: C3_5  and  C4_6 
REMARK    4  A    between atoms: C12_17  and  O4_18 
ROOT
HETATM    1  C4  UNL     1      29.191   8.850  47.335  1.00  0.00    -0.010 C 
HETATM    2  C5  UNL     1      29.173  10.099  46.816  1.00  0.00     0.007 C 
HETATM    3  C6  UNL     1      28.721   9.995  45.382  1.00  0.00     0.068 C 
HETATM    4  N1  UNL     1      29.393  11.523  47.051  1.00  0.00    -0.390 N 
HETATM    5  C7  UNL     1      30.173  12.174  48.122  1.00  0.00     0.148 C 
HETATM    6  C8  UNL     1      30.700  11.075  49.058  1.00  0.00     0.010 C 
HETATM    7  C9  UNL     1      30.031   9.900  49.315  1.00  0.00     0.039 C 
HETATM    8  C10 UNL     1      30.937   8.666  49.136  1.00  0.00     0.253 C 
HETATM    9  O3  UNL     1      32.208   8.745  48.875  1.00  0.00    -0.268 OA
HETATM   10  N2  UNL     1      29.995   7.570  49.342  1.00  0.00    -0.334 N 
HETATM   11  C11 UNL     1      28.957   8.341  48.702  1.00  0.00     0.136 A 
HETATM   12  C12 UNL     1      27.718   7.520  48.746  1.00  0.00     0.083 A 
HETATM   13  C14 UNL     1      26.824   8.059  49.548  1.00  0.00     0.036 A 
HETATM   14  C15 UNL     1      27.392   9.264  50.110  1.00  0.00     0.014 A 
HETATM   15  C16 UNL     1      28.648   9.441  49.645  1.00  0.00    -0.003 A 
HETATM   16  H9  UNL     1      28.938  12.154  46.376  1.00  0.00     0.159 HD
HETATM   17  H13 UNL     1      30.384   6.733  49.818  1.00  0.00     0.164 HD
ENDROOT
BRANCH   1  18
HETATM   18  C3  UNL     1      29.456   7.761  46.357  1.00  0.00     0.150 C 
BRANCH  18  19
HETATM   19  C2  UNL     1      30.803   7.235  46.293  1.00  0.00     0.262 C 
HETATM   20  O2  UNL     1      31.464   7.989  45.493  1.00  0.00    -0.265 OA
BRANCH  19  21
HETATM   21  O1  UNL     1      31.931   6.490  46.472  1.00  0.00    -0.326 OA
HETATM   22  C1  UNL     1      31.924   5.319  47.241  1.00  0.00     0.213 C 
ENDBRANCH  19  21
ENDBRANCH  18  19
ENDBRANCH   1  18
BRANCH  12  23
HETATM   23  O4  UNL     1      27.361   6.334  48.113  1.00  0.00    -0.357 OA
HETATM   24  C13 UNL     1      27.250   5.086  48.730  1.00  0.00     0.209 C 
ENDBRANCH  12  23
TORSDOF 4
ENDMDL
