MODEL 1
REMARK VINA RESULT:      -8.4      0.000      0.000
REMARK  7 active torsions:
REMARK  status: ('A' for Active; 'I' for Inactive)
REMARK    1  A    between atoms: O1_2  and  C2_3 
REMARK    2  A    between atoms: C6_9  and  N3_10 
REMARK    3  A    between atoms: N3_10  and  C7_11 
REMARK    4  A    between atoms: C14_21  and  O2_22 
REMARK    5  A    between atoms: O2_22  and  C15_23 
REMARK    6  A    between atoms: C15_23  and  C16_24 
REMARK    7  A    between atoms: C16_24  and  C17_25 
ROOT
HETATM    1  C2  UNL     1      22.701   0.080  52.941  1.00  0.00     0.104 C 
HETATM    2  C3  UNL     1      21.567   0.732  52.609  1.00  0.00     0.072 C 
HETATM    3  C4  UNL     1      21.811   2.106  52.186  1.00  0.00     0.066 A 
HETATM    4  N1  UNL     1      20.950   3.066  52.420  1.00  0.00    -0.242 NA
HETATM    5  C5  UNL     1      21.278   4.403  51.974  1.00  0.00     0.230 A 
HETATM    6  N2  UNL     1      22.329   4.772  51.374  1.00  0.00    -0.253 NA
HETATM    7  C6  UNL     1      23.485   4.049  50.956  1.00  0.00     0.238 A 
HETATM    8  P1  UNL     1      23.344   2.317  51.277  1.00  0.00    -0.021 P 
HETATM    9  C13 UNL     1      24.478   1.678  52.218  1.00  0.00     0.021 C 
HETATM   10  C14 UNL     1      24.090   0.601  52.919  1.00  0.00     0.114 C 
HETATM   11  H11 UNL     1      23.248   1.580  50.066  1.00  0.00     0.068 HD
ENDROOT
BRANCH   7  12
HETATM   12  N3  UNL     1      23.741   4.366  49.560  1.00  0.00    -0.363 N 
HETATM   13  H7  UNL     1      23.020   4.221  48.821  1.00  0.00     0.162 HD
BRANCH  12  14
HETATM   14  C7  UNL     1      25.005   4.890  49.168  1.00  0.00     0.031 A 
HETATM   15  C8  UNL     1      26.162   4.107  49.247  1.00  0.00     0.032 A 
HETATM   16  C9  UNL     1      27.421   4.558  48.881  1.00  0.00     0.046 A 
HETATM   17  C10 UNL     1      27.559   5.843  48.414  1.00  0.00     0.138 A 
HETATM   18  F1  UNL     1      28.790   6.264  48.063  1.00  0.00    -0.204 F 
HETATM   19  C11 UNL     1      26.426   6.624  48.332  1.00  0.00     0.074 A 
HETATM   20 CL1  UNL     1      26.673   8.268  47.724  1.00  0.00    -0.081 Cl
HETATM   21  C12 UNL     1      25.178   6.163  48.700  1.00  0.00     0.056 A 
ENDBRANCH  12  14
ENDBRANCH   7  12
BRANCH  10  22
HETATM   22  O2  UNL     1      24.989  -0.115  53.692  1.00  0.00    -0.347 OA
BRANCH  22  23
HETATM   23  C15 UNL     1      25.796  -1.168  53.265  1.00  0.00     0.180 C 
BRANCH  23  24
HETATM   24  C16 UNL     1      27.158  -0.712  52.793  1.00  0.00     0.091 C 
BRANCH  24  25
HETATM   25  C17 UNL     1      27.605   0.485  53.626  1.00  0.00     0.360 C 
HETATM   26  O3  UNL     1      27.911   1.587  52.867  1.00  0.00    -0.355 OA
HETATM   27  C18 UNL     1      28.771   2.361  53.616  1.00  0.00     0.201 C 
HETATM   28  C19 UNL     1      29.227   1.518  54.791  1.00  0.00     0.301 C 
HETATM   29  N4  UNL     1      28.780   0.200  54.379  1.00  0.00     0.115 N 
HETATM   30  C20 UNL     1      29.798  -0.360  53.519  1.00  0.00     0.313 C 
ENDBRANCH  24  25
ENDBRANCH  23  24
ENDBRANCH  22  23
ENDBRANCH  10  22
BRANCH   1  31
HETATM   31  O1  UNL     1      22.464  -1.228  53.342  1.00  0.00    -0.353 OA
HETATM   32  C1  UNL     1      21.813  -1.614  54.514  1.00  0.00     0.210 C 
ENDBRANCH   1  31
TORSDOF 7
ENDMDL
MODEL 2
REMARK VINA RESULT:      -8.0      4.170      7.200
REMARK  7 active torsions:
REMARK  status: ('A' for Active; 'I' for Inactive)
REMARK    1  A    between atoms: O1_2  and  C2_3 
REMARK    2  A    between atoms: C6_9  and  N3_10 
REMARK    3  A    between atoms: N3_10  and  C7_11 
REMARK    4  A    between atoms: C14_21  and  O2_22 
REMARK    5  A    between atoms: O2_22  and  C15_23 
REMARK    6  A    between atoms: C15_23  and  C16_24 
REMARK    7  A    between atoms: C16_24  and  C17_25 
ROOT
HETATM    1  C2  UNL     1      24.108   5.451  50.079  1.00  0.00     0.104 C 
HETATM    2  C3  UNL     1      23.008   5.005  50.724  1.00  0.00     0.072 C 
HETATM    3  C4  UNL     1      23.127   3.613  51.140  1.00  0.00     0.066 A 
HETATM    4  N1  UNL     1      22.090   2.813  51.185  1.00  0.00    -0.242 NA
HETATM    5  C5  UNL     1      22.300   1.442  51.601  1.00  0.00     0.230 A 
HETATM    6  N2  UNL     1      23.396   0.904  51.930  1.00  0.00    -0.253 NA
HETATM    7  C6  UNL     1      24.723   1.421  51.999  1.00  0.00     0.238 A 
HETATM    8  P1  UNL     1      24.788   3.150  51.637  1.00  0.00    -0.021 P 
HETATM    9  C13 UNL     1      25.726   3.578  50.405  1.00  0.00     0.021 C 
HETATM   10  C14 UNL     1      25.349   4.700  49.771  1.00  0.00     0.114 C 
HETATM   11  H11 UNL     1      25.134   3.901  52.791  1.00  0.00     0.068 HD
ENDROOT
BRANCH   7  12
HETATM   12  N3  UNL     1      25.280   1.075  53.298  1.00  0.00    -0.363 N 
HETATM   13  H7  UNL     1      24.732   1.182  54.178  1.00  0.00     0.162 HD
BRANCH  12  14
HETATM   14  C7  UNL     1      26.609   0.576  53.393  1.00  0.00     0.031 A 
HETATM   15  C8  UNL     1      27.671   1.419  53.737  1.00  0.00     0.032 A 
HETATM   16  C9  UNL     1      28.986   0.994  53.847  1.00  0.00     0.046 A 
HETATM   17  C10 UNL     1      29.281  -0.326  53.607  1.00  0.00     0.138 A 
HETATM   18  F1  UNL     1      30.565  -0.721  53.718  1.00  0.00    -0.204 F 
HETATM   19  C11 UNL     1      28.243  -1.167  53.267  1.00  0.00     0.074 A 
HETATM   20 CL1  UNL     1      28.693  -2.853  52.969  1.00  0.00    -0.081 Cl
HETATM   21  C12 UNL     1      26.939  -0.731  53.161  1.00  0.00     0.056 A 
ENDBRANCH  12  14
ENDBRANCH   7  12
BRANCH  10  22
HETATM   22  O2  UNL     1      26.120   5.246  48.758  1.00  0.00    -0.347 OA
BRANCH  22  23
HETATM   23  C15 UNL     1      27.498   5.111  48.599  1.00  0.00     0.180 C 
BRANCH  23  24
HETATM   24  C16 UNL     1      28.172   6.400  48.186  1.00  0.00     0.091 C 
BRANCH  24  25
HETATM   25  C17 UNL     1      29.646   6.129  47.901  1.00  0.00     0.360 C 
HETATM   26  O3  UNL     1      30.270   5.431  48.905  1.00  0.00    -0.355 OA
HETATM   27  C18 UNL     1      31.616   5.712  48.809  1.00  0.00     0.201 C 
HETATM   28  C19 UNL     1      31.764   6.879  47.854  1.00  0.00     0.301 C 
HETATM   29  N4  UNL     1      30.390   7.335  47.754  1.00  0.00     0.115 N 
HETATM   30  C20 UNL     1      30.135   8.216  48.871  1.00  0.00     0.313 C 
ENDBRANCH  24  25
ENDBRANCH  23  24
ENDBRANCH  22  23
ENDBRANCH  10  22
BRANCH   1  31
HETATM   31  O1  UNL     1      23.991   6.777  49.685  1.00  0.00    -0.353 OA
HETATM   32  C1  UNL     1      24.252   7.890  50.486  1.00  0.00     0.210 C 
ENDBRANCH   1  31
TORSDOF 7
ENDMDL
MODEL 3
REMARK VINA RESULT:      -7.8      4.883      7.236
REMARK  7 active torsions:
REMARK  status: ('A' for Active; 'I' for Inactive)
REMARK    1  A    between atoms: O1_2  and  C2_3 
REMARK    2  A    between atoms: C6_9  and  N3_10 
REMARK    3  A    between atoms: N3_10  and  C7_11 
REMARK    4  A    between atoms: C14_21  and  O2_22 
REMARK    5  A    between atoms: O2_22  and  C15_23 
REMARK    6  A    between atoms: C15_23  and  C16_24 
REMARK    7  A    between atoms: C16_24  and  C17_25 
ROOT
HETATM    1  C2  UNL     1      25.832   6.393  48.551  1.00  0.00     0.104 C 
HETATM    2  C3  UNL     1      26.225   7.681  48.464  1.00  0.00     0.072 C 
HETATM    3  C4  UNL     1      27.663   7.843  48.641  1.00  0.00     0.066 A 
HETATM    4  N1  UNL     1      28.176   8.908  49.207  1.00  0.00    -0.242 NA
HETATM    5  C5  UNL     1      29.614   8.982  49.352  1.00  0.00     0.230 A 
HETATM    6  N2  UNL     1      30.463   8.115  48.995  1.00  0.00    -0.253 NA
HETATM    7  C6  UNL     1      30.312   6.842  48.370  1.00  0.00     0.238 A 
HETATM    8  P1  UNL     1      28.629   6.493  47.958  1.00  0.00    -0.021 P 
HETATM    9  C13 UNL     1      28.004   5.164  48.607  1.00  0.00     0.021 C 
HETATM   10  C14 UNL     1      26.676   5.198  48.798  1.00  0.00     0.114 C 
HETATM   11  H11 UNL     1      28.440   6.479  46.550  1.00  0.00     0.068 HD
ENDROOT
BRANCH   7  12
HETATM   12  N3  UNL     1      31.216   6.783  47.231  1.00  0.00    -0.363 N 
HETATM   13  H7  UNL     1      31.144   7.454  46.436  1.00  0.00     0.162 HD
BRANCH  12  14
HETATM   14  C7  UNL     1      32.235   5.791  47.181  1.00  0.00     0.031 A 
HETATM   15  C8  UNL     1      33.587   6.148  47.193  1.00  0.00     0.032 A 
HETATM   16  C9  UNL     1      34.625   5.230  47.147  1.00  0.00     0.046 A 
HETATM   17  C10 UNL     1      34.327   3.890  47.085  1.00  0.00     0.138 A 
HETATM   18  F1  UNL     1      35.349   3.013  47.040  1.00  0.00    -0.204 F 
HETATM   19  C11 UNL     1      32.997   3.526  47.071  1.00  0.00     0.074 A 
HETATM   20 CL1  UNL     1      32.683   1.786  46.988  1.00  0.00    -0.081 Cl
HETATM   21  C12 UNL     1      31.974   4.450  47.118  1.00  0.00     0.056 A 
ENDBRANCH  12  14
ENDBRANCH   7  12
BRANCH  10  22
HETATM   22  O2  UNL     1      25.986   4.086  49.253  1.00  0.00    -0.347 OA
BRANCH  22  23
HETATM   23  C15 UNL     1      25.806   3.707  50.581  1.00  0.00     0.180 C 
BRANCH  23  24
HETATM   24  C16 UNL     1      26.321   2.315  50.872  1.00  0.00     0.091 C 
BRANCH  24  25
HETATM   25  C17 UNL     1      26.784   2.242  52.324  1.00  0.00     0.360 C 
HETATM   26  O3  UNL     1      28.147   2.327  52.461  1.00  0.00    -0.355 OA
HETATM   27  C18 UNL     1      28.465   1.731  53.662  1.00  0.00     0.201 C 
HETATM   28  C19 UNL     1      27.230   0.992  54.138  1.00  0.00     0.301 C 
HETATM   29  N4  UNL     1      26.412   1.012  52.938  1.00  0.00     0.115 N 
HETATM   30  C20 UNL     1      26.819  -0.101  52.110  1.00  0.00     0.313 C 
ENDBRANCH  24  25
ENDBRANCH  23  24
ENDBRANCH  22  23
ENDBRANCH  10  22
BRANCH   1  31
HETATM   31  O1  UNL     1      24.462   6.243  48.380  1.00  0.00    -0.353 OA
HETATM   32  C1  UNL     1      23.680   6.921  47.443  1.00  0.00     0.210 C 
ENDBRANCH   1  31
TORSDOF 7
ENDMDL
MODEL 4
REMARK VINA RESULT:      -7.8      3.787      7.138
REMARK  7 active torsions:
REMARK  status: ('A' for Active; 'I' for Inactive)
REMARK    1  A    between atoms: O1_2  and  C2_3 
REMARK    2  A    between atoms: C6_9  and  N3_10 
REMARK    3  A    between atoms: N3_10  and  C7_11 
REMARK    4  A    between atoms: C14_21  and  O2_22 
REMARK    5  A    between atoms: O2_22  and  C15_23 
REMARK    6  A    between atoms: C15_23  and  C16_24 
REMARK    7  A    between atoms: C16_24  and  C17_25 
ROOT
HETATM    1  C2  UNL     1      24.260   5.634  50.856  1.00  0.00     0.104 C 
HETATM    2  C3  UNL     1      23.175   5.486  51.647  1.00  0.00     0.072 C 
HETATM    3  C4  UNL     1      22.861   4.088  51.915  1.00  0.00     0.066 A 
HETATM    4  N1  UNL     1      21.628   3.673  52.075  1.00  0.00    -0.242 NA
HETATM    5  C5  UNL     1      21.406   2.266  52.328  1.00  0.00     0.230 A 
HETATM    6  N2  UNL     1      22.283   1.357  52.408  1.00  0.00    -0.253 NA
HETATM    7  C6  UNL     1      23.703   1.395  52.282  1.00  0.00     0.238 A 
HETATM    8  P1  UNL     1      24.311   3.040  52.064  1.00  0.00    -0.021 P 
HETATM    9  C13 UNL     1      25.157   3.308  50.725  1.00  0.00     0.021 C 
HETATM   10  C14 UNL     1      25.108   4.569  50.268  1.00  0.00     0.114 C 
HETATM   11  H11 UNL     1      25.052   3.465  53.198  1.00  0.00     0.068 HD
ENDROOT
BRANCH   7  12
HETATM   12  N3  UNL     1      24.280   0.706  53.426  1.00  0.00    -0.363 N 
HETATM   13  H7  UNL     1      23.727   0.511  54.288  1.00  0.00     0.162 HD
BRANCH  12  14
HETATM   14  C7  UNL     1      25.636   0.277  53.388  1.00  0.00     0.031 A 
HETATM   15  C8  UNL     1      25.989  -0.939  52.793  1.00  0.00     0.032 A 
HETATM   16  C9  UNL     1      27.290  -1.412  52.724  1.00  0.00     0.046 A 
HETATM   17  C10 UNL     1      28.303  -0.658  53.265  1.00  0.00     0.138 A 
HETATM   18  F1  UNL     1      29.562  -1.134  53.189  1.00  0.00    -0.204 F 
HETATM   19  C11 UNL     1      27.968   0.542  53.855  1.00  0.00     0.074 A 
HETATM   20 CL1  UNL     1      29.318   1.463  54.534  1.00  0.00    -0.081 Cl
HETATM   21  C12 UNL     1      26.668   1.001  53.917  1.00  0.00     0.056 A 
ENDBRANCH  12  14
ENDBRANCH   7  12
BRANCH  10  22
HETATM   22  O2  UNL     1      25.871   4.970  49.183  1.00  0.00    -0.347 OA
BRANCH  22  23
HETATM   23  C15 UNL     1      27.202   4.640  48.938  1.00  0.00     0.180 C 
BRANCH  23  24
HETATM   24  C16 UNL     1      28.004   5.796  48.382  1.00  0.00     0.091 C 
BRANCH  24  25
HETATM   25  C17 UNL     1      27.184   7.077  48.496  1.00  0.00     0.360 C 
HETATM   26  O3  UNL     1      26.851   7.615  47.278  1.00  0.00    -0.355 OA
HETATM   27  C18 UNL     1      26.619   8.958  47.485  1.00  0.00     0.201 C 
HETATM   28  C19 UNL     1      27.124   9.292  48.875  1.00  0.00     0.301 C 
HETATM   29  N4  UNL     1      27.894   8.102  49.187  1.00  0.00     0.115 N 
HETATM   30  C20 UNL     1      29.211   8.267  48.614  1.00  0.00     0.313 C 
ENDBRANCH  24  25
ENDBRANCH  23  24
ENDBRANCH  22  23
ENDBRANCH  10  22
BRANCH   1  31
HETATM   31  O1  UNL     1      24.556   6.967  50.605  1.00  0.00    -0.353 OA
HETATM   32  C1  UNL     1      23.729   7.872  49.937  1.00  0.00     0.210 C 
ENDBRANCH   1  31
TORSDOF 7
ENDMDL
MODEL 5
REMARK VINA RESULT:      -7.6      4.905      7.955
REMARK  7 active torsions:
REMARK  status: ('A' for Active; 'I' for Inactive)
REMARK    1  A    between atoms: O1_2  and  C2_3 
REMARK    2  A    between atoms: C6_9  and  N3_10 
REMARK    3  A    between atoms: N3_10  and  C7_11 
REMARK    4  A    between atoms: C14_21  and  O2_22 
REMARK    5  A    between atoms: O2_22  and  C15_23 
REMARK    6  A    between atoms: C15_23  and  C16_24 
REMARK    7  A    between atoms: C16_24  and  C17_25 
ROOT
HETATM    1  C2  UNL     1      27.132   7.027  48.109  1.00  0.00     0.104 C 
HETATM    2  C3  UNL     1      25.814   7.314  48.176  1.00  0.00     0.072 C 
HETATM    3  C4  UNL     1      25.003   6.155  48.529  1.00  0.00     0.066 A 
HETATM    4  N1  UNL     1      23.787   5.994  48.067  1.00  0.00    -0.242 NA
HETATM    5  C5  UNL     1      23.056   4.808  48.461  1.00  0.00     0.230 A 
HETATM    6  N2  UNL     1      23.463   3.876  49.213  1.00  0.00    -0.253 NA
HETATM    7  C6  UNL     1      24.702   3.675  49.889  1.00  0.00     0.238 A 
HETATM    8  P1  UNL     1      25.806   5.040  49.684  1.00  0.00    -0.021 P 
HETATM    9  C13 UNL     1      27.228   4.704  49.019  1.00  0.00     0.021 C 
HETATM   10  C14 UNL     1      27.791   5.719  48.344  1.00  0.00     0.114 C 
HETATM   11  H11 UNL     1      25.996   5.731  50.910  1.00  0.00     0.068 HD
ENDROOT
BRANCH   7  12
HETATM   12  N3  UNL     1      24.416   3.359  51.281  1.00  0.00    -0.363 N 
HETATM   13  H7  UNL     1      23.894   4.017  51.898  1.00  0.00     0.162 HD
BRANCH  12  14
HETATM   14  C7  UNL     1      24.852   2.123  51.834  1.00  0.00     0.031 A 
HETATM   15  C8  UNL     1      26.116   1.606  51.532  1.00  0.00     0.032 A 
HETATM   16  C9  UNL     1      26.598   0.410  52.040  1.00  0.00     0.046 A 
HETATM   17  C10 UNL     1      25.804  -0.323  52.887  1.00  0.00     0.138 A 
HETATM   18  F1  UNL     1      26.290  -1.484  53.370  1.00  0.00    -0.204 F 
HETATM   19  C11 UNL     1      24.555   0.175  53.192  1.00  0.00     0.074 A 
HETATM   20 CL1  UNL     1      23.582  -0.818  54.288  1.00  0.00    -0.081 Cl
HETATM   21  C12 UNL     1      24.087   1.368  52.680  1.00  0.00     0.056 A 
ENDBRANCH  12  14
ENDBRANCH   7  12
BRANCH  10  22
HETATM   22  O2  UNL     1      29.063   5.606  47.806  1.00  0.00    -0.347 OA
BRANCH  22  23
HETATM   23  C15 UNL     1      30.268   5.717  48.497  1.00  0.00     0.180 C 
BRANCH  23  24
HETATM   24  C16 UNL     1      31.472   5.735  47.582  1.00  0.00     0.091 C 
BRANCH  24  25
HETATM   25  C17 UNL     1      32.502   4.729  48.085  1.00  0.00     0.360 C 
HETATM   26  O3  UNL     1      33.786   5.212  48.061  1.00  0.00    -0.355 OA
HETATM   27  C18 UNL     1      34.623   4.118  48.005  1.00  0.00     0.201 C 
HETATM   28  C19 UNL     1      33.763   2.910  47.691  1.00  0.00     0.301 C 
HETATM   29  N4  UNL     1      32.522   3.547  47.290  1.00  0.00     0.115 N 
HETATM   30  C20 UNL     1      32.636   3.891  45.891  1.00  0.00     0.313 C 
ENDBRANCH  24  25
ENDBRANCH  23  24
ENDBRANCH  22  23
ENDBRANCH  10  22
BRANCH   1  31
HETATM   31  O1  UNL     1      27.900   8.133  47.774  1.00  0.00    -0.353 OA
HETATM   32  C1  UNL     1      28.036   8.672  46.494  1.00  0.00     0.210 C 
ENDBRANCH   1  31
TORSDOF 7
ENDMDL
MODEL 6
REMARK VINA RESULT:      -7.6      2.119      2.989
REMARK  7 active torsions:
REMARK  status: ('A' for Active; 'I' for Inactive)
REMARK    1  A    between atoms: O1_2  and  C2_3 
REMARK    2  A    between atoms: C6_9  and  N3_10 
REMARK    3  A    between atoms: N3_10  and  C7_11 
REMARK    4  A    between atoms: C14_21  and  O2_22 
REMARK    5  A    between atoms: O2_22  and  C15_23 
REMARK    6  A    between atoms: C15_23  and  C16_24 
REMARK    7  A    between atoms: C16_24  and  C17_25 
ROOT
HETATM    1  C2  UNL     1      22.506   2.860  51.042  1.00  0.00     0.104 C 
HETATM    2  C3  UNL     1      22.006   4.094  50.820  1.00  0.00     0.072 C 
HETATM    3  C4  UNL     1      23.047   5.106  50.680  1.00  0.00     0.066 A 
HETATM    4  N1  UNL     1      22.870   6.342  51.080  1.00  0.00    -0.242 NA
HETATM    5  C5  UNL     1      23.960   7.278  50.912  1.00  0.00     0.230 A 
HETATM    6  N2  UNL     1      25.101   7.042  50.418  1.00  0.00    -0.253 NA
HETATM    7  C6  UNL     1      25.677   5.848  49.892  1.00  0.00     0.238 A 
HETATM    8  P1  UNL     1      24.528   4.506  49.863  1.00  0.00    -0.021 P 
HETATM    9  C13 UNL     1      24.954   3.193  50.685  1.00  0.00     0.021 C 
HETATM   10  C14 UNL     1      23.931   2.462  51.153  1.00  0.00     0.114 C 
HETATM   11  H11 UNL     1      24.189   4.153  48.530  1.00  0.00     0.068 HD
ENDROOT
BRANCH   7  12
HETATM   12  N3  UNL     1      26.251   6.155  48.591  1.00  0.00    -0.363 N 
HETATM   13  H7  UNL     1      25.672   6.170  47.724  1.00  0.00     0.162 HD
BRANCH  12  14
HETATM   14  C7  UNL     1      27.640   6.443  48.475  1.00  0.00     0.031 A 
HETATM   15  C8  UNL     1      28.572   5.419  48.275  1.00  0.00     0.032 A 
HETATM   16  C9  UNL     1      29.936   5.635  48.154  1.00  0.00     0.046 A 
HETATM   17  C10 UNL     1      30.417   6.919  48.232  1.00  0.00     0.138 A 
HETATM   18  F1  UNL     1      31.746   7.109  48.112  1.00  0.00    -0.204 F 
HETATM   19  C11 UNL     1      29.508   7.936  48.429  1.00  0.00     0.074 A 
HETATM   20 CL1  UNL     1      30.193   9.566  48.521  1.00  0.00    -0.081 Cl
HETATM   21  C12 UNL     1      28.153   7.708  48.548  1.00  0.00     0.056 A 
ENDBRANCH  12  14
ENDBRANCH   7  12
BRANCH  10  22
HETATM   22  O2  UNL     1      24.145   1.250  51.789  1.00  0.00    -0.347 OA
BRANCH  22  23
HETATM   23  C15 UNL     1      24.356   1.055  53.153  1.00  0.00     0.180 C 
BRANCH  23  24
HETATM   24  C16 UNL     1      25.502   0.113  53.443  1.00  0.00     0.091 C 
BRANCH  24  25
HETATM   25  C17 UNL     1      26.670   0.904  54.024  1.00  0.00     0.360 C 
HETATM   26  O3  UNL     1      27.127   1.887  53.182  1.00  0.00    -0.355 OA
HETATM   27  C18 UNL     1      28.434   2.141  53.539  1.00  0.00     0.201 C 
HETATM   28  C19 UNL     1      28.868   1.032  54.475  1.00  0.00     0.301 C 
HETATM   29  N4  UNL     1      27.796   0.072  54.288  1.00  0.00     0.115 N 
HETATM   30  C20 UNL     1      28.113  -0.721  53.121  1.00  0.00     0.313 C 
ENDBRANCH  24  25
ENDBRANCH  23  24
ENDBRANCH  22  23
ENDBRANCH  10  22
BRANCH   1  31
HETATM   31  O1  UNL     1      21.512   1.900  51.173  1.00  0.00    -0.353 OA
HETATM   32  C1  UNL     1      20.366   2.017  51.962  1.00  0.00     0.210 C 
ENDBRANCH   1  31
TORSDOF 7
ENDMDL
MODEL 7
REMARK VINA RESULT:      -7.5      4.386      8.381
REMARK  7 active torsions:
REMARK  status: ('A' for Active; 'I' for Inactive)
REMARK    1  A    between atoms: O1_2  and  C2_3 
REMARK    2  A    between atoms: C6_9  and  N3_10 
REMARK    3  A    between atoms: N3_10  and  C7_11 
REMARK    4  A    between atoms: C14_21  and  O2_22 
REMARK    5  A    between atoms: O2_22  and  C15_23 
REMARK    6  A    between atoms: C15_23  and  C16_24 
REMARK    7  A    between atoms: C16_24  and  C17_25 
ROOT
HETATM    1  C2  UNL     1      25.796   4.130  50.110  1.00  0.00     0.104 C 
HETATM    2  C3  UNL     1      26.828   3.293  50.346  1.00  0.00     0.072 C 
HETATM    3  C4  UNL     1      26.605   2.438  51.506  1.00  0.00     0.066 A 
HETATM    4  N1  UNL     1      27.589   2.048  52.279  1.00  0.00    -0.242 NA
HETATM    5  C5  UNL     1      27.277   1.209  53.415  1.00  0.00     0.230 A 
HETATM    6  N2  UNL     1      26.133   0.798  53.770  1.00  0.00    -0.253 NA
HETATM    7  C6  UNL     1      24.837   1.007  53.214  1.00  0.00     0.238 A 
HETATM    8  P1  UNL     1      24.894   1.938  51.713  1.00  0.00    -0.021 P 
HETATM    9  C13 UNL     1      24.055   3.308  51.700  1.00  0.00     0.021 C 
HETATM   10  C14 UNL     1      24.532   4.256  50.877  1.00  0.00     0.114 C 
HETATM   11  H11 UNL     1      24.527   1.136  50.600  1.00  0.00     0.068 HD
ENDROOT
BRANCH   7  12
HETATM   12  N3  UNL     1      24.187  -0.287  53.074  1.00  0.00    -0.363 N 
HETATM   13  H7  UNL     1      24.730  -1.160  52.897  1.00  0.00     0.162 HD
BRANCH  12  14
HETATM   14  C7  UNL     1      22.771  -0.388  53.178  1.00  0.00     0.031 A 
HETATM   15  C8  UNL     1      22.175  -1.049  54.257  1.00  0.00     0.032 A 
HETATM   16  C9  UNL     1      20.804  -1.180  54.416  1.00  0.00     0.046 A 
HETATM   17  C10 UNL     1      19.969  -0.639  53.469  1.00  0.00     0.138 A 
HETATM   18  F1  UNL     1      18.639  -0.777  53.639  1.00  0.00    -0.204 F 
HETATM   19  C11 UNL     1      20.545   0.014  52.400  1.00  0.00     0.074 A 
HETATM   20 CL1  UNL     1      19.414   0.687  51.216  1.00  0.00    -0.081 Cl
HETATM   21  C12 UNL     1      21.911   0.138  52.254  1.00  0.00     0.056 A 
ENDBRANCH  12  14
ENDBRANCH   7  12
BRANCH  10  22
HETATM   22  O2  UNL     1      23.854   5.449  50.685  1.00  0.00    -0.347 OA
BRANCH  22  23
HETATM   23  C15 UNL     1      24.058   6.639  51.379  1.00  0.00     0.180 C 
BRANCH  23  24
HETATM   24  C16 UNL     1      23.866   7.865  50.514  1.00  0.00     0.091 C 
BRANCH  24  25
HETATM   25  C17 UNL     1      25.186   8.211  49.832  1.00  0.00     0.360 C 
HETATM   26  O3  UNL     1      25.731   9.390  50.275  1.00  0.00    -0.355 OA
HETATM   27  C18 UNL     1      26.558   9.850  49.274  1.00  0.00     0.201 C 
HETATM   28  C19 UNL     1      26.265   9.026  48.035  1.00  0.00     0.301 C 
HETATM   29  N4  UNL     1      25.031   8.366  48.424  1.00  0.00     0.115 N 
HETATM   30  C20 UNL     1      23.940   9.272  48.141  1.00  0.00     0.313 C 
ENDBRANCH  24  25
ENDBRANCH  23  24
ENDBRANCH  22  23
ENDBRANCH  10  22
BRANCH   1  31
HETATM   31  O1  UNL     1      26.012   4.941  49.004  1.00  0.00    -0.353 OA
HETATM   32  C1  UNL     1      27.253   5.408  48.568  1.00  0.00     0.210 C 
ENDBRANCH   1  31
TORSDOF 7
ENDMDL
MODEL 8
REMARK VINA RESULT:      -7.4      4.378      8.347
REMARK  7 active torsions:
REMARK  status: ('A' for Active; 'I' for Inactive)
REMARK    1  A    between atoms: O1_2  and  C2_3 
REMARK    2  A    between atoms: C6_9  and  N3_10 
REMARK    3  A    between atoms: N3_10  and  C7_11 
REMARK    4  A    between atoms: C14_21  and  O2_22 
REMARK    5  A    between atoms: O2_22  and  C15_23 
REMARK    6  A    between atoms: C15_23  and  C16_24 
REMARK    7  A    between atoms: C16_24  and  C17_25 
ROOT
HETATM    1  C2  UNL     1      25.570   4.142  50.115  1.00  0.00     0.104 C 
HETATM    2  C3  UNL     1      26.640   3.327  50.232  1.00  0.00     0.072 C 
HETATM    3  C4  UNL     1      26.577   2.484  51.420  1.00  0.00     0.066 A 
HETATM    4  N1  UNL     1      27.656   2.122  52.071  1.00  0.00    -0.242 NA
HETATM    5  C5  UNL     1      27.501   1.292  53.246  1.00  0.00     0.230 A 
HETATM    6  N2  UNL     1      26.418   0.866  53.742  1.00  0.00    -0.253 NA
HETATM    7  C6  UNL     1      25.060   1.044  53.347  1.00  0.00     0.238 A 
HETATM    8  P1  UNL     1      24.914   1.956  51.841  1.00  0.00    -0.021 P 
HETATM    9  C13 UNL     1      24.054   3.311  51.915  1.00  0.00     0.021 C 
HETATM   10  C14 UNL     1      24.408   4.255  51.030  1.00  0.00     0.114 C 
HETATM   11  H11 UNL     1      24.430   1.133  50.790  1.00  0.00     0.068 HD
ENDROOT
BRANCH   7  12
HETATM   12  N3  UNL     1      24.423  -0.264  53.302  1.00  0.00    -0.363 N 
HETATM   13  H7  UNL     1      24.978  -1.144  53.228  1.00  0.00     0.162 HD
BRANCH  12  14
HETATM   14  C7  UNL     1      23.005  -0.368  53.358  1.00  0.00     0.031 A 
HETATM   15  C8  UNL     1      22.369  -0.923  54.474  1.00  0.00     0.032 A 
HETATM   16  C9  UNL     1      20.993  -1.051  54.589  1.00  0.00     0.046 A 
HETATM   17  C10 UNL     1      20.195  -0.616  53.560  1.00  0.00     0.138 A 
HETATM   18  F1  UNL     1      18.860  -0.750  53.690  1.00  0.00    -0.204 F 
HETATM   19  C11 UNL     1      20.810  -0.067  52.455  1.00  0.00     0.074 A 
HETATM   20 CL1  UNL     1      19.725   0.473  51.165  1.00  0.00    -0.081 Cl
HETATM   21  C12 UNL     1      22.181   0.055  52.352  1.00  0.00     0.056 A 
ENDBRANCH  12  14
ENDBRANCH   7  12
BRANCH  10  22
HETATM   22  O2  UNL     1      23.688   5.433  50.909  1.00  0.00    -0.347 OA
BRANCH  22  23
HETATM   23  C15 UNL     1      22.302   5.566  50.954  1.00  0.00     0.180 C 
BRANCH  23  24
HETATM   24  C16 UNL     1      21.667   5.581  49.581  1.00  0.00     0.091 C 
BRANCH  24  25
HETATM   25  C17 UNL     1      21.496   4.147  49.090  1.00  0.00     0.360 C 
HETATM   26  O3  UNL     1      22.431   3.781  48.154  1.00  0.00    -0.355 OA
HETATM   27  C18 UNL     1      21.884   2.747  47.426  1.00  0.00     0.201 C 
HETATM   28  C19 UNL     1      20.410   2.683  47.774  1.00  0.00     0.301 C 
HETATM   29  N4  UNL     1      20.231   3.947  48.466  1.00  0.00     0.115 N 
HETATM   30  C20 UNL     1      20.003   4.967  47.467  1.00  0.00     0.313 C 
ENDBRANCH  24  25
ENDBRANCH  23  24
ENDBRANCH  22  23
ENDBRANCH  10  22
BRANCH   1  31
HETATM   31  O1  UNL     1      25.634   4.943  48.982  1.00  0.00    -0.353 OA
HETATM   32  C1  UNL     1      26.511   6.011  48.789  1.00  0.00     0.210 C 
ENDBRANCH   1  31
TORSDOF 7
ENDMDL
MODEL 9
REMARK VINA RESULT:      -7.3      3.594      6.576
REMARK  7 active torsions:
REMARK  status: ('A' for Active; 'I' for Inactive)
REMARK    1  A    between atoms: O1_2  and  C2_3 
REMARK    2  A    between atoms: C6_9  and  N3_10 
REMARK    3  A    between atoms: N3_10  and  C7_11 
REMARK    4  A    between atoms: C14_21  and  O2_22 
REMARK    5  A    between atoms: O2_22  and  C15_23 
REMARK    6  A    between atoms: C15_23  and  C16_24 
REMARK    7  A    between atoms: C16_24  and  C17_25 
ROOT
HETATM    1  C2  UNL     1      20.629   2.511  51.435  1.00  0.00     0.104 C 
HETATM    2  C3  UNL     1      20.064   1.932  52.516  1.00  0.00     0.072 C 
HETATM    3  C4  UNL     1      20.835   0.798  53.014  1.00  0.00     0.066 A 
HETATM    4  N1  UNL     1      20.259  -0.241  53.568  1.00  0.00    -0.242 NA
HETATM    5  C5  UNL     1      21.099  -1.326  54.025  1.00  0.00     0.230 A 
HETATM    6  N2  UNL     1      22.360  -1.401  53.948  1.00  0.00    -0.253 NA
HETATM    7  C6  UNL     1      23.332  -0.504  53.414  1.00  0.00     0.238 A 
HETATM    8  P1  UNL     1      22.610   1.008  52.851  1.00  0.00    -0.021 P 
HETATM    9  C13 UNL     1      22.846   1.370  51.305  1.00  0.00     0.021 C 
HETATM   10  C14 UNL     1      21.884   2.122  50.746  1.00  0.00     0.114 C 
HETATM   11  H11 UNL     1      23.006   2.098  53.670  1.00  0.00     0.068 HD
ENDROOT
BRANCH   7  12
HETATM   12  N3  UNL     1      24.376  -0.318  54.410  1.00  0.00    -0.363 N 
HETATM   13  H7  UNL     1      24.162  -0.270  55.429  1.00  0.00     0.162 HD
BRANCH  12  14
HETATM   14  C7  UNL     1      25.734  -0.195  54.004  1.00  0.00     0.031 A 
HETATM   15  C8  UNL     1      26.410  -1.272  53.420  1.00  0.00     0.032 A 
HETATM   16  C9  UNL     1      27.730  -1.215  53.003  1.00  0.00     0.046 A 
HETATM   17  C10 UNL     1      28.431  -0.045  53.165  1.00  0.00     0.138 A 
HETATM   18  F1  UNL     1      29.714  -0.009  52.755  1.00  0.00    -0.204 F 
HETATM   19  C11 UNL     1      27.776   1.023  53.740  1.00  0.00     0.074 A 
HETATM   20 CL1  UNL     1      28.735   2.500  53.922  1.00  0.00    -0.081 Cl
HETATM   21  C12 UNL     1      26.461   0.954  54.151  1.00  0.00     0.056 A 
ENDBRANCH  12  14
ENDBRANCH   7  12
BRANCH  10  22
HETATM   22  O2  UNL     1      22.005   2.597  49.450  1.00  0.00    -0.347 OA
BRANCH  22  23
HETATM   23  C15 UNL     1      23.177   3.022  48.829  1.00  0.00     0.180 C 
BRANCH  23  24
HETATM   24  C16 UNL     1      23.137   4.481  48.430  1.00  0.00     0.091 C 
BRANCH  24  25
HETATM   25  C17 UNL     1      23.144   5.346  49.686  1.00  0.00     0.360 C 
HETATM   26  O3  UNL     1      22.630   6.602  49.479  1.00  0.00    -0.355 OA
HETATM   27  C18 UNL     1      23.162   7.417  50.454  1.00  0.00     0.201 C 
HETATM   28  C19 UNL     1      24.290   6.649  51.116  1.00  0.00     0.301 C 
HETATM   29  N4  UNL     1      24.463   5.550  50.184  1.00  0.00     0.115 N 
HETATM   30  C20 UNL     1      25.330   6.006  49.121  1.00  0.00     0.313 C 
ENDBRANCH  24  25
ENDBRANCH  23  24
ENDBRANCH  22  23
ENDBRANCH  10  22
BRANCH   1  31
HETATM   31  O1  UNL     1      19.893   3.590  50.965  1.00  0.00    -0.353 OA
HETATM   32  C1  UNL     1      18.542   3.827  51.223  1.00  0.00     0.210 C 
ENDBRANCH   1  31
TORSDOF 7
ENDMDL
