MODEL 1
REMARK VINA RESULT:      -8.5      0.000      0.000
REMARK  2 active torsions:
REMARK  status: ('A' for Active; 'I' for Inactive)
REMARK    1  A    between atoms: C10_12  and  N1_13 
REMARK    2  A    between atoms: N1_13  and  C11_14 
ROOT
HETATM    1  F1  UNL     1      26.388   0.847  51.247  1.00  0.00    -0.246 F 
HETATM    2  C1  UNL     1      27.007   1.352  52.319  1.00  0.00     0.204 A 
HETATM    3  C2  UNL     1      26.887   0.110  53.497  1.00  0.00     0.017 A 
HETATM    4  C3  UNL     1      27.676  -0.813  53.066  1.00  0.00    -0.011 C 
HETATM    5  C4  UNL     1      28.888  -1.674  53.117  1.00  0.00     0.038 C 
HETATM    6  C5  UNL     1      29.953  -0.873  53.827  1.00  0.00     0.168 C 
HETATM    7  O1  UNL     1      29.768   0.474  53.707  1.00  0.00    -0.391 OA
HETATM    8  C6  UNL     1      28.704   0.956  54.487  1.00  0.00     0.173 C 
HETATM    9  C7  UNL     1      27.584   0.018  54.350  1.00  0.00     0.030 A 
HETATM   10  C8  UNL     1      26.151   0.640  54.103  1.00  0.00     0.006 A 
HETATM   11  C9  UNL     1      25.973  -0.352  54.731  1.00  0.00     0.018 A 
HETATM   12  C10 UNL     1      25.994   2.048  53.269  1.00  0.00     0.127 A 
ENDROOT
BRANCH  12  13
HETATM   13  N1  UNL     1      24.712   2.186  52.827  1.00  0.00    -0.382 N 
HETATM   14  H11 UNL     1      24.542   3.243  52.802  1.00  0.00     0.160 HD
BRANCH  13  15
HETATM   15  C11 UNL     1      23.539   1.548  52.392  1.00  0.00     0.029 A 
HETATM   16  C12 UNL     1      22.664   0.816  53.203  1.00  0.00     0.029 A 
HETATM   17  C13 UNL     1      21.530   0.225  52.710  1.00  0.00     0.004 A 
HETATM   18  C14 UNL     1      21.216   0.340  51.378  1.00  0.00     0.024 A 
HETATM   19  C15 UNL     1      22.026   1.041  50.524  1.00  0.00     0.036 A 
HETATM   20 CL1  UNL     1      21.521   1.112  48.867  1.00  0.00    -0.084 Cl
HETATM   21  C16 UNL     1      23.155   1.617  51.069  1.00  0.00     0.052 A 
ENDBRANCH  13  15
ENDBRANCH  12  13
TORSDOF 2
ENDMDL
MODEL 2
REMARK VINA RESULT:      -8.1      2.286      2.865
REMARK  2 active torsions:
REMARK  status: ('A' for Active; 'I' for Inactive)
REMARK    1  A    between atoms: C10_12  and  N1_13 
REMARK    2  A    between atoms: N1_13  and  C11_14 
ROOT
HETATM    1  F1  UNL     1      25.640   0.083  55.289  1.00  0.00    -0.246 F 
HETATM    2  C1  UNL     1      25.658  -0.827  54.310  1.00  0.00     0.204 A 
HETATM    3  C2  UNL     1      26.693  -0.147  53.123  1.00  0.00     0.017 A 
HETATM    4  C3  UNL     1      27.867  -0.208  53.651  1.00  0.00    -0.011 C 
HETATM    5  C4  UNL     1      29.266  -0.703  53.758  1.00  0.00     0.038 C 
HETATM    6  C5  UNL     1      29.268  -2.105  53.198  1.00  0.00     0.168 C 
HETATM    7  O1  UNL     1      28.052  -2.715  53.297  1.00  0.00    -0.391 OA
HETATM    8  C6  UNL     1      27.108  -2.216  52.384  1.00  0.00     0.173 C 
HETATM    9  C7  UNL     1      27.228  -0.753  52.369  1.00  0.00     0.030 A 
HETATM   10  C8  UNL     1      25.884   0.080  52.427  1.00  0.00     0.006 A 
HETATM   11  C9  UNL     1      26.641   0.724  51.776  1.00  0.00     0.018 A 
HETATM   12  C10 UNL     1      24.581  -0.510  53.237  1.00  0.00     0.127 A 
ENDROOT
BRANCH  12  13
HETATM   13  N1  UNL     1      23.705   0.499  53.505  1.00  0.00    -0.382 N 
HETATM   14  H11 UNL     1      23.530   0.437  54.560  1.00  0.00     0.160 HD
BRANCH  13  15
HETATM   15  C11 UNL     1      22.952   1.573  53.003  1.00  0.00     0.029 A 
HETATM   16  C12 UNL     1      21.574   1.553  52.756  1.00  0.00     0.029 A 
HETATM   17  C13 UNL     1      20.901   2.643  52.271  1.00  0.00     0.004 A 
HETATM   18  C14 UNL     1      21.576   3.810  52.010  1.00  0.00     0.024 A 
HETATM   19  C15 UNL     1      22.925   3.903  52.227  1.00  0.00     0.036 A 
HETATM   20 CL1  UNL     1      23.662   5.429  51.857  1.00  0.00    -0.084 Cl
HETATM   21  C16 UNL     1      23.557   2.779  52.716  1.00  0.00     0.052 A 
ENDBRANCH  13  15
ENDBRANCH  12  13
TORSDOF 2
ENDMDL
MODEL 3
REMARK VINA RESULT:      -7.8      1.682      1.971
REMARK  2 active torsions:
REMARK  status: ('A' for Active; 'I' for Inactive)
REMARK    1  A    between atoms: C10_12  and  N1_13 
REMARK    2  A    between atoms: N1_13  and  C11_14 
ROOT
HETATM    1  F1  UNL     1      26.431   0.927  51.398  1.00  0.00    -0.246 F 
HETATM    2  C1  UNL     1      27.173   1.403  52.402  1.00  0.00     0.204 A 
HETATM    3  C2  UNL     1      27.035   0.211  53.629  1.00  0.00     0.017 A 
HETATM    4  C3  UNL     1      27.703  -0.792  53.173  1.00  0.00    -0.011 C 
HETATM    5  C4  UNL     1      28.835  -1.758  53.164  1.00  0.00     0.038 C 
HETATM    6  C5  UNL     1      30.018  -1.037  53.765  1.00  0.00     0.168 C 
HETATM    7  O1  UNL     1      29.944   0.317  53.611  1.00  0.00    -0.391 OA
HETATM    8  C6  UNL     1      28.991   0.916  54.451  1.00  0.00     0.173 C 
HETATM    9  C7  UNL     1      27.785   0.080  54.431  1.00  0.00     0.030 A 
HETATM   10  C8  UNL     1      26.397   0.823  54.269  1.00  0.00     0.006 A 
HETATM   11  C9  UNL     1      26.182  -0.131  54.943  1.00  0.00     0.018 A 
HETATM   12  C10 UNL     1      26.302   2.215  53.400  1.00  0.00     0.127 A 
ENDROOT
BRANCH  12  13
HETATM   13  N1  UNL     1      25.007   2.457  53.050  1.00  0.00    -0.382 N 
HETATM   14  H11 UNL     1      24.431   1.771  53.638  1.00  0.00     0.160 HD
BRANCH  13  15
HETATM   15  C11 UNL     1      24.117   3.210  52.268  1.00  0.00     0.029 A 
HETATM   16  C12 UNL     1      23.416   4.344  52.698  1.00  0.00     0.029 A 
HETATM   17  C13 UNL     1      22.568   5.035  51.875  1.00  0.00     0.004 A 
HETATM   18  C14 UNL     1      22.379   4.627  50.578  1.00  0.00     0.024 A 
HETATM   19  C15 UNL     1      23.030   3.526  50.088  1.00  0.00     0.036 A 
HETATM   20 CL1  UNL     1      22.707   3.112  48.435  1.00  0.00    -0.084 Cl
HETATM   21  C16 UNL     1      23.874   2.863  50.955  1.00  0.00     0.052 A 
ENDBRANCH  13  15
ENDBRANCH  12  13
TORSDOF 2
ENDMDL
MODEL 4
REMARK VINA RESULT:      -7.8      1.802      2.565
REMARK  2 active torsions:
REMARK  status: ('A' for Active; 'I' for Inactive)
REMARK    1  A    between atoms: C10_12  and  N1_13 
REMARK    2  A    between atoms: N1_13  and  C11_14 
ROOT
HETATM    1  F1  UNL     1      24.900   2.902  53.782  1.00  0.00    -0.246 F 
HETATM    2  C1  UNL     1      25.373   1.693  54.098  1.00  0.00     0.204 A 
HETATM    3  C2  UNL     1      26.511   1.352  52.860  1.00  0.00     0.017 A 
HETATM    4  C3  UNL     1      27.488   2.158  53.095  1.00  0.00    -0.011 C 
HETATM    5  C4  UNL     1      28.882   2.499  53.487  1.00  0.00     0.038 C 
HETATM    6  C5  UNL     1      29.337   1.416  54.436  1.00  0.00     0.168 C 
HETATM    7  O1  UNL     1      28.300   0.821  55.094  1.00  0.00    -0.391 OA
HETATM    8  C6  UNL     1      27.546  -0.035  54.275  1.00  0.00     0.173 C 
HETATM    9  C7  UNL     1      27.345   0.636  52.986  1.00  0.00     0.030 A 
HETATM   10  C8  UNL     1      25.886   0.600  52.376  1.00  0.00     0.006 A 
HETATM   11  C9  UNL     1      26.629   0.597  51.449  1.00  0.00     0.018 A 
HETATM   12  C10 UNL     1      24.575   0.576  53.368  1.00  0.00     0.127 A 
ENDROOT
BRANCH  12  13
HETATM   13  N1  UNL     1      23.462   0.951  52.677  1.00  0.00    -0.382 N 
HETATM   14  H11 UNL     1      22.686   1.003  53.412  1.00  0.00     0.160 HD
BRANCH  13  15
HETATM   15  C11 UNL     1      22.906   1.298  51.435  1.00  0.00     0.029 A 
HETATM   16  C12 UNL     1      21.852   0.629  50.801  1.00  0.00     0.029 A 
HETATM   17  C13 UNL     1      21.354   1.031  49.590  1.00  0.00     0.004 A 
HETATM   18  C14 UNL     1      21.887   2.124  48.952  1.00  0.00     0.024 A 
HETATM   19  C15 UNL     1      22.920   2.827  49.512  1.00  0.00     0.036 A 
HETATM   20 CL1  UNL     1      23.506   4.186  48.608  1.00  0.00    -0.084 Cl
HETATM   21  C16 UNL     1      23.386   2.384  50.732  1.00  0.00     0.052 A 
ENDBRANCH  13  15
ENDBRANCH  12  13
TORSDOF 2
ENDMDL
MODEL 5
REMARK VINA RESULT:      -7.6      1.540      2.083
REMARK  2 active torsions:
REMARK  status: ('A' for Active; 'I' for Inactive)
REMARK    1  A    between atoms: C10_12  and  N1_13 
REMARK    2  A    between atoms: N1_13  and  C11_14 
ROOT
HETATM    1  F1  UNL     1      26.090   1.945  51.128  1.00  0.00    -0.246 F 
HETATM    2  C1  UNL     1      26.028   2.005  52.462  1.00  0.00     0.204 A 
HETATM    3  C2  UNL     1      25.750   0.381  52.942  1.00  0.00     0.017 A 
HETATM    4  C3  UNL     1      26.862  -0.220  52.691  1.00  0.00    -0.011 C 
HETATM    5  C4  UNL     1      28.115  -0.933  53.058  1.00  0.00     0.038 C 
HETATM    6  C5  UNL     1      28.514  -0.421  54.422  1.00  0.00     0.168 C 
HETATM    7  O1  UNL     1      28.047   0.836  54.671  1.00  0.00    -0.391 OA
HETATM    8  C6  UNL     1      26.666   0.872  54.922  1.00  0.00     0.173 C 
HETATM    9  C7  UNL     1      26.008  -0.005  53.946  1.00  0.00     0.030 A 
HETATM   10  C8  UNL     1      24.713   0.556  53.232  1.00  0.00     0.006 A 
HETATM   11  C9  UNL     1      24.554  -0.618  53.325  1.00  0.00     0.018 A 
HETATM   12  C10 UNL     1      24.560   2.167  52.944  1.00  0.00     0.127 A 
ENDROOT
BRANCH  12  13
HETATM   13  N1  UNL     1      23.608   2.381  51.993  1.00  0.00    -0.382 N 
HETATM   14  H11 UNL     1      23.699   3.417  51.740  1.00  0.00     0.160 HD
BRANCH  13  15
HETATM   15  C11 UNL     1      22.579   1.833  51.210  1.00  0.00     0.029 A 
HETATM   16  C12 UNL     1      22.552   1.801  49.810  1.00  0.00     0.029 A 
HETATM   17  C13 UNL     1      21.516   1.241  49.111  1.00  0.00     0.004 A 
HETATM   18  C14 UNL     1      20.454   0.685  49.779  1.00  0.00     0.024 A 
HETATM   19  C15 UNL     1      20.410   0.681  51.147  1.00  0.00     0.036 A 
HETATM   20 CL1  UNL     1      19.015  -0.050  51.872  1.00  0.00    -0.084 Cl
HETATM   21  C16 UNL     1      21.477   1.256  51.807  1.00  0.00     0.052 A 
ENDBRANCH  13  15
ENDBRANCH  12  13
TORSDOF 2
ENDMDL
MODEL 6
REMARK VINA RESULT:      -7.4      2.331      2.892
REMARK  2 active torsions:
REMARK  status: ('A' for Active; 'I' for Inactive)
REMARK    1  A    between atoms: C10_12  and  N1_13 
REMARK    2  A    between atoms: N1_13  and  C11_14 
ROOT
HETATM    1  F1  UNL     1      26.731   1.662  50.873  1.00  0.00    -0.246 F 
HETATM    2  C1  UNL     1      26.474   1.821  52.175  1.00  0.00     0.204 A 
HETATM    3  C2  UNL     1      26.269   0.222  52.761  1.00  0.00     0.017 A 
HETATM    4  C3  UNL     1      27.453  -0.285  52.720  1.00  0.00    -0.011 C 
HETATM    5  C4  UNL     1      28.697  -0.840  53.318  1.00  0.00     0.038 C 
HETATM    6  C5  UNL     1      28.851  -0.185  54.670  1.00  0.00     0.168 C 
HETATM    7  O1  UNL     1      28.247   1.037  54.736  1.00  0.00    -0.391 OA
HETATM    8  C6  UNL     1      26.846   0.957  54.793  1.00  0.00     0.173 C 
HETATM    9  C7  UNL     1      26.413  -0.055  53.822  1.00  0.00     0.030 A 
HETATM   10  C8  UNL     1      25.190   0.318  52.890  1.00  0.00     0.006 A 
HETATM   11  C9  UNL     1      25.121  -0.855  53.069  1.00  0.00     0.018 A 
HETATM   12  C10 UNL     1      24.943   1.878  52.436  1.00  0.00     0.127 A 
ENDROOT
BRANCH  12  13
HETATM   13  N1  UNL     1      24.122   1.921  51.349  1.00  0.00    -0.382 N 
HETATM   14  H11 UNL     1      23.603   0.984  51.359  1.00  0.00     0.160 HD
BRANCH  13  15
HETATM   15  C11 UNL     1      23.667   2.655  50.242  1.00  0.00     0.029 A 
HETATM   16  C12 UNL     1      22.648   2.259  49.367  1.00  0.00     0.029 A 
HETATM   17  C13 UNL     1      22.249   3.033  48.310  1.00  0.00     0.004 A 
HETATM   18  C14 UNL     1      22.851   4.245  48.076  1.00  0.00     0.024 A 
HETATM   19  C15 UNL     1      23.855   4.697  48.890  1.00  0.00     0.036 A 
HETATM   20 CL1  UNL     1      24.535   6.241  48.489  1.00  0.00    -0.084 Cl
HETATM   21  C16 UNL     1      24.221   3.883  49.941  1.00  0.00     0.052 A 
ENDBRANCH  13  15
ENDBRANCH  12  13
TORSDOF 2
ENDMDL
MODEL 7
REMARK VINA RESULT:      -7.3      3.380      6.377
REMARK  2 active torsions:
REMARK  status: ('A' for Active; 'I' for Inactive)
REMARK    1  A    between atoms: C10_12  and  N1_13 
REMARK    2  A    between atoms: N1_13  and  C11_14 
ROOT
HETATM    1  F1  UNL     1      23.683   0.690  52.073  1.00  0.00    -0.246 F 
HETATM    2  C1  UNL     1      23.709   2.009  52.288  1.00  0.00     0.204 A 
HETATM    3  C2  UNL     1      24.607   2.632  50.965  1.00  0.00     0.017 A 
HETATM    4  C3  UNL     1      23.826   2.479  49.951  1.00  0.00    -0.011 C 
HETATM    5  C4  UNL     1      22.956   2.958  48.843  1.00  0.00     0.038 C 
HETATM    6  C5  UNL     1      22.380   4.280  49.291  1.00  0.00     0.168 C 
HETATM    7  O1  UNL     1      22.309   4.391  50.649  1.00  0.00    -0.391 OA
HETATM    8  C6  UNL     1      23.562   4.587  51.253  1.00  0.00     0.173 C 
HETATM    9  C7  UNL     1      24.518   3.676  50.613  1.00  0.00     0.030 A 
HETATM   10  C8  UNL     1      25.488   2.866  51.564  1.00  0.00     0.006 A 
HETATM   11  C9  UNL     1      26.099   3.064  50.565  1.00  0.00     0.018 A 
HETATM   12  C10 UNL     1      24.990   2.420  53.066  1.00  0.00     0.127 A 
ENDROOT
BRANCH  12  13
HETATM   13  N1  UNL     1      25.784   1.418  53.540  1.00  0.00    -0.382 N 
HETATM   14  H11 UNL     1      25.137   0.820  54.149  1.00  0.00     0.160 HD
BRANCH  13  15
HETATM   15  C11 UNL     1      27.063   0.840  53.568  1.00  0.00     0.029 A 
HETATM   16  C12 UNL     1      28.253   1.514  53.868  1.00  0.00     0.029 A 
HETATM   17  C13 UNL     1      29.468   0.882  53.884  1.00  0.00     0.004 A 
HETATM   18  C14 UNL     1      29.552  -0.459  53.601  1.00  0.00     0.024 A 
HETATM   19  C15 UNL     1      28.430  -1.183  53.298  1.00  0.00     0.036 A 
HETATM   20 CL1  UNL     1      28.668  -2.866  52.958  1.00  0.00    -0.084 Cl
HETATM   21  C16 UNL     1      27.231  -0.502  53.295  1.00  0.00     0.052 A 
ENDBRANCH  13  15
ENDBRANCH  12  13
TORSDOF 2
ENDMDL
MODEL 8
REMARK VINA RESULT:      -7.0      4.065      6.585
REMARK  2 active torsions:
REMARK  status: ('A' for Active; 'I' for Inactive)
REMARK    1  A    between atoms: C10_12  and  N1_13 
REMARK    2  A    between atoms: N1_13  and  C11_14 
ROOT
HETATM    1  F1  UNL     1      22.276   2.653  51.576  1.00  0.00    -0.246 F 
HETATM    2  C1  UNL     1      22.764   3.840  51.204  1.00  0.00     0.204 A 
HETATM    3  C2  UNL     1      23.826   3.470  49.908  1.00  0.00     0.017 A 
HETATM    4  C3  UNL     1      23.043   3.119  48.946  1.00  0.00    -0.011 C 
HETATM    5  C4  UNL     1      22.400   3.277  47.614  1.00  0.00     0.038 C 
HETATM    6  C5  UNL     1      22.324   4.762  47.348  1.00  0.00     0.168 C 
HETATM    7  O1  UNL     1      22.293   5.502  48.495  1.00  0.00    -0.391 OA
HETATM    8  C6  UNL     1      23.534   5.554  49.151  1.00  0.00     0.173 C 
HETATM    9  C7  UNL     1      24.110   4.204  49.132  1.00  0.00     0.030 A 
HETATM   10  C8  UNL     1      24.731   3.667  50.484  1.00  0.00     0.006 A 
HETATM   11  C9  UNL     1      25.376   3.181  49.611  1.00  0.00     0.018 A 
HETATM   12  C10 UNL     1      24.105   4.142  51.927  1.00  0.00     0.127 A 
ENDROOT
BRANCH  12  13
HETATM   13  N1  UNL     1      24.496   3.281  52.909  1.00  0.00    -0.382 N 
HETATM   14  H11 UNL     1      24.301   3.801  53.824  1.00  0.00     0.160 HD
BRANCH  13  15
HETATM   15  C11 UNL     1      25.029   2.023  53.231  1.00  0.00     0.029 A 
HETATM   16  C12 UNL     1      24.378   0.795  53.058  1.00  0.00     0.029 A 
HETATM   17  C13 UNL     1      24.964  -0.398  53.388  1.00  0.00     0.004 A 
HETATM   18  C14 UNL     1      26.234  -0.421  53.908  1.00  0.00     0.024 A 
HETATM   19  C15 UNL     1      26.932   0.740  54.106  1.00  0.00     0.036 A 
HETATM   20 CL1  UNL     1      28.526   0.577  54.770  1.00  0.00    -0.084 Cl
HETATM   21  C16 UNL     1      26.300   1.915  53.758  1.00  0.00     0.052 A 
ENDBRANCH  13  15
ENDBRANCH  12  13
TORSDOF 2
ENDMDL
MODEL 9
REMARK VINA RESULT:      -7.0      3.787      6.617
REMARK  2 active torsions:
REMARK  status: ('A' for Active; 'I' for Inactive)
REMARK    1  A    between atoms: C10_12  and  N1_13 
REMARK    2  A    between atoms: N1_13  and  C11_14 
ROOT
HETATM    1  F1  UNL     1      25.438   2.920  50.149  1.00  0.00    -0.246 F 
HETATM    2  C1  UNL     1      24.195   2.697  50.586  1.00  0.00     0.204 A 
HETATM    3  C2  UNL     1      24.028   3.748  51.933  1.00  0.00     0.017 A 
HETATM    4  C3  UNL     1      23.988   4.926  51.413  1.00  0.00    -0.011 C 
HETATM    5  C4  UNL     1      23.334   6.214  51.058  1.00  0.00     0.038 C 
HETATM    6  C5  UNL     1      21.862   5.917  50.895  1.00  0.00     0.168 C 
HETATM    7  O1  UNL     1      21.622   4.620  50.547  1.00  0.00    -0.391 OA
HETATM    8  C6  UNL     1      21.816   3.718  51.607  1.00  0.00     0.173 C 
HETATM    9  C7  UNL     1      23.050   4.103  52.304  1.00  0.00     0.030 A 
HETATM   10  C8  UNL     1      24.061   2.944  52.670  1.00  0.00     0.006 A 
HETATM   11  C9  UNL     1      24.167   3.756  53.531  1.00  0.00     0.018 A 
HETATM   12  C10 UNL     1      24.184   1.619  51.705  1.00  0.00     0.127 A 
ENDROOT
BRANCH  12  13
HETATM   13  N1  UNL     1      25.354   0.966  51.959  1.00  0.00    -0.382 N 
HETATM   14  H11 UNL     1      25.236   0.005  51.504  1.00  0.00     0.160 HD
BRANCH  13  15
HETATM   15  C11 UNL     1      26.628   1.015  52.546  1.00  0.00     0.029 A 
HETATM   16  C12 UNL     1      27.275   2.176  52.989  1.00  0.00     0.029 A 
HETATM   17  C13 UNL     1      28.519   2.147  53.562  1.00  0.00     0.004 A 
HETATM   18  C14 UNL     1      29.179   0.953  53.719  1.00  0.00     0.024 A 
HETATM   19  C15 UNL     1      28.608  -0.223  53.309  1.00  0.00     0.036 A 
HETATM   20 CL1  UNL     1      29.542  -1.662  53.562  1.00  0.00    -0.084 Cl
HETATM   21  C16 UNL     1      27.355  -0.142  52.740  1.00  0.00     0.052 A 
ENDBRANCH  13  15
ENDBRANCH  12  13
TORSDOF 2
ENDMDL
