MODEL 1
REMARK VINA RESULT:      -8.2      0.000      0.000
REMARK  3 active torsions:
REMARK  status: ('A' for Active; 'I' for Inactive)
REMARK    1  A    between atoms: C5_6  and  N1_7 
REMARK    2  A    between atoms: N1_7  and  N2_8 
REMARK    3  A    between atoms: N2_8  and  C6_9 
ROOT
HETATM    1  C6  UNL     1      24.248   2.420  52.817  1.00  0.00     0.134 C 
HETATM    2  C7  UNL     1      23.551   1.272  52.833  1.00  0.00     0.054 C 
HETATM    3  C8  UNL     1      22.172   1.262  52.326  1.00  0.00     0.300 C 
HETATM    4  N3  UNL     1      21.175   0.798  53.265  1.00  0.00     0.087 N 
HETATM    5  C9  UNL     1      19.867   1.112  52.764  1.00  0.00     0.273 C 
HETATM    6  C10 UNL     1      19.456   0.449  51.500  1.00  0.00     0.056 C 
HETATM    7  C11 UNL     1      20.203   0.893  50.314  1.00  0.00    -0.029 C 
HETATM    8  C12 UNL     1      20.895   1.216  49.245  1.00  0.00    -0.026 C 
HETATM    9  C13 UNL     1      21.299   2.308  48.329  1.00  0.00     0.073 C 
HETATM   10  C14 UNL     1      22.801   2.473  48.351  1.00  0.00     0.094 C 
HETATM   11  N4  UNL     1      23.091   2.929  49.498  1.00  0.00    -0.256 NA
HETATM   12  C15 UNL     1      24.347   3.255  50.022  1.00  0.00     0.254 C 
HETATM   13  N5  UNL     1      23.555   3.350  50.996  1.00  0.00    -0.166 NA
HETATM   14  N6  UNL     1      23.800   3.692  52.311  1.00  0.00    -0.261 N 
HETATM   15  H9  UNL     1      21.301   1.166  54.222  1.00  0.00     0.316 HD
HETATM   16  H20 UNL     1      23.787   4.456  53.019  1.00  0.00     0.191 HD
ENDROOT
BRANCH   1  17
HETATM   17  N2  UNL     1      25.568   2.392  53.315  1.00  0.00    -0.284 N 
HETATM   18  H5  UNL     1      25.733   3.327  52.834  1.00  0.00     0.188 HD
BRANCH  17  19
HETATM   19  N1  UNL     1      26.840   2.349  53.803  1.00  0.00    -0.299 N 
HETATM   20  H4  UNL     1      27.048   3.266  54.254  1.00  0.00     0.187 HD
BRANCH  19  21
HETATM   21  C5  UNL     1      27.709   1.234  53.703  1.00  0.00     0.049 A 
HETATM   22  C4  UNL     1      29.009   1.516  54.051  1.00  0.00     0.031 A 
HETATM   23  C3  UNL     1      29.938   0.471  53.976  1.00  0.00     0.004 A 
HETATM   24  C2  UNL     1      29.504  -0.782  53.558  1.00  0.00     0.024 A 
HETATM   25  C1  UNL     1      28.179  -0.971  53.230  1.00  0.00     0.036 A 
HETATM   26 CL1  UNL     1      27.752  -2.601  52.716  1.00  0.00    -0.084 Cl
HETATM   27  C16 UNL     1      27.226   0.017  53.284  1.00  0.00     0.054 A 
ENDBRANCH  19  21
ENDBRANCH  17  19
ENDBRANCH   1  17
TORSDOF 3
ENDMDL
MODEL 2
REMARK VINA RESULT:      -8.1      3.555      5.797
REMARK  3 active torsions:
REMARK  status: ('A' for Active; 'I' for Inactive)
REMARK    1  A    between atoms: C5_6  and  N1_7 
REMARK    2  A    between atoms: N1_7  and  N2_8 
REMARK    3  A    between atoms: N2_8  and  C6_9 
ROOT
HETATM    1  C6  UNL     1      25.447   1.954  52.060  1.00  0.00     0.134 C 
HETATM    2  C7  UNL     1      25.495   0.635  52.308  1.00  0.00     0.054 C 
HETATM    3  C8  UNL     1      24.822   0.102  53.500  1.00  0.00     0.300 C 
HETATM    4  N3  UNL     1      25.671  -0.639  54.406  1.00  0.00     0.087 N 
HETATM    5  C9  UNL     1      24.978  -0.844  55.646  1.00  0.00     0.273 C 
HETATM    6  C10 UNL     1      23.748  -1.676  55.599  1.00  0.00     0.056 C 
HETATM    7  C11 UNL     1      22.627  -1.056  54.880  1.00  0.00    -0.029 C 
HETATM    8  C12 UNL     1      21.626  -0.562  54.186  1.00  0.00    -0.026 C 
HETATM    9  C13 UNL     1      20.659   0.552  54.051  1.00  0.00     0.073 C 
HETATM   10  C14 UNL     1      20.853   1.247  52.724  1.00  0.00     0.094 C 
HETATM   11  N4  UNL     1      21.974   1.837  52.792  1.00  0.00    -0.256 NA
HETATM   12  C15 UNL     1      22.614   2.619  51.826  1.00  0.00     0.254 C 
HETATM   13  N5  UNL     1      23.465   2.475  52.743  1.00  0.00    -0.166 NA
HETATM   14  N6  UNL     1      24.758   2.951  52.839  1.00  0.00    -0.261 N 
HETATM   15  H9  UNL     1      26.592  -0.200  54.566  1.00  0.00     0.316 HD
HETATM   16  H20 UNL     1      25.375   3.695  53.227  1.00  0.00     0.191 HD
ENDROOT
BRANCH   1  17
HETATM   17  N2  UNL     1      26.107   2.429  50.908  1.00  0.00    -0.284 N 
HETATM   18  H5  UNL     1      26.948   1.842  51.189  1.00  0.00     0.188 HD
BRANCH  17  19
HETATM   19  N1  UNL     1      26.731   2.898  49.790  1.00  0.00    -0.299 N 
HETATM   20  H4  UNL     1      27.285   2.118  49.374  1.00  0.00     0.187 HD
BRANCH  19  21
HETATM   21  C5  UNL     1      26.625   4.224  49.299  1.00  0.00     0.049 A 
HETATM   22  C4  UNL     1      25.385   4.785  49.490  1.00  0.00     0.031 A 
HETATM   23  C3  UNL     1      25.192   6.093  49.029  1.00  0.00     0.004 A 
HETATM   24  C2  UNL     1      26.250   6.749  48.411  1.00  0.00     0.024 A 
HETATM   25  C1  UNL     1      27.459   6.105  48.264  1.00  0.00     0.036 A 
HETATM   26 CL1  UNL     1      28.722   7.039  47.466  1.00  0.00    -0.084 Cl
HETATM   27  C16 UNL     1      27.705   4.824  48.695  1.00  0.00     0.054 A 
ENDBRANCH  19  21
ENDBRANCH  17  19
ENDBRANCH   1  17
TORSDOF 3
ENDMDL
MODEL 3
REMARK VINA RESULT:      -7.9      4.139      6.343
REMARK  3 active torsions:
REMARK  status: ('A' for Active; 'I' for Inactive)
REMARK    1  A    between atoms: C5_6  and  N1_7 
REMARK    2  A    between atoms: N1_7  and  N2_8 
REMARK    3  A    between atoms: N2_8  and  C6_9 
ROOT
HETATM    1  C6  UNL     1      24.310   3.859  51.278  1.00  0.00     0.134 C 
HETATM    2  C7  UNL     1      23.625   3.500  52.376  1.00  0.00     0.054 C 
HETATM    3  C8  UNL     1      23.277   2.086  52.575  1.00  0.00     0.300 C 
HETATM    4  N3  UNL     1      21.865   1.817  52.737  1.00  0.00     0.087 N 
HETATM    5  C9  UNL     1      21.635   0.404  52.625  1.00  0.00     0.273 C 
HETATM    6  C10 UNL     1      22.252  -0.461  53.663  1.00  0.00     0.056 C 
HETATM    7  C11 UNL     1      23.719  -0.524  53.602  1.00  0.00    -0.029 C 
HETATM    8  C12 UNL     1      25.033  -0.550  53.621  1.00  0.00    -0.026 C 
HETATM    9  C13 UNL     1      26.263  -0.885  52.868  1.00  0.00     0.073 C 
HETATM   10  C14 UNL     1      27.105   0.355  52.674  1.00  0.00     0.094 C 
HETATM   11  N4  UNL     1      26.463   1.098  51.871  1.00  0.00    -0.256 NA
HETATM   12  C15 UNL     1      26.811   2.357  51.372  1.00  0.00     0.254 C 
HETATM   13  N5  UNL     1      25.626   2.172  50.988  1.00  0.00    -0.166 NA
HETATM   14  N6  UNL     1      24.796   2.986  50.242  1.00  0.00    -0.261 N 
HETATM   15  H9  UNL     1      21.263   2.342  52.082  1.00  0.00     0.316 HD
HETATM   16  H20 UNL     1      24.418   3.192  49.294  1.00  0.00     0.191 HD
ENDROOT
BRANCH   1  17
HETATM   17  N2  UNL     1      24.623   5.226  51.121  1.00  0.00    -0.284 N 
HETATM   18  H5  UNL     1      24.140   5.409  52.050  1.00  0.00     0.188 HD
BRANCH  17  19
HETATM   19  N1  UNL     1      24.934   6.542  50.952  1.00  0.00    -0.299 N 
HETATM   20  H4  UNL     1      24.323   7.105  51.583  1.00  0.00     0.187 HD
BRANCH  19  21
HETATM   21  C5  UNL     1      25.924   7.035  50.065  1.00  0.00     0.049 A 
HETATM   22  C4  UNL     1      26.342   6.110  49.138  1.00  0.00     0.031 A 
HETATM   23  C3  UNL     1      27.324   6.511  48.224  1.00  0.00     0.004 A 
HETATM   24  C2  UNL     1      27.819   7.808  48.299  1.00  0.00     0.024 A 
HETATM   25  C1  UNL     1      27.339   8.666  49.263  1.00  0.00     0.036 A 
HETATM   26 CL1  UNL     1      28.043  10.281  49.257  1.00  0.00    -0.084 Cl
HETATM   27  C16 UNL     1      26.378   8.327  50.185  1.00  0.00     0.054 A 
ENDBRANCH  19  21
ENDBRANCH  17  19
ENDBRANCH   1  17
TORSDOF 3
ENDMDL
MODEL 4
REMARK VINA RESULT:      -7.9      2.000      2.453
REMARK  3 active torsions:
REMARK  status: ('A' for Active; 'I' for Inactive)
REMARK    1  A    between atoms: C5_6  and  N1_7 
REMARK    2  A    between atoms: N1_7  and  N2_8 
REMARK    3  A    between atoms: N2_8  and  C6_9 
ROOT
HETATM    1  C6  UNL     1      23.985   3.528  52.761  1.00  0.00     0.134 C 
HETATM    2  C7  UNL     1      23.054   2.685  52.286  1.00  0.00     0.054 C 
HETATM    3  C8  UNL     1      21.845   3.231  51.655  1.00  0.00     0.300 C 
HETATM    4  N3  UNL     1      20.596   2.803  52.246  1.00  0.00     0.087 N 
HETATM    5  C9  UNL     1      19.528   3.620  51.744  1.00  0.00     0.273 C 
HETATM    6  C10 UNL     1      19.244   3.535  50.289  1.00  0.00     0.056 C 
HETATM    7  C11 UNL     1      20.301   4.095  49.434  1.00  0.00    -0.029 C 
HETATM    8  C12 UNL     1      21.254   4.524  48.638  1.00  0.00    -0.026 C 
HETATM    9  C13 UNL     1      22.078   5.684  48.225  1.00  0.00     0.073 C 
HETATM   10  C14 UNL     1      23.540   5.394  48.475  1.00  0.00     0.094 C 
HETATM   11  N4  UNL     1      23.685   5.364  49.735  1.00  0.00    -0.256 NA
HETATM   12  C15 UNL     1      24.847   5.133  50.479  1.00  0.00     0.254 C 
HETATM   13  N5  UNL     1      23.915   5.141  51.326  1.00  0.00    -0.166 NA
HETATM   14  N6  UNL     1      23.957   4.966  52.696  1.00  0.00    -0.261 N 
HETATM   15  H9  UNL     1      20.604   2.799  53.279  1.00  0.00     0.316 HD
HETATM   16  H20 UNL     1      23.974   5.439  53.624  1.00  0.00     0.191 HD
ENDROOT
BRANCH   1  17
HETATM   17  N2  UNL     1      25.131   2.967  53.362  1.00  0.00    -0.284 N 
HETATM   18  H5  UNL     1      25.658   3.158  52.457  1.00  0.00     0.188 HD
BRANCH  17  19
HETATM   19  N1  UNL     1      26.229   2.422  53.958  1.00  0.00    -0.299 N 
HETATM   20  H4  UNL     1      26.576   3.091  54.679  1.00  0.00     0.187 HD
BRANCH  19  21
HETATM   21  C5  UNL     1      26.784   1.158  53.634  1.00  0.00     0.049 A 
HETATM   22  C4  UNL     1      25.884   0.293  53.059  1.00  0.00     0.031 A 
HETATM   23  C3  UNL     1      26.346  -0.982  52.712  1.00  0.00     0.004 A 
HETATM   24  C2  UNL     1      27.675  -1.304  52.963  1.00  0.00     0.024 A 
HETATM   25  C1  UNL     1      28.505  -0.370  53.543  1.00  0.00     0.036 A 
HETATM   26 CL1  UNL     1      30.166  -0.894  53.809  1.00  0.00    -0.084 Cl
HETATM   27  C16 UNL     1      28.106   0.894  53.904  1.00  0.00     0.054 A 
ENDBRANCH  19  21
ENDBRANCH  17  19
ENDBRANCH   1  17
TORSDOF 3
ENDMDL
MODEL 5
REMARK VINA RESULT:      -7.8      4.030      6.259
REMARK  3 active torsions:
REMARK  status: ('A' for Active; 'I' for Inactive)
REMARK    1  A    between atoms: C5_6  and  N1_7 
REMARK    2  A    between atoms: N1_7  and  N2_8 
REMARK    3  A    between atoms: N2_8  and  C6_9 
ROOT
HETATM    1  C6  UNL     1      24.976   3.635  51.251  1.00  0.00     0.134 C 
HETATM    2  C7  UNL     1      25.508   2.402  51.216  1.00  0.00     0.054 C 
HETATM    3  C8  UNL     1      25.349   1.518  52.378  1.00  0.00     0.300 C 
HETATM    4  N3  UNL     1      26.582   1.027  52.951  1.00  0.00     0.087 N 
HETATM    5  C9  UNL     1      26.310   0.432  54.229  1.00  0.00     0.273 C 
HETATM    6  C10 UNL     1      25.444  -0.775  54.237  1.00  0.00     0.056 C 
HETATM    7  C11 UNL     1      24.045  -0.517  53.869  1.00  0.00    -0.029 C 
HETATM    8  C12 UNL     1      22.804  -0.335  53.480  1.00  0.00    -0.026 C 
HETATM    9  C13 UNL     1      21.524   0.362  53.746  1.00  0.00     0.073 C 
HETATM   10  C14 UNL     1      21.160   1.240  52.571  1.00  0.00     0.094 C 
HETATM   11  N4  UNL     1      22.009   2.181  52.555  1.00  0.00    -0.256 NA
HETATM   12  C15 UNL     1      22.111   3.256  51.665  1.00  0.00     0.254 C 
HETATM   13  N5  UNL     1      23.155   3.315  52.367  1.00  0.00    -0.166 NA
HETATM   14  N6  UNL     1      24.207   4.210  52.323  1.00  0.00    -0.261 N 
HETATM   15  H9  UNL     1      27.321   1.744  53.028  1.00  0.00     0.316 HD
HETATM   16  H20 UNL     1      24.621   5.072  52.736  1.00  0.00     0.191 HD
ENDROOT
BRANCH   1  17
HETATM   17  N2  UNL     1      25.151   4.456  50.117  1.00  0.00    -0.284 N 
HETATM   18  H5  UNL     1      25.553   5.201  50.761  1.00  0.00     0.188 HD
BRANCH  17  19
HETATM   19  N1  UNL     1      25.314   5.236  49.011  1.00  0.00    -0.299 N 
HETATM   20  H4  UNL     1      24.381   5.370  48.565  1.00  0.00     0.187 HD
BRANCH  19  21
HETATM   21  C5  UNL     1      26.553   5.764  48.567  1.00  0.00     0.049 A 
HETATM   22  C4  UNL     1      27.602   4.886  48.691  1.00  0.00     0.031 A 
HETATM   23  C3  UNL     1      28.865   5.328  48.280  1.00  0.00     0.004 A 
HETATM   24  C2  UNL     1      28.992   6.616  47.773  1.00  0.00     0.024 A 
HETATM   25  C1  UNL     1      27.881   7.426  47.684  1.00  0.00     0.036 A 
HETATM   26 CL1  UNL     1      28.168   9.035  47.025  1.00  0.00    -0.084 Cl
HETATM   27  C16 UNL     1      26.620   7.046  48.073  1.00  0.00     0.054 A 
ENDBRANCH  19  21
ENDBRANCH  17  19
ENDBRANCH   1  17
TORSDOF 3
ENDMDL
MODEL 6
REMARK VINA RESULT:      -7.6      4.318      6.998
REMARK  3 active torsions:
REMARK  status: ('A' for Active; 'I' for Inactive)
REMARK    1  A    between atoms: C5_6  and  N1_7 
REMARK    2  A    between atoms: N1_7  and  N2_8 
REMARK    3  A    between atoms: N2_8  and  C6_9 
ROOT
HETATM    1  C6  UNL     1      24.113   3.951  51.656  1.00  0.00     0.134 C 
HETATM    2  C7  UNL     1      23.516   3.390  52.721  1.00  0.00     0.054 C 
HETATM    3  C8  UNL     1      23.299   1.937  52.740  1.00  0.00     0.300 C 
HETATM    4  N3  UNL     1      21.925   1.522  52.918  1.00  0.00     0.087 N 
HETATM    5  C9  UNL     1      21.810   0.122  52.626  1.00  0.00     0.273 C 
HETATM    6  C10 UNL     1      22.548  -0.813  53.513  1.00  0.00     0.056 C 
HETATM    7  C11 UNL     1      24.011  -0.734  53.389  1.00  0.00    -0.029 C 
HETATM    8  C12 UNL     1      25.321  -0.644  53.353  1.00  0.00    -0.026 C 
HETATM    9  C13 UNL     1      26.537  -0.765  52.516  1.00  0.00     0.073 C 
HETATM   10  C14 UNL     1      27.260   0.560  52.459  1.00  0.00     0.094 C 
HETATM   11  N4  UNL     1      26.518   1.341  51.789  1.00  0.00    -0.256 NA
HETATM   12  C15 UNL     1      26.734   2.681  51.451  1.00  0.00     0.254 C 
HETATM   13  N5  UNL     1      25.551   2.442  51.092  1.00  0.00    -0.166 NA
HETATM   14  N6  UNL     1      24.619   3.268  50.494  1.00  0.00    -0.261 N 
HETATM   15  H9  UNL     1      21.249   2.072  52.364  1.00  0.00     0.316 HD
HETATM   16  H20 UNL     1      24.178   3.561  49.597  1.00  0.00     0.191 HD
ENDROOT
BRANCH   1  17
HETATM   17  N2  UNL     1      24.302   5.348  51.673  1.00  0.00    -0.284 N 
HETATM   18  H5  UNL     1      25.201   5.187  52.217  1.00  0.00     0.188 HD
BRANCH  17  19
HETATM   19  N1  UNL     1      24.469   6.701  51.679  1.00  0.00    -0.299 N 
HETATM   20  H4  UNL     1      24.963   6.966  52.558  1.00  0.00     0.187 HD
BRANCH  19  21
HETATM   21  C5  UNL     1      24.035   7.577  50.651  1.00  0.00     0.049 A 
HETATM   22  C4  UNL     1      25.065   8.187  49.977  1.00  0.00     0.031 A 
HETATM   23  C3  UNL     1      24.727   9.073  48.947  1.00  0.00     0.004 A 
HETATM   24  C2  UNL     1      23.382   9.287  48.663  1.00  0.00     0.024 A 
HETATM   25  C1  UNL     1      22.418   8.628  49.393  1.00  0.00     0.036 A 
HETATM   26 CL1  UNL     1      20.752   8.980  48.938  1.00  0.00    -0.084 Cl
HETATM   27  C16 UNL     1      22.692   7.750  50.413  1.00  0.00     0.054 A 
ENDBRANCH  19  21
ENDBRANCH  17  19
ENDBRANCH   1  17
TORSDOF 3
ENDMDL
MODEL 7
REMARK VINA RESULT:      -7.4      3.995      5.789
REMARK  3 active torsions:
REMARK  status: ('A' for Active; 'I' for Inactive)
REMARK    1  A    between atoms: C5_6  and  N1_7 
REMARK    2  A    between atoms: N1_7  and  N2_8 
REMARK    3  A    between atoms: N2_8  and  C6_9 
ROOT
HETATM    1  C6  UNL     1      24.981   3.168  51.620  1.00  0.00     0.134 C 
HETATM    2  C7  UNL     1      24.861   1.848  51.406  1.00  0.00     0.054 C 
HETATM    3  C8  UNL     1      23.938   1.065  52.239  1.00  0.00     0.300 C 
HETATM    4  N3  UNL     1      24.538  -0.044  52.946  1.00  0.00     0.087 N 
HETATM    5  C9  UNL     1      23.618  -0.533  53.933  1.00  0.00     0.273 C 
HETATM    6  C10 UNL     1      22.345  -1.115  53.435  1.00  0.00     0.056 C 
HETATM    7  C11 UNL     1      21.433  -0.138  52.823  1.00  0.00    -0.029 C 
HETATM    8  C12 UNL     1      20.623   0.695  52.209  1.00  0.00    -0.026 C 
HETATM    9  C13 UNL     1      19.804   1.923  52.330  1.00  0.00     0.073 C 
HETATM   10  C14 UNL     1      20.297   2.971  51.360  1.00  0.00     0.094 C 
HETATM   11  N4  UNL     1      21.437   3.336  51.781  1.00  0.00    -0.256 NA
HETATM   12  C15 UNL     1      22.310   4.284  51.238  1.00  0.00     0.254 C 
HETATM   13  N5  UNL     1      22.966   3.728  52.158  1.00  0.00    -0.166 NA
HETATM   14  N6  UNL     1      24.259   3.952  52.589  1.00  0.00    -0.261 N 
HETATM   15  H9  UNL     1      25.452   0.178  53.372  1.00  0.00     0.316 HD
HETATM   16  H20 UNL     1      24.862   4.432  53.289  1.00  0.00     0.191 HD
ENDROOT
BRANCH   1  17
HETATM   17  N2  UNL     1      25.878   3.886  50.802  1.00  0.00    -0.284 N 
HETATM   18  H5  UNL     1      25.047   4.180  50.207  1.00  0.00     0.188 HD
BRANCH  17  19
HETATM   19  N1  UNL     1      26.760   4.573  50.022  1.00  0.00    -0.299 N 
HETATM   20  H4  UNL     1      27.715   4.193  50.195  1.00  0.00     0.187 HD
BRANCH  19  21
HETATM   21  C5  UNL     1      26.409   5.622  49.135  1.00  0.00     0.049 A 
HETATM   22  C4  UNL     1      27.494   6.248  48.566  1.00  0.00     0.031 A 
HETATM   23  C3  UNL     1      27.239   7.300  47.679  1.00  0.00     0.004 A 
HETATM   24  C2  UNL     1      25.919   7.654  47.421  1.00  0.00     0.024 A 
HETATM   25  C1  UNL     1      24.896   6.968  48.037  1.00  0.00     0.036 A 
HETATM   26 CL1  UNL     1      23.270   7.508  47.630  1.00  0.00    -0.084 Cl
HETATM   27  C16 UNL     1      25.087   5.929  48.916  1.00  0.00     0.054 A 
ENDBRANCH  19  21
ENDBRANCH  17  19
ENDBRANCH   1  17
TORSDOF 3
ENDMDL
MODEL 8
REMARK VINA RESULT:      -7.4      4.329      5.761
REMARK  3 active torsions:
REMARK  status: ('A' for Active; 'I' for Inactive)
REMARK    1  A    between atoms: C5_6  and  N1_7 
REMARK    2  A    between atoms: N1_7  and  N2_8 
REMARK    3  A    between atoms: N2_8  and  C6_9 
ROOT
HETATM    1  C6  UNL     1      23.432   4.771  52.082  1.00  0.00     0.134 C 
HETATM    2  C7  UNL     1      23.990   3.578  51.817  1.00  0.00     0.054 C 
HETATM    3  C8  UNL     1      23.287   2.352  52.216  1.00  0.00     0.300 C 
HETATM    4  N3  UNL     1      24.034   1.467  53.083  1.00  0.00     0.087 N 
HETATM    5  C9  UNL     1      23.151   0.477  53.628  1.00  0.00     0.273 C 
HETATM    6  C10 UNL     1      22.522  -0.465  52.667  1.00  0.00     0.056 C 
HETATM    7  C11 UNL     1      21.543   0.157  51.765  1.00  0.00    -0.029 C 
HETATM    8  C12 UNL     1      20.712   0.691  50.898  1.00  0.00    -0.026 C 
HETATM    9  C13 UNL     1      19.448   1.439  50.712  1.00  0.00     0.073 C 
HETATM   10  C14 UNL     1      19.723   2.757  50.025  1.00  0.00     0.094 C 
HETATM   11  N4  UNL     1      20.364   3.465  50.860  1.00  0.00    -0.256 NA
HETATM   12  C15 UNL     1      20.854   4.767  50.712  1.00  0.00     0.254 C 
HETATM   13  N5  UNL     1      21.330   4.363  51.806  1.00  0.00    -0.166 NA
HETATM   14  N6  UNL     1      22.157   5.004  52.708  1.00  0.00    -0.261 N 
HETATM   15  H9  UNL     1      24.549   1.956  53.833  1.00  0.00     0.316 HD
HETATM   16  H20 UNL     1      22.206   5.548  53.594  1.00  0.00     0.191 HD
ENDROOT
BRANCH   1  17
HETATM   17  N2  UNL     1      24.139   5.926  51.687  1.00  0.00    -0.284 N 
HETATM   18  H5  UNL     1      23.332   6.507  52.065  1.00  0.00     0.188 HD
BRANCH  17  19
HETATM   19  N1  UNL     1      24.834   7.032  51.299  1.00  0.00    -0.299 N 
HETATM   20  H4  UNL     1      24.536   7.833  51.897  1.00  0.00     0.187 HD
BRANCH  19  21
HETATM   21  C5  UNL     1      25.796   7.061  50.257  1.00  0.00     0.049 A 
HETATM   22  C4  UNL     1      25.957   5.852  49.622  1.00  0.00     0.031 A 
HETATM   23  C3  UNL     1      26.892   5.789  48.582  1.00  0.00     0.004 A 
HETATM   24  C2  UNL     1      27.600   6.938  48.248  1.00  0.00     0.024 A 
HETATM   25  C1  UNL     1      27.370   8.107  48.940  1.00  0.00     0.036 A 
HETATM   26 CL1  UNL     1      28.327   9.493  48.424  1.00  0.00    -0.084 Cl
HETATM   27  C16 UNL     1      26.467   8.226  49.968  1.00  0.00     0.054 A 
ENDBRANCH  19  21
ENDBRANCH  17  19
ENDBRANCH   1  17
TORSDOF 3
ENDMDL
MODEL 9
REMARK VINA RESULT:      -7.4      2.028      2.317
REMARK  3 active torsions:
REMARK  status: ('A' for Active; 'I' for Inactive)
REMARK    1  A    between atoms: C5_6  and  N1_7 
REMARK    2  A    between atoms: N1_7  and  N2_8 
REMARK    3  A    between atoms: N2_8  and  C6_9 
ROOT
HETATM    1  C6  UNL     1      23.630  -0.120  53.292  1.00  0.00     0.134 C 
HETATM    2  C7  UNL     1      22.628  -0.920  52.892  1.00  0.00     0.054 C 
HETATM    3  C8  UNL     1      21.335  -0.325  52.529  1.00  0.00     0.300 C 
HETATM    4  N3  UNL     1      20.198  -0.824  53.270  1.00  0.00     0.087 N 
HETATM    5  C9  UNL     1      19.067   0.029  53.038  1.00  0.00     0.273 C 
HETATM    6  C10 UNL     1      18.547   0.091  51.648  1.00  0.00     0.056 C 
HETATM    7  C11 UNL     1      19.452   0.746  50.694  1.00  0.00    -0.029 C 
HETATM    8  C12 UNL     1      20.263   1.265  49.800  1.00  0.00    -0.026 C 
HETATM    9  C13 UNL     1      21.016   2.469  49.379  1.00  0.00     0.073 C 
HETATM   10  C14 UNL     1      22.497   2.171  49.353  1.00  0.00     0.094 C 
HETATM   11  N4  UNL     1      22.848   2.013  50.562  1.00  0.00    -0.256 NA
HETATM   12  C15 UNL     1      24.115   1.719  51.077  1.00  0.00     0.254 C 
HETATM   13  N5  UNL     1      23.335   1.630  52.062  1.00  0.00    -0.166 NA
HETATM   14  N6  UNL     1      23.601   1.317  53.381  1.00  0.00    -0.261 N 
HETATM   15  H9  UNL     1      20.376  -0.934  54.282  1.00  0.00     0.316 HD
HETATM   16  H20 UNL     1      23.775   1.692  54.337  1.00  0.00     0.191 HD
ENDROOT
BRANCH   1  17
HETATM   17  N2  UNL     1      24.856  -0.728  53.635  1.00  0.00    -0.284 N 
HETATM   18  H5  UNL     1      24.391  -1.086  54.522  1.00  0.00     0.188 HD
BRANCH  17  19
HETATM   19  N1  UNL     1      26.048  -1.308  53.952  1.00  0.00    -0.299 N 
HETATM   20  H4  UNL     1      25.856  -2.250  54.357  1.00  0.00     0.187 HD
BRANCH  19  21
HETATM   21  C5  UNL     1      27.319  -0.712  53.752  1.00  0.00     0.049 A 
HETATM   22  C4  UNL     1      28.322  -1.620  53.510  1.00  0.00     0.031 A 
HETATM   23  C3  UNL     1      29.612  -1.118  53.306  1.00  0.00     0.004 A 
HETATM   24  C2  UNL     1      29.811   0.258  53.358  1.00  0.00     0.024 A 
HETATM   25  C1  UNL     1      28.743   1.092  53.606  1.00  0.00     0.036 A 
HETATM   26 CL1  UNL     1      29.121   2.813  53.646  1.00  0.00    -0.084 Cl
HETATM   27  C16 UNL     1      27.458   0.655  53.814  1.00  0.00     0.054 A 
ENDBRANCH  19  21
ENDBRANCH  17  19
ENDBRANCH   1  17
TORSDOF 3
ENDMDL
