MODEL 1
REMARK VINA RESULT:      -9.3      0.000      0.000
REMARK  7 active torsions:
REMARK  status: ('A' for Active; 'I' for Inactive)
REMARK    1  A    between atoms: C2_2  and  C3_3 
REMARK    2  A    between atoms: C2_2  and  C9_11 
REMARK    3  A    between atoms: C4_4  and  C5_5 
REMARK    4  A    between atoms: C5_5  and  N1_6 
REMARK    5  A    between atoms: C12_14  and  N2_15 
REMARK    6  A    between atoms: N2_15  and  C13_16 
REMARK    7  A    between atoms: C22_29  and  O2_30 
ROOT
HETATM    1  C9  UNL     1      20.853  -0.013  52.530  1.00  0.00    -0.009 A 
HETATM    2  C10 UNL     1      22.242   0.134  52.563  1.00  0.00     0.029 A 
HETATM    3  C11 UNL     1      23.010  -0.386  53.610  1.00  0.00     0.039 A 
HETATM    4  C12 UNL     1      24.380  -0.246  53.676  1.00  0.00     0.142 A 
HETATM    5  N3  UNL     1      24.954  -0.800  54.753  1.00  0.00    -0.224 NA
HETATM    6  C19 UNL     1      24.288  -1.452  55.720  1.00  0.00     0.236 A 
HETATM    7  N4  UNL     1      22.945  -1.574  55.636  1.00  0.00    -0.241 NA
HETATM    8  C20 UNL     1      22.277  -1.041  54.577  1.00  0.00     0.074 A 
HETATM    9  C21 UNL     1      20.910  -1.214  54.594  1.00  0.00     0.069 A 
HETATM   10  C22 UNL     1      20.204  -0.681  53.541  1.00  0.00     0.075 A 
ENDROOT
BRANCH   1  11
HETATM   11  C2  UNL     1      19.978   0.492  51.446  1.00  0.00     0.097 C 
HETATM   12  C1  UNL     1      19.191   1.710  51.967  1.00  0.00     0.029 C 
BRANCH  11  13
HETATM   13  C3  UNL     1      20.748   0.850  50.267  1.00  0.00    -0.096 C 
HETATM   14  C4  UNL     1      21.390   1.164  49.262  1.00  0.00    -0.075 C 
BRANCH  14  15
HETATM   15  C5  UNL     1      22.144   1.539  48.056  1.00  0.00     0.368 C 
BRANCH  15  16
HETATM   16  N1  UNL     1      22.762   2.843  48.179  1.00  0.00     0.124 N 
HETATM   17  C6  UNL     1      21.798   3.917  48.125  1.00  0.00     0.302 C 
HETATM   18  C7  UNL     1      22.345   4.901  49.098  1.00  0.00     0.200 C 
HETATM   19  O1  UNL     1      23.414   4.326  49.778  1.00  0.00    -0.361 OA
HETATM   20  C8  UNL     1      23.492   2.994  49.407  1.00  0.00     0.441 C 
ENDBRANCH  15  16
ENDBRANCH  14  15
ENDBRANCH  11  13
ENDBRANCH   1  11
BRANCH  10  21
HETATM   21  O2  UNL     1      18.821  -0.853  53.562  1.00  0.00    -0.360 OA
HETATM   22  H20 UNL     1      18.296  -0.518  52.734  1.00  0.00     0.217 HD
ENDBRANCH  10  21
BRANCH   4  23
HETATM   23  N2  UNL     1      25.046   0.476  52.638  1.00  0.00    -0.340 N 
HETATM   24  H14 UNL     1      24.708   1.023  51.847  1.00  0.00     0.167 HD
BRANCH  23  25
HETATM   25  C13 UNL     1      26.445   0.270  52.946  1.00  0.00     0.035 A 
HETATM   26  C14 UNL     1      27.006  -0.977  52.670  1.00  0.00     0.032 A 
HETATM   27  C15 UNL     1      28.340  -1.284  52.963  1.00  0.00     0.046 A 
HETATM   28  C16 UNL     1      29.139  -0.304  53.555  1.00  0.00     0.138 A 
HETATM   29  F1  UNL     1      30.424  -0.616  53.836  1.00  0.00    -0.204 F 
HETATM   30  C17 UNL     1      28.555   0.938  53.824  1.00  0.00     0.074 A 
HETATM   31 CL1  UNL     1      29.587   2.127  54.572  1.00  0.00    -0.081 Cl
HETATM   32  C18 UNL     1      27.248   1.246  53.538  1.00  0.00     0.056 A 
ENDBRANCH  23  25
ENDBRANCH   4  23
TORSDOF 7
ENDMDL
MODEL 2
REMARK VINA RESULT:      -8.6      3.591      5.445
REMARK  7 active torsions:
REMARK  status: ('A' for Active; 'I' for Inactive)
REMARK    1  A    between atoms: C2_2  and  C3_3 
REMARK    2  A    between atoms: C2_2  and  C9_11 
REMARK    3  A    between atoms: C4_4  and  C5_5 
REMARK    4  A    between atoms: C5_5  and  N1_6 
REMARK    5  A    between atoms: C12_14  and  N2_15 
REMARK    6  A    between atoms: N2_15  and  C13_16 
REMARK    7  A    between atoms: C22_29  and  O2_30 
ROOT
HETATM    1  C9  UNL     1      24.269  -0.381  53.753  1.00  0.00    -0.009 A 
HETATM    2  C10 UNL     1      24.666   0.480  52.726  1.00  0.00     0.029 A 
HETATM    3  C11 UNL     1      25.893   1.150  52.765  1.00  0.00     0.039 A 
HETATM    4  C12 UNL     1      26.305   2.016  51.774  1.00  0.00     0.142 A 
HETATM    5  N3  UNL     1      27.505   2.576  51.976  1.00  0.00    -0.224 NA
HETATM    6  C19 UNL     1      28.283   2.344  53.046  1.00  0.00     0.236 A 
HETATM    7  N4  UNL     1      27.857   1.496  54.007  1.00  0.00    -0.241 NA
HETATM    8  C20 UNL     1      26.649   0.880  53.885  1.00  0.00     0.074 A 
HETATM    9  C21 UNL     1      26.307   0.042  54.925  1.00  0.00     0.069 A 
HETATM   10  C22 UNL     1      25.088  -0.589  54.837  1.00  0.00     0.075 A 
ENDROOT
BRANCH   1  11
HETATM   11  C2  UNL     1      22.996  -1.140  53.771  1.00  0.00     0.097 C 
HETATM   12  C1  UNL     1      22.418  -1.111  55.199  1.00  0.00     0.029 C 
BRANCH  11  13
HETATM   13  C3  UNL     1      22.040  -0.593  52.824  1.00  0.00    -0.096 C 
HETATM   14  C4  UNL     1      21.221  -0.121  52.031  1.00  0.00    -0.075 C 
BRANCH  14  15
HETATM   15  C5  UNL     1      20.236   0.444  51.096  1.00  0.00     0.368 C 
BRANCH  15  16
HETATM   16  N1  UNL     1      20.266   1.892  51.076  1.00  0.00     0.124 N 
HETATM   17  C6  UNL     1      19.195   2.455  50.288  1.00  0.00     0.302 C 
HETATM   18  C7  UNL     1      18.826   3.675  51.056  1.00  0.00     0.200 C 
HETATM   19  O1  UNL     1      19.504   3.674  52.270  1.00  0.00    -0.361 OA
HETATM   20  C8  UNL     1      20.167   2.464  52.390  1.00  0.00     0.441 C 
ENDBRANCH  15  16
ENDBRANCH  14  15
ENDBRANCH  11  13
ENDBRANCH   1  11
BRANCH  10  21
HETATM   21  O2  UNL     1      24.742  -1.434  55.890  1.00  0.00    -0.360 OA
HETATM   22  H20 UNL     1      24.627  -2.438  55.665  1.00  0.00     0.217 HD
ENDBRANCH  10  21
BRANCH   4  23
HETATM   23  N2  UNL     1      25.436   2.251  50.665  1.00  0.00    -0.340 N 
HETATM   24  H14 UNL     1      25.099   1.656  49.909  1.00  0.00     0.167 HD
BRANCH  23  25
HETATM   25  C13 UNL     1      25.079   3.645  50.824  1.00  0.00     0.035 A 
HETATM   26  C14 UNL     1      24.084   3.972  51.746  1.00  0.00     0.032 A 
HETATM   27  C15 UNL     1      23.646   5.286  51.947  1.00  0.00     0.046 A 
HETATM   28  C16 UNL     1      24.227   6.309  51.195  1.00  0.00     0.138 A 
HETATM   29  F1  UNL     1      23.791   7.572  51.396  1.00  0.00    -0.204 F 
HETATM   30  C17 UNL     1      25.221   5.958  50.275  1.00  0.00     0.074 A 
HETATM   31 CL1  UNL     1      25.911   7.266  49.352  1.00  0.00    -0.081 Cl
HETATM   32  C18 UNL     1      25.657   4.671  50.074  1.00  0.00     0.056 A 
ENDBRANCH  23  25
ENDBRANCH   4  23
TORSDOF 7
ENDMDL
MODEL 3
REMARK VINA RESULT:      -8.6      4.163      6.080
REMARK  7 active torsions:
REMARK  status: ('A' for Active; 'I' for Inactive)
REMARK    1  A    between atoms: C2_2  and  C3_3 
REMARK    2  A    between atoms: C2_2  and  C9_11 
REMARK    3  A    between atoms: C4_4  and  C5_5 
REMARK    4  A    between atoms: C5_5  and  N1_6 
REMARK    5  A    between atoms: C12_14  and  N2_15 
REMARK    6  A    between atoms: N2_15  and  C13_16 
REMARK    7  A    between atoms: C22_29  and  O2_30 
ROOT
HETATM    1  C9  UNL     1      24.488   4.610  49.874  1.00  0.00    -0.009 A 
HETATM    2  C10 UNL     1      24.884   3.982  51.057  1.00  0.00     0.029 A 
HETATM    3  C11 UNL     1      24.259   2.816  51.513  1.00  0.00     0.039 A 
HETATM    4  C12 UNL     1      24.618   2.182  52.683  1.00  0.00     0.142 A 
HETATM    5  N3  UNL     1      23.910   1.082  52.970  1.00  0.00    -0.224 NA
HETATM    6  C19 UNL     1      22.916   0.595  52.209  1.00  0.00     0.236 A 
HETATM    7  N4  UNL     1      22.578   1.236  51.069  1.00  0.00    -0.241 NA
HETATM    8  C20 UNL     1      23.244   2.363  50.697  1.00  0.00     0.074 A 
HETATM    9  C21 UNL     1      22.814   2.942  49.523  1.00  0.00     0.069 A 
HETATM   10  C22 UNL     1      23.461   4.088  49.123  1.00  0.00     0.075 A 
ENDROOT
BRANCH   1  11
HETATM   11  C2  UNL     1      25.114   5.833  49.319  1.00  0.00     0.097 C 
HETATM   12  C1  UNL     1      25.061   6.948  50.382  1.00  0.00     0.029 C 
BRANCH  11  13
HETATM   13  C3  UNL     1      26.486   5.586  48.910  1.00  0.00    -0.096 C 
HETATM   14  C4  UNL     1      27.654   5.370  48.576  1.00  0.00    -0.075 C 
BRANCH  14  15
HETATM   15  C5  UNL     1      29.050   5.113  48.191  1.00  0.00     0.368 C 
BRANCH  15  16
HETATM   16  N1  UNL     1      29.914   6.238  48.478  1.00  0.00     0.124 N 
HETATM   17  C6  UNL     1      31.282   5.838  48.714  1.00  0.00     0.302 C 
HETATM   18  C7  UNL     1      32.062   6.944  48.093  1.00  0.00     0.200 C 
HETATM   19  O1  UNL     1      31.195   7.781  47.398  1.00  0.00    -0.361 OA
HETATM   20  C8  UNL     1      29.936   7.202  47.413  1.00  0.00     0.441 C 
ENDBRANCH  15  16
ENDBRANCH  14  15
ENDBRANCH  11  13
ENDBRANCH   1  11
BRANCH  10  21
HETATM   21  O2  UNL     1      23.023   4.675  47.937  1.00  0.00    -0.360 OA
HETATM   22  H20 UNL     1      22.024   4.946  47.892  1.00  0.00     0.217 HD
ENDBRANCH  10  21
BRANCH   4  23
HETATM   23  N2  UNL     1      25.665   2.747  53.475  1.00  0.00    -0.340 N 
HETATM   24  H14 UNL     1      25.757   3.630  53.975  1.00  0.00     0.167 HD
BRANCH  23  25
HETATM   25  C13 UNL     1      26.689   1.724  53.435  1.00  0.00     0.035 A 
HETATM   26  C14 UNL     1      28.003   2.091  53.727  1.00  0.00     0.032 A 
HETATM   27  C15 UNL     1      29.066   1.182  53.682  1.00  0.00     0.046 A 
HETATM   28  C16 UNL     1      28.802  -0.143  53.332  1.00  0.00     0.138 A 
HETATM   29  F1  UNL     1      29.839  -1.008  53.288  1.00  0.00    -0.204 F 
HETATM   30  C17 UNL     1      27.477  -0.489  53.043  1.00  0.00     0.074 A 
HETATM   31 CL1  UNL     1      27.195  -2.152  52.602  1.00  0.00    -0.081 Cl
HETATM   32  C18 UNL     1      26.429   0.398  53.086  1.00  0.00     0.056 A 
ENDBRANCH  23  25
ENDBRANCH   4  23
TORSDOF 7
ENDMDL
MODEL 4
REMARK VINA RESULT:      -8.5      4.183      6.567
REMARK  7 active torsions:
REMARK  status: ('A' for Active; 'I' for Inactive)
REMARK    1  A    between atoms: C2_2  and  C3_3 
REMARK    2  A    between atoms: C2_2  and  C9_11 
REMARK    3  A    between atoms: C4_4  and  C5_5 
REMARK    4  A    between atoms: C5_5  and  N1_6 
REMARK    5  A    between atoms: C12_14  and  N2_15 
REMARK    6  A    between atoms: N2_15  and  C13_16 
REMARK    7  A    between atoms: C22_29  and  O2_30 
ROOT
HETATM    1  C9  UNL     1      25.080  -0.123  53.557  1.00  0.00    -0.009 A 
HETATM    2  C10 UNL     1      23.953   0.064  52.753  1.00  0.00     0.029 A 
HETATM    3  C11 UNL     1      22.674  -0.303  53.186  1.00  0.00     0.039 A 
HETATM    4  C12 UNL     1      21.546  -0.144  52.409  1.00  0.00     0.142 A 
HETATM    5  N3  UNL     1      20.405  -0.555  52.979  1.00  0.00    -0.224 NA
HETATM    6  C19 UNL     1      20.317  -1.090  54.207  1.00  0.00     0.236 A 
HETATM    7  N4  UNL     1      21.436  -1.240  54.949  1.00  0.00    -0.241 NA
HETATM    8  C20 UNL     1      22.641  -0.850  54.450  1.00  0.00     0.074 A 
HETATM    9  C21 UNL     1      23.719  -1.056  55.284  1.00  0.00     0.069 A 
HETATM   10  C22 UNL     1      24.953  -0.680  54.808  1.00  0.00     0.075 A 
ENDROOT
BRANCH   1  11
HETATM   11  C2  UNL     1      26.460   0.259  53.176  1.00  0.00     0.097 C 
HETATM   12  C1  UNL     1      27.202  -0.993  52.668  1.00  0.00     0.029 C 
BRANCH  11  13
HETATM   13  C3  UNL     1      26.461   1.298  52.160  1.00  0.00    -0.096 C 
HETATM   14  C4  UNL     1      26.447   2.183  51.301  1.00  0.00    -0.075 C 
BRANCH  14  15
HETATM   15  C5  UNL     1      26.417   3.237  50.275  1.00  0.00     0.368 C 
BRANCH  15  16
HETATM   16  N1  UNL     1      25.199   4.018  50.328  1.00  0.00     0.124 N 
HETATM   17  C6  UNL     1      25.172   5.066  49.334  1.00  0.00     0.302 C 
HETATM   18  C7  UNL     1      23.743   5.093  48.920  1.00  0.00     0.200 C 
HETATM   19  O1  UNL     1      23.080   4.014  49.495  1.00  0.00    -0.361 OA
HETATM   20  C8  UNL     1      24.022   3.219  50.129  1.00  0.00     0.441 C 
ENDBRANCH  15  16
ENDBRANCH  14  15
ENDBRANCH  11  13
ENDBRANCH   1  11
BRANCH  10  21
HETATM   21  O2  UNL     1      26.042  -0.892  55.651  1.00  0.00    -0.360 OA
HETATM   22  H20 UNL     1      25.847  -0.922  56.668  1.00  0.00     0.217 HD
ENDBRANCH  10  21
BRANCH   4  23
HETATM   23  N2  UNL     1      21.689   0.407  51.099  1.00  0.00    -0.340 N 
HETATM   24  H14 UNL     1      22.321   0.203  50.325  1.00  0.00     0.167 HD
BRANCH  23  25
HETATM   25  C13 UNL     1      20.657   1.422  51.060  1.00  0.00     0.035 A 
HETATM   26  C14 UNL     1      20.811   2.553  51.863  1.00  0.00     0.032 A 
HETATM   27  C15 UNL     1      19.854   3.571  51.920  1.00  0.00     0.046 A 
HETATM   28  C16 UNL     1      18.700   3.452  51.143  1.00  0.00     0.138 A 
HETATM   29  F1  UNL     1      17.782   4.441  51.212  1.00  0.00    -0.204 F 
HETATM   30  C17 UNL     1      18.566   2.310  50.346  1.00  0.00     0.074 A 
HETATM   31 CL1  UNL     1      17.106   2.198  49.401  1.00  0.00    -0.081 Cl
HETATM   32  C18 UNL     1      19.503   1.307  50.284  1.00  0.00     0.056 A 
ENDBRANCH  23  25
ENDBRANCH   4  23
TORSDOF 7
ENDMDL
MODEL 5
REMARK VINA RESULT:      -8.4      4.656      7.276
REMARK  7 active torsions:
REMARK  status: ('A' for Active; 'I' for Inactive)
REMARK    1  A    between atoms: C2_2  and  C3_3 
REMARK    2  A    between atoms: C2_2  and  C9_11 
REMARK    3  A    between atoms: C4_4  and  C5_5 
REMARK    4  A    between atoms: C5_5  and  N1_6 
REMARK    5  A    between atoms: C12_14  and  N2_15 
REMARK    6  A    between atoms: N2_15  and  C13_16 
REMARK    7  A    between atoms: C22_29  and  O2_30 
ROOT
HETATM    1  C9  UNL     1      25.008   5.990  49.129  1.00  0.00    -0.009 A 
HETATM    2  C10 UNL     1      25.101   5.071  50.177  1.00  0.00     0.029 A 
HETATM    3  C11 UNL     1      24.159   4.050  50.342  1.00  0.00     0.039 A 
HETATM    4  C12 UNL     1      24.217   3.137  51.374  1.00  0.00     0.142 A 
HETATM    5  N3  UNL     1      23.230   2.232  51.384  1.00  0.00    -0.224 NA
HETATM    6  C19 UNL     1      22.236   2.179  50.482  1.00  0.00     0.236 A 
HETATM    7  N4  UNL     1      22.196   3.086  49.482  1.00  0.00    -0.241 NA
HETATM    8  C20 UNL     1      23.160   4.044  49.393  1.00  0.00     0.074 A 
HETATM    9  C21 UNL     1      23.020   4.924  48.342  1.00  0.00     0.069 A 
HETATM   10  C22 UNL     1      23.973   5.909  48.227  1.00  0.00     0.075 A 
ENDROOT
BRANCH   1  11
HETATM   11  C2  UNL     1      25.977   7.082  48.877  1.00  0.00     0.097 C 
HETATM   12  C1  UNL     1      26.067   7.969  50.135  1.00  0.00     0.029 C 
BRANCH  11  13
HETATM   13  C3  UNL     1      27.287   6.559  48.529  1.00  0.00    -0.096 C 
HETATM   14  C4  UNL     1      28.398   6.105  48.245  1.00  0.00    -0.075 C 
BRANCH  14  15
HETATM   15  C5  UNL     1      29.725   5.560  47.920  1.00  0.00     0.368 C 
BRANCH  15  16
HETATM   16  N1  UNL     1      30.746   6.017  48.840  1.00  0.00     0.124 N 
HETATM   17  C6  UNL     1      32.023   5.385  48.604  1.00  0.00     0.302 C 
HETATM   18  C7  UNL     1      32.990   6.484  48.879  1.00  0.00     0.200 C 
HETATM   19  O1  UNL     1      32.292   7.674  49.055  1.00  0.00    -0.361 OA
HETATM   20  C8  UNL     1      30.958   7.436  48.768  1.00  0.00     0.441 C 
ENDBRANCH  15  16
ENDBRANCH  14  15
ENDBRANCH  11  13
ENDBRANCH   1  11
BRANCH  10  21
HETATM   21  O2  UNL     1      23.828   6.802  47.166  1.00  0.00    -0.360 OA
HETATM   22  H20 UNL     1      22.917   7.288  47.086  1.00  0.00     0.217 HD
ENDBRANCH  10  21
BRANCH   4  23
HETATM   23  N2  UNL     1      25.278   3.245  52.325  1.00  0.00    -0.340 N 
HETATM   24  H14 UNL     1      25.745   4.042  52.757  1.00  0.00     0.167 HD
BRANCH  23  25
HETATM   25  C13 UNL     1      25.610   1.862  52.598  1.00  0.00     0.035 A 
HETATM   26  C14 UNL     1      26.456   1.197  51.710  1.00  0.00     0.032 A 
HETATM   27  C15 UNL     1      26.807  -0.148  51.869  1.00  0.00     0.046 A 
HETATM   28  C16 UNL     1      26.291  -0.852  52.959  1.00  0.00     0.138 A 
HETATM   29  F1  UNL     1      26.636  -2.151  53.098  1.00  0.00    -0.204 F 
HETATM   30  C17 UNL     1      25.445  -0.165  53.836  1.00  0.00     0.074 A 
HETATM   31 CL1  UNL     1      24.817  -1.084  55.178  1.00  0.00    -0.081 Cl
HETATM   32  C18 UNL     1      25.097   1.156  53.686  1.00  0.00     0.056 A 
ENDBRANCH  23  25
ENDBRANCH   4  23
TORSDOF 7
ENDMDL
MODEL 6
REMARK VINA RESULT:      -8.3      3.352      6.566
REMARK  7 active torsions:
REMARK  status: ('A' for Active; 'I' for Inactive)
REMARK    1  A    between atoms: C2_2  and  C3_3 
REMARK    2  A    between atoms: C2_2  and  C9_11 
REMARK    3  A    between atoms: C4_4  and  C5_5 
REMARK    4  A    between atoms: C5_5  and  N1_6 
REMARK    5  A    between atoms: C12_14  and  N2_15 
REMARK    6  A    between atoms: N2_15  and  C13_16 
REMARK    7  A    between atoms: C22_29  and  O2_30 
ROOT
HETATM    1  C9  UNL     1      21.641   0.041  53.128  1.00  0.00    -0.009 A 
HETATM    2  C10 UNL     1      22.225   0.750  52.076  1.00  0.00     0.029 A 
HETATM    3  C11 UNL     1      21.455   1.289  51.039  1.00  0.00     0.039 A 
HETATM    4  C12 UNL     1      22.004   1.982  49.981  1.00  0.00     0.142 A 
HETATM    5  N3  UNL     1      21.121   2.422  49.075  1.00  0.00    -0.224 NA
HETATM    6  C19 UNL     1      19.794   2.226  49.147  1.00  0.00     0.236 A 
HETATM    7  N4  UNL     1      19.279   1.541  50.191  1.00  0.00    -0.241 NA
HETATM    8  C20 UNL     1      20.102   1.056  51.160  1.00  0.00     0.074 A 
HETATM    9  C21 UNL     1      19.475   0.364  52.174  1.00  0.00     0.069 A 
HETATM   10  C22 UNL     1      20.279  -0.146  53.166  1.00  0.00     0.075 A 
ENDROOT
BRANCH   1  11
HETATM   11  C2  UNL     1      22.388  -0.540  54.269  1.00  0.00     0.097 C 
HETATM   12  C1  UNL     1      21.929  -1.996  54.477  1.00  0.00     0.029 C 
BRANCH  11  13
HETATM   13  C3  UNL     1      23.822  -0.485  54.047  1.00  0.00    -0.096 C 
HETATM   14  C4  UNL     1      25.039  -0.449  53.847  1.00  0.00    -0.075 C 
BRANCH  14  15
HETATM   15  C5  UNL     1      26.489  -0.419  53.604  1.00  0.00     0.368 C 
BRANCH  15  16
HETATM   16  N1  UNL     1      27.154   0.605  54.382  1.00  0.00     0.124 N 
HETATM   17  C6  UNL     1      28.552   0.313  54.599  1.00  0.00     0.302 C 
HETATM   18  C7  UNL     1      29.187   1.657  54.523  1.00  0.00     0.200 C 
HETATM   19  O1  UNL     1      28.242   2.585  54.100  1.00  0.00    -0.361 OA
HETATM   20  C8  UNL     1      27.087   1.899  53.762  1.00  0.00     0.441 C 
ENDBRANCH  15  16
ENDBRANCH  14  15
ENDBRANCH  11  13
ENDBRANCH   1  11
BRANCH  10  21
HETATM   21  O2  UNL     1      19.645  -0.849  54.189  1.00  0.00    -0.360 OA
HETATM   22  H20 UNL     1      18.626  -0.697  54.297  1.00  0.00     0.217 HD
ENDBRANCH  10  21
BRANCH   4  23
HETATM   23  N2  UNL     1      23.422   2.146  49.931  1.00  0.00    -0.340 N 
HETATM   24  H14 UNL     1      24.193   1.490  49.805  1.00  0.00     0.167 HD
BRANCH  23  25
HETATM   25  C13 UNL     1      23.590   3.573  50.112  1.00  0.00     0.035 A 
HETATM   26  C14 UNL     1      23.344   4.113  51.375  1.00  0.00     0.032 A 
HETATM   27  C15 UNL     1      23.446   5.483  51.640  1.00  0.00     0.046 A 
HETATM   28  C16 UNL     1      23.807   6.343  50.601  1.00  0.00     0.138 A 
HETATM   29  F1  UNL     1      23.897   7.663  50.871  1.00  0.00    -0.204 F 
HETATM   30  C17 UNL     1      24.048   5.779  49.343  1.00  0.00     0.074 A 
HETATM   31 CL1  UNL     1      24.487   6.890  48.074  1.00  0.00    -0.081 Cl
HETATM   32  C18 UNL     1      23.951   4.435  49.076  1.00  0.00     0.056 A 
ENDBRANCH  23  25
ENDBRANCH   4  23
TORSDOF 7
ENDMDL
MODEL 7
REMARK VINA RESULT:      -8.2      4.292      8.191
REMARK  7 active torsions:
REMARK  status: ('A' for Active; 'I' for Inactive)
REMARK    1  A    between atoms: C2_2  and  C3_3 
REMARK    2  A    between atoms: C2_2  and  C9_11 
REMARK    3  A    between atoms: C4_4  and  C5_5 
REMARK    4  A    between atoms: C5_5  and  N1_6 
REMARK    5  A    between atoms: C12_14  and  N2_15 
REMARK    6  A    between atoms: N2_15  and  C13_16 
REMARK    7  A    between atoms: C22_29  and  O2_30 
ROOT
HETATM    1  C9  UNL     1      23.587   1.887  52.092  1.00  0.00    -0.009 A 
HETATM    2  C10 UNL     1      22.975   1.737  50.845  1.00  0.00     0.029 A 
HETATM    3  C11 UNL     1      22.955   2.776  49.909  1.00  0.00     0.039 A 
HETATM    4  C12 UNL     1      22.347   2.663  48.677  1.00  0.00     0.142 A 
HETATM    5  N3  UNL     1      22.419   3.758  47.909  1.00  0.00    -0.224 NA
HETATM    6  C19 UNL     1      23.023   4.903  48.268  1.00  0.00     0.236 A 
HETATM    7  N4  UNL     1      23.609   4.992  49.482  1.00  0.00    -0.241 NA
HETATM    8  C20 UNL     1      23.585   3.928  50.330  1.00  0.00     0.074 A 
HETATM    9  C21 UNL     1      24.203   4.128  51.545  1.00  0.00     0.069 A 
HETATM   10  C22 UNL     1      24.191   3.075  52.429  1.00  0.00     0.075 A 
ENDROOT
BRANCH   1  11
HETATM   11  C2  UNL     1      23.666   0.826  53.125  1.00  0.00     0.097 C 
HETATM   12  C1  UNL     1      22.558  -0.212  52.859  1.00  0.00     0.029 C 
BRANCH  11  13
HETATM   13  C3  UNL     1      24.970   0.187  53.130  1.00  0.00    -0.096 C 
HETATM   14  C4  UNL     1      26.074  -0.363  53.147  1.00  0.00    -0.075 C 
BRANCH  14  15
HETATM   15  C5  UNL     1      27.390  -1.020  53.181  1.00  0.00     0.368 C 
BRANCH  15  16
HETATM   16  N1  UNL     1      28.458  -0.093  53.490  1.00  0.00     0.124 N 
HETATM   17  C6  UNL     1      28.269   1.195  52.864  1.00  0.00     0.302 C 
HETATM   18  C7  UNL     1      28.779   2.141  53.894  1.00  0.00     0.200 C 
HETATM   19  O1  UNL     1      29.040   1.442  55.068  1.00  0.00    -0.361 OA
HETATM   20  C8  UNL     1      28.593   0.141  54.901  1.00  0.00     0.441 C 
ENDBRANCH  15  16
ENDBRANCH  14  15
ENDBRANCH  11  13
ENDBRANCH   1  11
BRANCH  10  21
HETATM   21  O2  UNL     1      24.813   3.281  53.659  1.00  0.00    -0.360 OA
HETATM   22  H20 UNL     1      24.401   2.797  54.477  1.00  0.00     0.217 HD
ENDBRANCH  10  21
BRANCH   4  23
HETATM   23  N2  UNL     1      21.695   1.436  48.345  1.00  0.00    -0.340 N 
HETATM   24  H14 UNL     1      22.004   0.596  47.857  1.00  0.00     0.167 HD
BRANCH  23  25
HETATM   25  C13 UNL     1      20.365   1.619  48.888  1.00  0.00     0.035 A 
HETATM   26  C14 UNL     1      19.598   2.683  48.413  1.00  0.00     0.032 A 
HETATM   27  C15 UNL     1      18.315   2.962  48.899  1.00  0.00     0.046 A 
HETATM   28  C16 UNL     1      17.784   2.144  49.898  1.00  0.00     0.138 A 
HETATM   29  F1  UNL     1      16.547   2.429  50.361  1.00  0.00    -0.204 F 
HETATM   30  C17 UNL     1      18.572   1.084  50.360  1.00  0.00     0.074 A 
HETATM   31 CL1  UNL     1      17.872   0.096  51.614  1.00  0.00    -0.081 Cl
HETATM   32  C18 UNL     1      19.830   0.804  49.886  1.00  0.00     0.056 A 
ENDBRANCH  23  25
ENDBRANCH   4  23
TORSDOF 7
ENDMDL
MODEL 8
REMARK VINA RESULT:      -8.1      3.140      4.461
REMARK  7 active torsions:
REMARK  status: ('A' for Active; 'I' for Inactive)
REMARK    1  A    between atoms: C2_2  and  C3_3 
REMARK    2  A    between atoms: C2_2  and  C9_11 
REMARK    3  A    between atoms: C4_4  and  C5_5 
REMARK    4  A    between atoms: C5_5  and  N1_6 
REMARK    5  A    between atoms: C12_14  and  N2_15 
REMARK    6  A    between atoms: N2_15  and  C13_16 
REMARK    7  A    between atoms: C22_29  and  O2_30 
ROOT
HETATM    1  C9  UNL     1      22.993   3.010  49.898  1.00  0.00    -0.009 A 
HETATM    2  C10 UNL     1      23.861   2.797  50.972  1.00  0.00     0.029 A 
HETATM    3  C11 UNL     1      23.673   1.739  51.868  1.00  0.00     0.039 A 
HETATM    4  C12 UNL     1      24.504   1.512  52.944  1.00  0.00     0.142 A 
HETATM    5  N3  UNL     1      24.172   0.459  53.703  1.00  0.00    -0.224 NA
HETATM    6  C19 UNL     1      23.119  -0.343  53.474  1.00  0.00     0.236 A 
HETATM    7  N4  UNL     1      22.315  -0.098  52.416  1.00  0.00    -0.241 NA
HETATM    8  C20 UNL     1      22.576   0.952  51.590  1.00  0.00     0.074 A 
HETATM    9  C21 UNL     1      21.690   1.117  50.548  1.00  0.00     0.069 A 
HETATM   10  C22 UNL     1      21.920   2.173  49.698  1.00  0.00     0.075 A 
ENDROOT
BRANCH   1  11
HETATM   11  C2  UNL     1      23.140   4.094  48.899  1.00  0.00     0.097 C 
HETATM   12  C1  UNL     1      22.079   5.177  49.176  1.00  0.00     0.029 C 
BRANCH  11  13
HETATM   13  C3  UNL     1      24.473   4.669  48.933  1.00  0.00    -0.096 C 
HETATM   14  C4  UNL     1      25.601   5.170  48.956  1.00  0.00    -0.075 C 
BRANCH  14  15
HETATM   15  C5  UNL     1      26.941   5.775  48.972  1.00  0.00     0.368 C 
BRANCH  15  16
HETATM   16  N1  UNL     1      26.893   7.217  48.848  1.00  0.00     0.124 N 
HETATM   17  C6  UNL     1      26.277   7.849  49.991  1.00  0.00     0.302 C 
HETATM   18  C7  UNL     1      27.074   9.096  50.148  1.00  0.00     0.200 C 
HETATM   19  O1  UNL     1      28.164   9.054  49.286  1.00  0.00    -0.361 OA
HETATM   20  C8  UNL     1      28.197   7.801  48.696  1.00  0.00     0.441 C 
ENDBRANCH  15  16
ENDBRANCH  14  15
ENDBRANCH  11  13
ENDBRANCH   1  11
BRANCH  10  21
HETATM   21  O2  UNL     1      21.021   2.341  48.647  1.00  0.00    -0.360 OA
HETATM   22  H20 UNL     1      21.316   2.967  47.876  1.00  0.00     0.217 HD
ENDBRANCH  10  21
BRANCH   4  23
HETATM   23  N2  UNL     1      25.599   2.404  53.164  1.00  0.00    -0.340 N 
HETATM   24  H14 UNL     1      25.667   3.419  53.219  1.00  0.00     0.167 HD
BRANCH  23  25
HETATM   25  C13 UNL     1      26.724   1.504  53.313  1.00  0.00     0.035 A 
HETATM   26  C14 UNL     1      27.925   2.023  53.798  1.00  0.00     0.032 A 
HETATM   27  C15 UNL     1      29.077   1.241  53.944  1.00  0.00     0.046 A 
HETATM   28  C16 UNL     1      29.022  -0.108  53.592  1.00  0.00     0.138 A 
HETATM   29  F1  UNL     1      30.143  -0.849  53.735  1.00  0.00    -0.204 F 
HETATM   30  C17 UNL     1      27.807  -0.606  53.108  1.00  0.00     0.074 A 
HETATM   31 CL1  UNL     1      27.786  -2.294  52.672  1.00  0.00    -0.081 Cl
HETATM   32  C18 UNL     1      26.672   0.154  52.962  1.00  0.00     0.056 A 
ENDBRANCH  23  25
ENDBRANCH   4  23
TORSDOF 7
ENDMDL
MODEL 9
REMARK VINA RESULT:      -8.1      3.715      5.707
REMARK  7 active torsions:
REMARK  status: ('A' for Active; 'I' for Inactive)
REMARK    1  A    between atoms: C2_2  and  C3_3 
REMARK    2  A    between atoms: C2_2  and  C9_11 
REMARK    3  A    between atoms: C4_4  and  C5_5 
REMARK    4  A    between atoms: C5_5  and  N1_6 
REMARK    5  A    between atoms: C12_14  and  N2_15 
REMARK    6  A    between atoms: N2_15  and  C13_16 
REMARK    7  A    between atoms: C22_29  and  O2_30 
ROOT
HETATM    1  C9  UNL     1      23.471   4.425  49.554  1.00  0.00    -0.009 A 
HETATM    2  C10 UNL     1      23.487   3.697  50.746  1.00  0.00     0.029 A 
HETATM    3  C11 UNL     1      22.822   2.472  50.866  1.00  0.00     0.039 A 
HETATM    4  C12 UNL     1      22.809   1.738  52.033  1.00  0.00     0.142 A 
HETATM    5  N3  UNL     1      22.117   0.592  51.973  1.00  0.00    -0.224 NA
HETATM    6  C19 UNL     1      21.469   0.151  50.883  1.00  0.00     0.236 A 
HETATM    7  N4  UNL     1      21.491   0.889  49.751  1.00  0.00    -0.241 NA
HETATM    8  C20 UNL     1      22.170   2.069  49.721  1.00  0.00     0.074 A 
HETATM    9  C21 UNL     1      22.122   2.746  48.522  1.00  0.00     0.069 A 
HETATM   10  C22 UNL     1      22.791   3.946  48.459  1.00  0.00     0.075 A 
ENDROOT
BRANCH   1  11
HETATM   11  C2  UNL     1      24.168   5.716  49.346  1.00  0.00     0.097 C 
HETATM   12  C1  UNL     1      24.018   6.574  50.617  1.00  0.00     0.029 C 
BRANCH  11  13
HETATM   13  C3  UNL     1      25.571   5.516  49.030  1.00  0.00    -0.096 C 
HETATM   14  C4  UNL     1      26.767   5.352  48.775  1.00  0.00    -0.075 C 
BRANCH  14  15
HETATM   15  C5  UNL     1      28.196   5.168  48.478  1.00  0.00     0.368 C 
BRANCH  15  16
HETATM   16  N1  UNL     1      28.784   6.341  47.866  1.00  0.00     0.124 N 
HETATM   17  C6  UNL     1      28.425   7.560  48.552  1.00  0.00     0.302 C 
HETATM   18  C7  UNL     1      29.670   8.370  48.458  1.00  0.00     0.200 C 
HETATM   19  O1  UNL     1      30.691   7.582  47.938  1.00  0.00    -0.361 OA
HETATM   20  C8  UNL     1      30.219   6.284  47.831  1.00  0.00     0.441 C 
ENDBRANCH  15  16
ENDBRANCH  14  15
ENDBRANCH  11  13
ENDBRANCH   1  11
BRANCH  10  21
HETATM   21  O2  UNL     1      22.738   4.631  47.247  1.00  0.00    -0.360 OA
HETATM   22  H20 UNL     1      22.540   4.068  46.401  1.00  0.00     0.217 HD
ENDBRANCH  10  21
BRANCH   4  23
HETATM   23  N2  UNL     1      23.492   2.256  53.176  1.00  0.00    -0.340 N 
HETATM   24  H14 UNL     1      23.216   2.901  53.916  1.00  0.00     0.167 HD
BRANCH  23  25
HETATM   25  C13 UNL     1      24.795   1.631  53.086  1.00  0.00     0.035 A 
HETATM   26  C14 UNL     1      24.855   0.264  52.814  1.00  0.00     0.032 A 
HETATM   27  C15 UNL     1      26.065  -0.436  52.741  1.00  0.00     0.046 A 
HETATM   28  C16 UNL     1      27.257   0.260  52.949  1.00  0.00     0.138 A 
HETATM   29  F1  UNL     1      28.416  -0.430  52.881  1.00  0.00    -0.204 F 
HETATM   30  C17 UNL     1      27.172   1.629  53.222  1.00  0.00     0.074 A 
HETATM   31 CL1  UNL     1      28.684   2.456  53.485  1.00  0.00    -0.081 Cl
HETATM   32  C18 UNL     1      25.989   2.323  53.294  1.00  0.00     0.056 A 
ENDBRANCH  23  25
ENDBRANCH   4  23
TORSDOF 7
ENDMDL
