MODEL 1
REMARK VINA RESULT:      -7.6      0.000      0.000
REMARK  1 active torsions:
REMARK  status: ('A' for Active; 'I' for Inactive)
REMARK    1  A    between atoms: C5_8  and  C6_9 
ROOT
HETATM    1  C1  UNL     1      18.986  -1.093  53.479  1.00  0.00     0.066 C 
HETATM    2  C2  UNL     1      20.365  -0.577  53.535  1.00  0.00     0.021 C 
HETATM    3  N1  UNL     1      21.105  -1.265  54.375  1.00  0.00    -0.251 NA
HETATM    4  C3  UNL     1      22.479  -0.899  54.555  1.00  0.00     0.228 C 
HETATM    5  N2  UNL     1      23.368  -0.895  53.632  1.00  0.00    -0.253 NA
HETATM    6  C4  UNL     1      24.738  -0.526  53.824  1.00  0.00     0.420 C 
HETATM    7  N3  UNL     1      25.208   0.477  52.871  1.00  0.00     0.114 N 
HETATM    8  C5  UNL     1      26.603   0.705  53.210  1.00  0.00     0.271 C 
HETATM    9  C8  UNL     1      27.169   1.748  52.337  1.00  0.00     0.036 C 
HETATM   10  C9  UNL     1      26.509   2.495  51.480  1.00  0.00     0.133 C 
HETATM   11  O1  UNL     1      25.150   2.343  51.331  1.00  0.00    -0.360 OA
HETATM   12  C10 UNL     1      24.222   3.333  51.708  1.00  0.00     0.202 C 
HETATM   13  C11 UNL     1      22.855   2.799  51.647  1.00  0.00     0.002 C 
HETATM   14  C12 UNL     1      21.612   2.497  51.438  1.00  0.00     0.036 C 
HETATM   15  C13 UNL     1      20.575   1.568  51.827  1.00  0.00     0.104 C 
HETATM   16  F1  UNL     1      19.382   1.742  51.244  1.00  0.00    -0.210 F 
HETATM   17  C14 UNL     1      20.210   0.533  52.554  1.00  0.00     0.111 C 
HETATM   18  H7  UNL     1      25.115   0.076  51.913  1.00  0.00     0.319 HD
ENDROOT
BRANCH   8  19
HETATM   19  C6  UNL     1      27.332  -0.611  53.068  1.00  0.00     0.024 C 
HETATM   20  C7  UNL     1      28.566  -0.475  53.500  1.00  0.00     0.216 C 
HETATM   21 CL1  UNL     1      30.167  -1.098  53.832  1.00  0.00    -0.230 Cl
ENDBRANCH   8  19
TORSDOF 1
ENDMDL
MODEL 2
REMARK VINA RESULT:      -7.5      2.987      4.232
REMARK  1 active torsions:
REMARK  status: ('A' for Active; 'I' for Inactive)
REMARK    1  A    between atoms: C5_8  and  C6_9 
ROOT
HETATM    1  C1  UNL     1      18.564  -0.233  52.332  1.00  0.00     0.066 C 
HETATM    2  C2  UNL     1      19.961   0.086  51.986  1.00  0.00     0.021 C 
HETATM    3  N1  UNL     1      20.045   0.698  50.826  1.00  0.00    -0.251 NA
HETATM    4  C3  UNL     1      21.334   1.084  50.333  1.00  0.00     0.228 C 
HETATM    5  N2  UNL     1      22.137   1.890  50.920  1.00  0.00    -0.253 NA
HETATM    6  C4  UNL     1      23.424   2.267  50.417  1.00  0.00     0.420 C 
HETATM    7  N3  UNL     1      24.500   2.099  51.392  1.00  0.00     0.114 N 
HETATM    8  C5  UNL     1      25.706   2.543  50.713  1.00  0.00     0.271 C 
HETATM    9  C8  UNL     1      26.874   2.366  51.593  1.00  0.00     0.036 C 
HETATM   10  C9  UNL     1      26.891   1.758  52.758  1.00  0.00     0.133 C 
HETATM   11  O1  UNL     1      25.739   1.206  53.268  1.00  0.00    -0.360 OA
HETATM   12  C10 UNL     1      25.561  -0.182  53.429  1.00  0.00     0.202 C 
HETATM   13  C11 UNL     1      24.163  -0.479  53.771  1.00  0.00     0.002 C 
HETATM   14  C12 UNL     1      23.019  -0.833  54.268  1.00  0.00     0.036 C 
HETATM   15  C13 UNL     1      21.598  -0.818  54.002  1.00  0.00     0.104 C 
HETATM   16  F1  UNL     1      20.820  -1.372  54.941  1.00  0.00    -0.210 F 
HETATM   17  C14 UNL     1      20.610  -0.487  53.198  1.00  0.00     0.111 C 
HETATM   18  H7  UNL     1      24.286   2.706  52.211  1.00  0.00     0.319 HD
ENDROOT
BRANCH   8  19
HETATM   19  C6  UNL     1      25.506   3.988  50.318  1.00  0.00     0.024 C 
HETATM   20  C7  UNL     1      26.472   4.357  49.506  1.00  0.00     0.216 C 
HETATM   21 CL1  UNL     1      27.285   5.538  48.503  1.00  0.00    -0.230 Cl
ENDBRANCH   8  19
TORSDOF 1
ENDMDL
MODEL 3
REMARK VINA RESULT:      -7.3      4.122      7.195
REMARK  1 active torsions:
REMARK  status: ('A' for Active; 'I' for Inactive)
REMARK    1  A    between atoms: C5_8  and  C6_9 
ROOT
HETATM    1  C1  UNL     1      26.592   3.363  49.974  1.00  0.00     0.066 C 
HETATM    2  C2  UNL     1      25.430   2.866  50.732  1.00  0.00     0.021 C 
HETATM    3  N1  UNL     1      24.345   3.556  50.461  1.00  0.00    -0.251 NA
HETATM    4  C3  UNL     1      23.117   3.206  51.112  1.00  0.00     0.228 C 
HETATM    5  N2  UNL     1      22.529   2.072  51.018  1.00  0.00    -0.253 NA
HETATM    6  C4  UNL     1      21.302   1.735  51.674  1.00  0.00     0.420 C 
HETATM    7  N3  UNL     1      21.373   0.488  52.433  1.00  0.00     0.114 N 
HETATM    8  C5  UNL     1      20.048   0.309  53.003  1.00  0.00     0.271 C 
HETATM    9  C8  UNL     1      20.020  -0.903  53.840  1.00  0.00     0.036 C 
HETATM   10  C9  UNL     1      21.050  -1.647  54.176  1.00  0.00     0.133 C 
HETATM   11  O1  UNL     1      22.312  -1.321  53.738  1.00  0.00    -0.360 OA
HETATM   12  C10 UNL     1      23.337  -0.893  54.605  1.00  0.00     0.202 C 
HETATM   13  C11 UNL     1      24.485  -0.399  53.831  1.00  0.00     0.002 C 
HETATM   14  C12 UNL     1      25.615  -0.133  53.257  1.00  0.00     0.036 C 
HETATM   15  C13 UNL     1      26.237   0.757  52.302  1.00  0.00     0.104 C 
HETATM   16  F1  UNL     1      27.542   0.559  52.078  1.00  0.00    -0.210 F 
HETATM   17  C14 UNL     1      26.117   1.769  51.468  1.00  0.00     0.111 C 
HETATM   18  H7  UNL     1      21.601  -0.279  51.765  1.00  0.00     0.319 HD
ENDROOT
BRANCH   8  19
HETATM   19  C6  UNL     1      19.063   0.232  51.860  1.00  0.00     0.024 C 
HETATM   20  C7  UNL     1      18.038  -0.510  52.216  1.00  0.00     0.216 C 
HETATM   21 CL1  UNL     1      16.491  -1.267  51.904  1.00  0.00    -0.230 Cl
ENDBRANCH   8  19
TORSDOF 1
ENDMDL
MODEL 4
REMARK VINA RESULT:      -7.2      2.829      4.080
REMARK  1 active torsions:
REMARK  status: ('A' for Active; 'I' for Inactive)
REMARK    1  A    between atoms: C5_8  and  C6_9 
ROOT
HETATM    1  C1  UNL     1      22.208  -1.707  54.496  1.00  0.00     0.066 C 
HETATM    2  C2  UNL     1      22.716  -0.460  53.895  1.00  0.00     0.021 C 
HETATM    3  N1  UNL     1      24.030  -0.427  53.886  1.00  0.00    -0.251 NA
HETATM    4  C3  UNL     1      24.694   0.717  53.335  1.00  0.00     0.228 C 
HETATM    5  N2  UNL     1      24.584   1.121  52.125  1.00  0.00    -0.253 NA
HETATM    6  C4  UNL     1      25.253   2.267  51.586  1.00  0.00     0.420 C 
HETATM    7  N3  UNL     1      24.355   3.195  50.902  1.00  0.00     0.114 N 
HETATM    8  C5  UNL     1      25.208   4.267  50.417  1.00  0.00     0.271 C 
HETATM    9  C8  UNL     1      24.392   5.297  49.751  1.00  0.00     0.036 C 
HETATM   10  C9  UNL     1      23.079   5.357  49.718  1.00  0.00     0.133 C 
HETATM   11  O1  UNL     1      22.327   4.393  50.349  1.00  0.00    -0.360 OA
HETATM   12  C10 UNL     1      21.527   4.663  51.477  1.00  0.00     0.202 C 
HETATM   13  C11 UNL     1      21.034   3.408  52.062  1.00  0.00     0.002 C 
HETATM   14  C12 UNL     1      20.386   2.390  52.534  1.00  0.00     0.036 C 
HETATM   15  C13 UNL     1      20.574   1.093  53.145  1.00  0.00     0.104 C 
HETATM   16  F1  UNL     1      19.457   0.421  53.453  1.00  0.00    -0.210 F 
HETATM   17  C14 UNL     1      21.402   0.170  53.587  1.00  0.00     0.111 C 
HETATM   18  H7  UNL     1      23.909   2.684  50.112  1.00  0.00     0.319 HD
ENDROOT
BRANCH   8  19
HETATM   19  C6  UNL     1      26.226   3.657  49.482  1.00  0.00     0.024 C 
HETATM   20  C7  UNL     1      27.095   4.576  49.123  1.00  0.00     0.216 C 
HETATM   21 CL1  UNL     1      28.511   5.109  48.243  1.00  0.00    -0.230 Cl
ENDBRANCH   8  19
TORSDOF 1
ENDMDL
MODEL 5
REMARK VINA RESULT:      -7.0      2.597      5.074
REMARK  1 active torsions:
REMARK  status: ('A' for Active; 'I' for Inactive)
REMARK    1  A    between atoms: C5_8  and  C6_9 
ROOT
HETATM    1  C1  UNL     1      24.738   6.863  49.259  1.00  0.00     0.066 C 
HETATM    2  C2  UNL     1      24.851   5.472  49.735  1.00  0.00     0.021 C 
HETATM    3  N1  UNL     1      25.963   4.908  49.320  1.00  0.00    -0.251 NA
HETATM    4  C3  UNL     1      26.236   3.551  49.692  1.00  0.00     0.228 C 
HETATM    5  N2  UNL     1      26.360   3.126  50.894  1.00  0.00    -0.253 NA
HETATM    6  C4  UNL     1      26.633   1.767  51.253  1.00  0.00     0.420 C 
HETATM    7  N3  UNL     1      25.700   1.230  52.242  1.00  0.00     0.114 N 
HETATM    8  C5  UNL     1      26.143  -0.132  52.487  1.00  0.00     0.271 C 
HETATM    9  C8  UNL     1      25.234  -0.794  53.439  1.00  0.00     0.036 C 
HETATM   10  C9  UNL     1      24.098  -0.318  53.897  1.00  0.00     0.133 C 
HETATM   11  O1  UNL     1      23.650   0.917  53.489  1.00  0.00    -0.360 OA
HETATM   12  C10 UNL     1      22.498   1.091  52.697  1.00  0.00     0.202 C 
HETATM   13  C11 UNL     1      22.406   2.481  52.231  1.00  0.00     0.002 C 
HETATM   14  C12 UNL     1      22.120   3.710  51.936  1.00  0.00     0.036 C 
HETATM   15  C13 UNL     1      22.620   4.865  51.223  1.00  0.00     0.104 C 
HETATM   16  F1  UNL     1      21.843   5.956  51.255  1.00  0.00    -0.210 F 
HETATM   17  C14 UNL     1      23.566   5.406  50.486  1.00  0.00     0.111 C 
HETATM   18  H7  UNL     1      25.779   1.811  53.104  1.00  0.00     0.319 HD
ENDROOT
BRANCH   8  19
HETATM   19  C6  UNL     1      27.561  -0.069  53.007  1.00  0.00     0.024 C 
HETATM   20  C7  UNL     1      28.078  -1.278  53.014  1.00  0.00     0.216 C 
HETATM   21 CL1  UNL     1      29.385  -2.401  53.320  1.00  0.00    -0.230 Cl
ENDBRANCH   8  19
TORSDOF 1
ENDMDL
MODEL 6
REMARK VINA RESULT:      -6.9      4.099      6.752
REMARK  1 active torsions:
REMARK  status: ('A' for Active; 'I' for Inactive)
REMARK    1  A    between atoms: C5_8  and  C6_9 
ROOT
HETATM    1  C1  UNL     1      24.525   6.033  48.596  1.00  0.00     0.066 C 
HETATM    2  C2  UNL     1      24.028   5.123  49.645  1.00  0.00     0.021 C 
HETATM    3  N1  UNL     1      22.789   5.403  49.981  1.00  0.00    -0.251 NA
HETATM    4  C3  UNL     1      22.146   4.614  50.990  1.00  0.00     0.228 C 
HETATM    5  N2  UNL     1      21.939   3.352  50.919  1.00  0.00    -0.253 NA
HETATM    6  C4  UNL     1      21.296   2.574  51.934  1.00  0.00     0.420 C 
HETATM    7  N3  UNL     1      22.061   1.395  52.333  1.00  0.00     0.114 N 
HETATM    8  C5  UNL     1      21.250   0.735  53.344  1.00  0.00     0.271 C 
HETATM    9  C8  UNL     1      21.956  -0.450  53.861  1.00  0.00     0.036 C 
HETATM   10  C9  UNL     1      23.194  -0.802  53.595  1.00  0.00     0.133 C 
HETATM   11  O1  UNL     1      23.968  -0.033  52.757  1.00  0.00    -0.360 OA
HETATM   12  C10 UNL     1      25.097   0.683  53.200  1.00  0.00     0.202 C 
HETATM   13  C11 UNL     1      25.575   1.584  52.143  1.00  0.00     0.002 C 
HETATM   14  C12 UNL     1      26.195   2.258  51.225  1.00  0.00     0.036 C 
HETATM   15  C13 UNL     1      26.030   3.355  50.298  1.00  0.00     0.104 C 
HETATM   16  F1  UNL     1      27.090   3.638  49.530  1.00  0.00    -0.210 F 
HETATM   17  C14 UNL     1      25.260   4.301  49.804  1.00  0.00     0.111 C 
HETATM   18  H7  UNL     1      22.178   0.790  51.493  1.00  0.00     0.319 HD
ENDROOT
BRANCH   8  19
HETATM   19  C6  UNL     1      19.927   0.376  52.709  1.00  0.00     0.024 C 
HETATM   20  C7  UNL     1      19.406  -0.654  53.339  1.00  0.00     0.216 C 
HETATM   21 CL1  UNL     1      18.149  -1.848  53.579  1.00  0.00    -0.230 Cl
ENDBRANCH   8  19
TORSDOF 1
ENDMDL
MODEL 7
REMARK VINA RESULT:      -6.8      4.660      7.412
REMARK  1 active torsions:
REMARK  status: ('A' for Active; 'I' for Inactive)
REMARK    1  A    between atoms: C5_8  and  C6_9 
ROOT
HETATM    1  C1  UNL     1      28.694   8.111  48.154  1.00  0.00     0.066 C 
HETATM    2  C2  UNL     1      27.811   7.029  48.625  1.00  0.00     0.021 C 
HETATM    3  N1  UNL     1      28.249   5.848  48.249  1.00  0.00    -0.251 NA
HETATM    4  C3  UNL     1      27.509   4.679  48.623  1.00  0.00     0.228 C 
HETATM    5  N2  UNL     1      27.271   4.310  49.826  1.00  0.00    -0.253 NA
HETATM    6  C4  UNL     1      26.530   3.140  50.186  1.00  0.00     0.420 C 
HETATM    7  N3  UNL     1      25.451   3.406  51.136  1.00  0.00     0.114 N 
HETATM    8  C5  UNL     1      24.835   2.114  51.389  1.00  0.00     0.271 C 
HETATM    9  C8  UNL     1      23.690   2.272  52.302  1.00  0.00     0.036 C 
HETATM   10  C9  UNL     1      23.172   3.406  52.720  1.00  0.00     0.133 C 
HETATM   11  O1  UNL     1      23.703   4.604  52.303  1.00  0.00    -0.360 OA
HETATM   12  C10 UNL     1      23.006   5.501  51.468  1.00  0.00     0.202 C 
HETATM   13  C11 UNL     1      23.904   6.570  51.008  1.00  0.00     0.002 C 
HETATM   14  C12 UNL     1      24.545   7.655  50.710  1.00  0.00     0.036 C 
HETATM   15  C13 UNL     1      25.722   8.142  50.024  1.00  0.00     0.104 C 
HETATM   16  F1  UNL     1      25.899   9.470  50.033  1.00  0.00    -0.210 F 
HETATM   17  C14 UNL     1      26.805   7.874  49.326  1.00  0.00     0.111 C 
HETATM   18  H7  UNL     1      25.878   3.794  52.004  1.00  0.00     0.319 HD
ENDROOT
BRANCH   8  19
HETATM   19  C6  UNL     1      25.896   1.203  51.963  1.00  0.00     0.024 C 
HETATM   20  C7  UNL     1      25.364   0.448  52.898  1.00  0.00     0.216 C 
HETATM   21 CL1  UNL     1      25.461  -0.797  54.124  1.00  0.00    -0.230 Cl
ENDBRANCH   8  19
TORSDOF 1
ENDMDL
MODEL 8
REMARK VINA RESULT:      -6.7      9.227     11.907
REMARK  1 active torsions:
REMARK  status: ('A' for Active; 'I' for Inactive)
REMARK    1  A    between atoms: C5_8  and  C6_9 
ROOT
HETATM    1  C1  UNL     1      34.726   3.520  47.750  1.00  0.00     0.066 C 
HETATM    2  C2  UNL     1      33.505   4.344  47.694  1.00  0.00     0.021 C 
HETATM    3  N1  UNL     1      32.476   3.655  47.252  1.00  0.00    -0.251 NA
HETATM    4  C3  UNL     1      31.204   4.304  47.133  1.00  0.00     0.228 C 
HETATM    5  N2  UNL     1      30.551   4.831  48.100  1.00  0.00    -0.253 NA
HETATM    6  C4  UNL     1      29.280   5.477  47.968  1.00  0.00     0.420 C 
HETATM    7  N3  UNL     1      29.244   6.812  48.560  1.00  0.00     0.114 N 
HETATM    8  C5  UNL     1      27.888   7.291  48.344  1.00  0.00     0.271 C 
HETATM    9  C8  UNL     1      27.751   8.665  48.859  1.00  0.00     0.036 C 
HETATM   10  C9  UNL     1      28.718   9.434  49.306  1.00  0.00     0.133 C 
HETATM   11  O1  UNL     1      30.015   8.975  49.323  1.00  0.00    -0.360 OA
HETATM   12  C10 UNL     1      31.029   9.513  48.505  1.00  0.00     0.202 C 
HETATM   13  C11 UNL     1      32.235   8.676  48.574  1.00  0.00     0.002 C 
HETATM   14  C12 UNL     1      33.403   8.132  48.715  1.00  0.00     0.036 C 
HETATM   15  C13 UNL     1      34.116   6.885  48.548  1.00  0.00     0.104 C 
HETATM   16  F1  UNL     1      35.415   6.904  48.875  1.00  0.00    -0.210 F 
HETATM   17  C14 UNL     1      34.093   5.618  48.192  1.00  0.00     0.111 C 
HETATM   18  H7  UNL     1      29.451   6.718  49.577  1.00  0.00     0.319 HD
ENDROOT
BRANCH   8  19
HETATM   19  C6  UNL     1      26.947   6.330  49.033  1.00  0.00     0.024 C 
HETATM   20  C7  UNL     1      26.084   7.008  49.758  1.00  0.00     0.216 C 
HETATM   21 CL1  UNL     1      24.719   7.108  50.848  1.00  0.00    -0.230 Cl
ENDBRANCH   8  19
TORSDOF 1
ENDMDL
MODEL 9
REMARK VINA RESULT:      -6.6     24.676     25.188
REMARK  1 active torsions:
REMARK  status: ('A' for Active; 'I' for Inactive)
REMARK    1  A    between atoms: C5_8  and  C6_9 
ROOT
HETATM    1  C1  UNL     1      42.085   1.810  70.362  1.00  0.00     0.066 C 
HETATM    2  C2  UNL     1      42.881   2.623  69.425  1.00  0.00     0.021 C 
HETATM    3  N1  UNL     1      43.747   1.889  68.762  1.00  0.00    -0.251 NA
HETATM    4  C3  UNL     1      44.606   2.520  67.804  1.00  0.00     0.228 C 
HETATM    5  N2  UNL     1      44.211   3.155  66.765  1.00  0.00    -0.253 NA
HETATM    6  C4  UNL     1      45.080   3.782  65.815  1.00  0.00     0.420 C 
HETATM    7  N3  UNL     1      44.737   5.177  65.547  1.00  0.00     0.114 N 
HETATM    8  C5  UNL     1      45.706   5.628  64.562  1.00  0.00     0.271 C 
HETATM    9  C8  UNL     1      45.486   7.052  64.254  1.00  0.00     0.036 C 
HETATM   10  C9  UNL     1      44.657   7.867  64.868  1.00  0.00     0.133 C 
HETATM   11  O1  UNL     1      43.887   7.413  65.913  1.00  0.00    -0.360 OA
HETATM   12  C10 UNL     1      44.062   7.852  67.241  1.00  0.00     0.202 C 
HETATM   13  C11 UNL     1      43.262   7.029  68.158  1.00  0.00     0.002 C 
HETATM   14  C12 UNL     1      42.453   6.504  69.023  1.00  0.00     0.036 C 
HETATM   15  C13 UNL     1      42.080   5.246  69.631  1.00  0.00     0.104 C 
HETATM   16  F1  UNL     1      41.098   5.301  70.540  1.00  0.00    -0.210 F 
HETATM   17  C14 UNL     1      42.267   3.946  69.726  1.00  0.00     0.111 C 
HETATM   18  H7  UNL     1      43.770   5.199  65.160  1.00  0.00     0.319 HD
ENDROOT
BRANCH   8  19
HETATM   19  C6  UNL     1      45.558   4.753  63.338  1.00  0.00     0.024 C 
HETATM   20  C7  UNL     1      45.712   5.485  62.257  1.00  0.00     0.216 C 
HETATM   21 CL1  UNL     1      45.773   5.687  60.520  1.00  0.00    -0.230 Cl
ENDBRANCH   8  19
TORSDOF 1
ENDMDL
