MODEL 1
REMARK VINA RESULT:      -8.3      0.000      0.000
REMARK  5 active torsions:
REMARK  status: ('A' for Active; 'I' for Inactive)
REMARK    1  A    between atoms: C5_6  and  C6_7 
REMARK    2  A    between atoms: C6_7  and  O1_8 
REMARK    3  A    between atoms: O1_8  and  C7_9 
REMARK    4  A    between atoms: C10_12  and  N1_13 
REMARK    5  A    between atoms: N1_13  and  C11_14 
ROOT
HETATM    1  C7  UNL     1      20.377   0.100  52.545  1.00  0.00     0.069 A 
HETATM    2  C8  UNL     1      20.677   0.350  51.237  1.00  0.00     0.039 A 
HETATM    3  C9  UNL     1      21.952   0.790  50.901  1.00  0.00     0.032 A 
HETATM    4  C10 UNL     1      22.955   0.994  51.812  1.00  0.00     0.028 A 
HETATM    5  C17 UNL     1      22.589   0.724  53.114  1.00  0.00     0.032 A 
HETATM    6  C18 UNL     1      21.346   0.290  53.495  1.00  0.00     0.039 A 
ENDROOT
BRANCH   4   7
HETATM    7  N1  UNL     1      24.256   1.440  51.475  1.00  0.00    -0.379 N 
HETATM    8  H8  UNL     1      24.390   1.815  50.491  1.00  0.00     0.160 HD
BRANCH   7   9
HETATM    9  C11 UNL     1      25.384   1.424  52.347  1.00  0.00     0.146 C 
HETATM   10  C12 UNL     1      25.920   0.023  52.599  1.00  0.00     0.034 C 
HETATM   11  C13 UNL     1      25.906  -0.307  54.075  1.00  0.00     0.024 C 
HETATM   12  C14 UNL     1      26.706   0.652  54.892  1.00  0.00     0.150 C 
HETATM   13  N2  UNL     1      28.021   0.942  54.362  1.00  0.00    -0.283 NA
HETATM   14  C15 UNL     1      28.453   1.594  53.335  1.00  0.00     0.228 C 
HETATM   15  N3  UNL     1      27.747   2.303  52.295  1.00  0.00    -0.233 NA
HETATM   16  C16 UNL     1      26.523   2.281  51.851  1.00  0.00     0.127 C 
HETATM   17 CL1  UNL     1      26.439   3.463  50.536  1.00  0.00    -0.065 Cl
ENDBRANCH   7   9
ENDBRANCH   4   7
BRANCH   1  18
HETATM   18  O1  UNL     1      19.094  -0.339  52.855  1.00  0.00    -0.347 OA
BRANCH  18  19
HETATM   19  C6  UNL     1      18.915  -1.398  53.762  1.00  0.00     0.214 C 
BRANCH  19  20
HETATM   20  C5  UNL     1      17.714  -2.184  53.359  1.00  0.00    -0.031 A 
HETATM   21  C4  UNL     1      16.735  -1.515  52.618  1.00  0.00     0.009 A 
HETATM   22  C3  UNL     1      15.579  -2.130  52.186  1.00  0.00     0.004 A 
HETATM   23  C2  UNL     1      15.359  -3.462  52.488  1.00  0.00     0.042 A 
HETATM   24  C1  UNL     1      16.330  -4.135  53.226  1.00  0.00     0.117 A 
HETATM   25  F1  UNL     1      16.102  -5.438  53.515  1.00  0.00    -0.206 F 
HETATM   26  C19 UNL     1      17.477  -3.515  53.652  1.00  0.00     0.051 A 
ENDBRANCH  19  20
ENDBRANCH  18  19
ENDBRANCH   1  18
TORSDOF 5
ENDMDL
MODEL 2
REMARK VINA RESULT:      -8.3      6.646      8.804
REMARK  5 active torsions:
REMARK  status: ('A' for Active; 'I' for Inactive)
REMARK    1  A    between atoms: C5_6  and  C6_7 
REMARK    2  A    between atoms: C6_7  and  O1_8 
REMARK    3  A    between atoms: O1_8  and  C7_9 
REMARK    4  A    between atoms: C10_12  and  N1_13 
REMARK    5  A    between atoms: N1_13  and  C11_14 
ROOT
HETATM    1  C7  UNL     1      25.306   2.921  50.805  1.00  0.00     0.069 A 
HETATM    2  C8  UNL     1      26.450   2.875  50.062  1.00  0.00     0.039 A 
HETATM    3  C9  UNL     1      26.817   3.982  49.305  1.00  0.00     0.032 A 
HETATM    4  C10 UNL     1      26.094   5.145  49.251  1.00  0.00     0.028 A 
HETATM    5  C17 UNL     1      24.951   5.128  50.023  1.00  0.00     0.032 A 
HETATM    6  C18 UNL     1      24.548   4.062  50.784  1.00  0.00     0.039 A 
ENDROOT
BRANCH   4   7
HETATM    7  N1  UNL     1      26.463   6.276  48.484  1.00  0.00    -0.379 N 
HETATM    8  H8  UNL     1      25.818   6.538  47.681  1.00  0.00     0.160 HD
BRANCH   7   9
HETATM    9  C11 UNL     1      27.620   7.081  48.704  1.00  0.00     0.146 C 
HETATM   10  C12 UNL     1      28.414   7.339  47.433  1.00  0.00     0.034 C 
HETATM   11  C13 UNL     1      29.837   6.844  47.569  1.00  0.00     0.024 C 
HETATM   12  C14 UNL     1      30.564   7.473  48.710  1.00  0.00     0.150 C 
HETATM   13  N2  UNL     1      30.428   8.912  48.788  1.00  0.00    -0.283 NA
HETATM   14  C15 UNL     1      29.457   9.709  49.084  1.00  0.00     0.228 C 
HETATM   15  N3  UNL     1      28.089   9.440  49.460  1.00  0.00    -0.233 NA
HETATM   16  C16 UNL     1      27.299   8.412  49.337  1.00  0.00     0.127 C 
HETATM   17 CL1  UNL     1      25.752   8.873  50.063  1.00  0.00    -0.065 Cl
ENDBRANCH   7   9
ENDBRANCH   4   7
BRANCH   1  18
HETATM   18  O1  UNL     1      24.961   1.800  51.553  1.00  0.00    -0.347 OA
BRANCH  18  19
HETATM   19  C6  UNL     1      25.371   1.698  52.894  1.00  0.00     0.214 C 
BRANCH  19  20
HETATM   20  C5  UNL     1      26.460   0.686  52.992  1.00  0.00    -0.031 A 
HETATM   21  C4  UNL     1      27.700   1.128  53.460  1.00  0.00     0.009 A 
HETATM   22  C3  UNL     1      28.787   0.290  53.597  1.00  0.00     0.004 A 
HETATM   23  C2  UNL     1      28.665  -1.047  53.262  1.00  0.00     0.042 A 
HETATM   24  C1  UNL     1      27.432  -1.496  52.795  1.00  0.00     0.117 A 
HETATM   25  F1  UNL     1      27.326  -2.806  52.472  1.00  0.00    -0.206 F 
HETATM   26  C19 UNL     1      26.357  -0.654  52.663  1.00  0.00     0.051 A 
ENDBRANCH  19  20
ENDBRANCH  18  19
ENDBRANCH   1  18
TORSDOF 5
ENDMDL
MODEL 3
REMARK VINA RESULT:      -8.2      6.947      9.208
REMARK  5 active torsions:
REMARK  status: ('A' for Active; 'I' for Inactive)
REMARK    1  A    between atoms: C5_6  and  C6_7 
REMARK    2  A    between atoms: C6_7  and  O1_8 
REMARK    3  A    between atoms: O1_8  and  C7_9 
REMARK    4  A    between atoms: C10_12  and  N1_13 
REMARK    5  A    between atoms: N1_13  and  C11_14 
ROOT
HETATM    1  C7  UNL     1      25.340   3.441  50.426  1.00  0.00     0.069 A 
HETATM    2  C8  UNL     1      24.735   4.664  50.458  1.00  0.00     0.039 A 
HETATM    3  C9  UNL     1      25.290   5.719  49.742  1.00  0.00     0.032 A 
HETATM    4  C10 UNL     1      26.429   5.615  48.987  1.00  0.00     0.028 A 
HETATM    5  C17 UNL     1      26.991   4.356  48.996  1.00  0.00     0.032 A 
HETATM    6  C18 UNL     1      26.482   3.286  49.686  1.00  0.00     0.039 A 
ENDROOT
BRANCH   4   7
HETATM    7  N1  UNL     1      26.998   6.684  48.254  1.00  0.00    -0.379 N 
HETATM    8  H8  UNL     1      26.466   7.005  47.391  1.00  0.00     0.160 HD
BRANCH   7   9
HETATM    9  C11 UNL     1      28.213   7.355  48.581  1.00  0.00     0.146 C 
HETATM   10  C12 UNL     1      29.071   7.658  47.362  1.00  0.00     0.034 C 
HETATM   11  C13 UNL     1      30.437   7.023  47.486  1.00  0.00     0.024 C 
HETATM   12  C14 UNL     1      31.178   7.473  48.701  1.00  0.00     0.150 C 
HETATM   13  N2  UNL     1      31.168   8.904  48.916  1.00  0.00    -0.283 NA
HETATM   14  C15 UNL     1      30.262   9.755  49.263  1.00  0.00     0.228 C 
HETATM   15  N3  UNL     1      28.863   9.579  49.575  1.00  0.00    -0.233 NA
HETATM   16  C16 UNL     1      27.990   8.644  49.332  1.00  0.00     0.127 C 
HETATM   17 CL1  UNL     1      26.466   9.174  50.059  1.00  0.00    -0.065 Cl
ENDBRANCH   7   9
ENDBRANCH   4   7
BRANCH   1  18
HETATM   18  O1  UNL     1      24.765   2.403  51.152  1.00  0.00    -0.347 OA
BRANCH  18  19
HETATM   19  C6  UNL     1      24.917   2.356  52.549  1.00  0.00     0.214 C 
BRANCH  19  20
HETATM   20  C5  UNL     1      26.126   1.549  52.878  1.00  0.00    -0.031 A 
HETATM   21  C4  UNL     1      26.118   0.205  52.495  1.00  0.00     0.009 A 
HETATM   22  C3  UNL     1      27.175  -0.645  52.742  1.00  0.00     0.004 A 
HETATM   23  C2  UNL     1      28.298  -0.169  53.395  1.00  0.00     0.042 A 
HETATM   24  C1  UNL     1      28.313   1.169  53.780  1.00  0.00     0.117 A 
HETATM   25  F1  UNL     1      29.418   1.623  54.418  1.00  0.00    -0.206 F 
HETATM   26  C19 UNL     1      27.257   2.008  53.530  1.00  0.00     0.051 A 
ENDBRANCH  19  20
ENDBRANCH  18  19
ENDBRANCH   1  18
TORSDOF 5
ENDMDL
MODEL 4
REMARK VINA RESULT:      -8.1      5.787      8.441
REMARK  5 active torsions:
REMARK  status: ('A' for Active; 'I' for Inactive)
REMARK    1  A    between atoms: C5_6  and  C6_7 
REMARK    2  A    between atoms: C6_7  and  O1_8 
REMARK    3  A    between atoms: O1_8  and  C7_9 
REMARK    4  A    between atoms: C10_12  and  N1_13 
REMARK    5  A    between atoms: N1_13  and  C11_14 
ROOT
HETATM    1  C7  UNL     1      25.434   4.001  49.659  1.00  0.00     0.069 A 
HETATM    2  C8  UNL     1      26.708   3.634  49.334  1.00  0.00     0.039 A 
HETATM    3  C9  UNL     1      27.577   4.580  48.804  1.00  0.00     0.032 A 
HETATM    4  C10 UNL     1      27.238   5.889  48.579  1.00  0.00     0.028 A 
HETATM    5  C17 UNL     1      25.939   6.196  48.928  1.00  0.00     0.032 A 
HETATM    6  C18 UNL     1      25.045   5.299  49.452  1.00  0.00     0.039 A 
ENDROOT
BRANCH   4   7
HETATM    7  N1  UNL     1      28.119   6.858  48.041  1.00  0.00    -0.379 N 
HETATM    8  H8  UNL     1      27.700   7.553  47.356  1.00  0.00     0.160 HD
BRANCH   7   9
HETATM    9  C11 UNL     1      29.507   6.970  48.346  1.00  0.00     0.146 C 
HETATM   10  C12 UNL     1      30.402   6.690  47.148  1.00  0.00     0.034 C 
HETATM   11  C13 UNL     1      31.351   5.548  47.432  1.00  0.00     0.024 C 
HETATM   12  C14 UNL     1      32.222   5.798  48.617  1.00  0.00     0.150 C 
HETATM   13  N2  UNL     1      32.845   7.104  48.640  1.00  0.00    -0.283 NA
HETATM   14  C15 UNL     1      32.408   8.306  48.820  1.00  0.00     0.228 C 
HETATM   15  N3  UNL     1      31.077   8.804  49.073  1.00  0.00    -0.233 NA
HETATM   16  C16 UNL     1      29.880   8.320  48.906  1.00  0.00     0.127 C 
HETATM   17 CL1  UNL     1      28.749   9.560  49.469  1.00  0.00    -0.065 Cl
ENDBRANCH   7   9
ENDBRANCH   4   7
BRANCH   1  18
HETATM   18  O1  UNL     1      24.584   3.035  50.187  1.00  0.00    -0.347 OA
BRANCH  18  19
HETATM   19  C6  UNL     1      24.286   3.039  51.561  1.00  0.00     0.214 C 
BRANCH  19  20
HETATM   20  C5  UNL     1      24.656   1.717  52.141  1.00  0.00    -0.031 A 
HETATM   21  C4  UNL     1      25.936   1.233  51.859  1.00  0.00     0.009 A 
HETATM   22  C3  UNL     1      26.398   0.024  52.336  1.00  0.00     0.004 A 
HETATM   23  C2  UNL     1      25.575  -0.758  53.127  1.00  0.00     0.042 A 
HETATM   24  C1  UNL     1      24.297  -0.282  53.413  1.00  0.00     0.117 A 
HETATM   25  F1  UNL     1      23.503  -1.057  54.188  1.00  0.00    -0.206 F 
HETATM   26  C19 UNL     1      23.847   0.922  52.934  1.00  0.00     0.051 A 
ENDBRANCH  19  20
ENDBRANCH  18  19
ENDBRANCH   1  18
TORSDOF 5
ENDMDL
MODEL 5
REMARK VINA RESULT:      -8.1      2.430      2.989
REMARK  5 active torsions:
REMARK  status: ('A' for Active; 'I' for Inactive)
REMARK    1  A    between atoms: C5_6  and  C6_7 
REMARK    2  A    between atoms: C6_7  and  O1_8 
REMARK    3  A    between atoms: O1_8  and  C7_9 
REMARK    4  A    between atoms: C10_12  and  N1_13 
REMARK    5  A    between atoms: N1_13  and  C11_14 
ROOT
HETATM    1  C7  UNL     1      21.594   0.470  53.216  1.00  0.00     0.069 A 
HETATM    2  C8  UNL     1      21.975   1.455  52.352  1.00  0.00     0.039 A 
HETATM    3  C9  UNL     1      23.283   1.484  51.882  1.00  0.00     0.032 A 
HETATM    4  C10 UNL     1      24.241   0.569  52.233  1.00  0.00     0.028 A 
HETATM    5  C17 UNL     1      23.794  -0.400  53.107  1.00  0.00     0.032 A 
HETATM    6  C18 UNL     1      22.516  -0.469  53.598  1.00  0.00     0.039 A 
ENDROOT
BRANCH   4   7
HETATM    7  N1  UNL     1      25.574   0.591  51.757  1.00  0.00    -0.379 N 
HETATM    8  H8  UNL     1      25.705   0.514  50.705  1.00  0.00     0.160 HD
BRANCH   7   9
HETATM    9  C11 UNL     1      26.740   0.709  52.571  1.00  0.00     0.146 C 
HETATM   10  C12 UNL     1      26.513   1.556  53.814  1.00  0.00     0.034 C 
HETATM   11  C13 UNL     1      27.463   2.732  53.852  1.00  0.00     0.024 C 
HETATM   12  C14 UNL     1      28.897   2.320  53.823  1.00  0.00     0.150 C 
HETATM   13  N2  UNL     1      29.235   1.255  54.743  1.00  0.00    -0.283 NA
HETATM   14  C15 UNL     1      28.967  -0.007  54.796  1.00  0.00     0.228 C 
HETATM   15  N3  UNL     1      28.194  -0.851  53.916  1.00  0.00    -0.233 NA
HETATM   16  C16 UNL     1      27.290  -0.627  53.006  1.00  0.00     0.127 C 
HETATM   17 CL1  UNL     1      26.819  -2.206  52.361  1.00  0.00    -0.065 Cl
ENDBRANCH   7   9
ENDBRANCH   4   7
BRANCH   1  18
HETATM   18  O1  UNL     1      20.280   0.464  53.671  1.00  0.00    -0.347 OA
BRANCH  18  19
HETATM   19  C6  UNL     1      19.567  -0.746  53.742  1.00  0.00     0.214 C 
BRANCH  19  20
HETATM   20  C5  UNL     1      18.457  -0.714  52.749  1.00  0.00    -0.031 A 
HETATM   21  C4  UNL     1      17.275  -1.374  53.094  1.00  0.00     0.009 A 
HETATM   22  C3  UNL     1      16.176  -1.418  52.262  1.00  0.00     0.004 A 
HETATM   23  C2  UNL     1      16.225  -0.789  51.030  1.00  0.00     0.042 A 
HETATM   24  C1  UNL     1      17.401  -0.129  50.679  1.00  0.00     0.117 A 
HETATM   25  F1  UNL     1      17.436   0.482  49.471  1.00  0.00    -0.206 F 
HETATM   26  C19 UNL     1      18.489  -0.091  51.514  1.00  0.00     0.051 A 
ENDBRANCH  19  20
ENDBRANCH  18  19
ENDBRANCH   1  18
TORSDOF 5
ENDMDL
MODEL 6
REMARK VINA RESULT:      -8.0      5.934      8.509
REMARK  5 active torsions:
REMARK  status: ('A' for Active; 'I' for Inactive)
REMARK    1  A    between atoms: C5_6  and  C6_7 
REMARK    2  A    between atoms: C6_7  and  O1_8 
REMARK    3  A    between atoms: O1_8  and  C7_9 
REMARK    4  A    between atoms: C10_12  and  N1_13 
REMARK    5  A    between atoms: N1_13  and  C11_14 
ROOT
HETATM    1  C7  UNL     1      24.385   1.295  53.091  1.00  0.00     0.069 A 
HETATM    2  C8  UNL     1      23.536   1.017  52.059  1.00  0.00     0.039 A 
HETATM    3  C9  UNL     1      23.017   2.062  51.302  1.00  0.00     0.032 A 
HETATM    4  C10 UNL     1      23.304   3.383  51.525  1.00  0.00     0.028 A 
HETATM    5  C17 UNL     1      24.167   3.596  52.580  1.00  0.00     0.032 A 
HETATM    6  C18 UNL     1      24.704   2.601  53.354  1.00  0.00     0.039 A 
ENDROOT
BRANCH   4   7
HETATM    7  N1  UNL     1      22.780   4.451  50.757  1.00  0.00    -0.379 N 
HETATM    8  H8  UNL     1      21.723   4.504  50.676  1.00  0.00     0.160 HD
BRANCH   7   9
HETATM    9  C11 UNL     1      23.555   5.448  50.094  1.00  0.00     0.146 C 
HETATM   10  C12 UNL     1      24.401   4.887  48.962  1.00  0.00     0.034 C 
HETATM   11  C13 UNL     1      25.869   5.175  49.184  1.00  0.00     0.024 C 
HETATM   12  C14 UNL     1      26.162   6.633  49.307  1.00  0.00     0.150 C 
HETATM   13  N2  UNL     1      25.544   7.458  48.292  1.00  0.00    -0.283 NA
HETATM   14  C15 UNL     1      24.329   7.815  48.039  1.00  0.00     0.228 C 
HETATM   15  N3  UNL     1      23.089   7.504  48.710  1.00  0.00    -0.233 NA
HETATM   16  C16 UNL     1      22.716   6.574  49.541  1.00  0.00     0.127 C 
HETATM   17 CL1  UNL     1      21.013   6.880  49.912  1.00  0.00    -0.065 Cl
ENDBRANCH   7   9
ENDBRANCH   4   7
BRANCH   1  18
HETATM   18  O1  UNL     1      24.890   0.231  53.832  1.00  0.00    -0.347 OA
BRANCH  18  19
HETATM   19  C6  UNL     1      25.593  -0.802  53.187  1.00  0.00     0.214 C 
BRANCH  19  20
HETATM   20  C5  UNL     1      27.051  -0.630  53.445  1.00  0.00    -0.031 A 
HETATM   21  C4  UNL     1      27.893  -1.677  53.060  1.00  0.00     0.009 A 
HETATM   22  C3  UNL     1      29.259  -1.641  53.244  1.00  0.00     0.004 A 
HETATM   23  C2  UNL     1      29.840  -0.531  53.832  1.00  0.00     0.042 A 
HETATM   24  C1  UNL     1      29.008   0.517  54.218  1.00  0.00     0.117 A 
HETATM   25  F1  UNL     1      29.589   1.596  54.792  1.00  0.00    -0.206 F 
HETATM   26  C19 UNL     1      27.650   0.471  54.031  1.00  0.00     0.051 A 
ENDBRANCH  19  20
ENDBRANCH  18  19
ENDBRANCH   1  18
TORSDOF 5
ENDMDL
MODEL 7
REMARK VINA RESULT:      -8.0      6.854     11.026
REMARK  5 active torsions:
REMARK  status: ('A' for Active; 'I' for Inactive)
REMARK    1  A    between atoms: C5_6  and  C6_7 
REMARK    2  A    between atoms: C6_7  and  O1_8 
REMARK    3  A    between atoms: O1_8  and  C7_9 
REMARK    4  A    between atoms: C10_12  and  N1_13 
REMARK    5  A    between atoms: N1_13  and  C11_14 
ROOT
HETATM    1  C7  UNL     1      26.245   5.191  49.125  1.00  0.00     0.069 A 
HETATM    2  C8  UNL     1      26.856   3.982  49.295  1.00  0.00     0.039 A 
HETATM    3  C9  UNL     1      26.256   3.021  50.101  1.00  0.00     0.032 A 
HETATM    4  C10 UNL     1      25.066   3.207  50.754  1.00  0.00     0.028 A 
HETATM    5  C17 UNL     1      24.500   4.447  50.542  1.00  0.00     0.032 A 
HETATM    6  C18 UNL     1      25.053   5.426  49.757  1.00  0.00     0.039 A 
ENDROOT
BRANCH   4   7
HETATM    7  N1  UNL     1      24.449   2.233  51.576  1.00  0.00    -0.379 N 
HETATM    8  H8  UNL     1      23.393   2.143  51.495  1.00  0.00     0.160 HD
BRANCH   7   9
HETATM    9  C11 UNL     1      25.128   1.374  52.490  1.00  0.00     0.146 C 
HETATM   10  C12 UNL     1      25.829   2.132  53.607  1.00  0.00     0.034 C 
HETATM   11  C13 UNL     1      27.312   1.833  53.621  1.00  0.00     0.024 C 
HETATM   12  C14 UNL     1      27.609   0.380  53.784  1.00  0.00     0.150 C 
HETATM   13  N2  UNL     1      26.864  -0.270  54.841  1.00  0.00    -0.283 NA
HETATM   14  C15 UNL     1      25.625  -0.598  54.997  1.00  0.00     0.228 C 
HETATM   15  N3  UNL     1      24.480  -0.424  54.134  1.00  0.00    -0.233 NA
HETATM   16  C16 UNL     1      24.220   0.346  53.117  1.00  0.00     0.127 C 
HETATM   17 CL1  UNL     1      22.575  -0.045  52.595  1.00  0.00    -0.065 Cl
ENDBRANCH   7   9
ENDBRANCH   4   7
BRANCH   1  18
HETATM   18  O1  UNL     1      26.867   6.134  48.313  1.00  0.00    -0.347 OA
BRANCH  18  19
HETATM   19  C6  UNL     1      26.961   7.471  48.737  1.00  0.00     0.214 C 
BRANCH  19  20
HETATM   20  C5  UNL     1      28.389   7.894  48.697  1.00  0.00    -0.031 A 
HETATM   21  C4  UNL     1      29.272   7.086  47.975  1.00  0.00     0.009 A 
HETATM   22  C3  UNL     1      30.617   7.368  47.863  1.00  0.00     0.004 A 
HETATM   23  C2  UNL     1      31.135   8.491  48.483  1.00  0.00     0.042 A 
HETATM   24  C1  UNL     1      30.261   9.301  49.205  1.00  0.00     0.117 A 
HETATM   25  F1  UNL     1      30.780  10.397  49.807  1.00  0.00    -0.206 F 
HETATM   26  C19 UNL     1      28.924   9.013  49.311  1.00  0.00     0.051 A 
ENDBRANCH  19  20
ENDBRANCH  18  19
ENDBRANCH   1  18
TORSDOF 5
ENDMDL
MODEL 8
REMARK VINA RESULT:      -7.9      5.055      7.427
REMARK  5 active torsions:
REMARK  status: ('A' for Active; 'I' for Inactive)
REMARK    1  A    between atoms: C5_6  and  C6_7 
REMARK    2  A    between atoms: C6_7  and  O1_8 
REMARK    3  A    between atoms: O1_8  and  C7_9 
REMARK    4  A    between atoms: C10_12  and  N1_13 
REMARK    5  A    between atoms: N1_13  and  C11_14 
ROOT
HETATM    1  C7  UNL     1      25.248   2.907  50.790  1.00  0.00     0.069 A 
HETATM    2  C8  UNL     1      26.433   2.889  50.112  1.00  0.00     0.039 A 
HETATM    3  C9  UNL     1      26.800   3.992  49.350  1.00  0.00     0.032 A 
HETATM    4  C10 UNL     1      26.038   5.124  49.228  1.00  0.00     0.028 A 
HETATM    5  C17 UNL     1      24.855   5.080  49.936  1.00  0.00     0.032 A 
HETATM    6  C18 UNL     1      24.449   4.016  50.699  1.00  0.00     0.039 A 
ENDROOT
BRANCH   4   7
HETATM    7  N1  UNL     1      26.407   6.252  48.454  1.00  0.00    -0.379 N 
HETATM    8  H8  UNL     1      25.775   6.493  47.635  1.00  0.00     0.160 HD
BRANCH   7   9
HETATM    9  C11 UNL     1      27.546   7.076  48.689  1.00  0.00     0.146 C 
HETATM   10  C12 UNL     1      28.305   7.417  47.415  1.00  0.00     0.034 C 
HETATM   11  C13 UNL     1      29.742   6.955  47.497  1.00  0.00     0.024 C 
HETATM   12  C14 UNL     1      30.478   7.549  48.651  1.00  0.00     0.150 C 
HETATM   13  N2  UNL     1      30.306   8.977  48.803  1.00  0.00    -0.283 NA
HETATM   14  C15 UNL     1      29.321   9.732  49.158  1.00  0.00     0.228 C 
HETATM   15  N3  UNL     1      27.970   9.408  49.550  1.00  0.00    -0.233 NA
HETATM   16  C16 UNL     1      27.205   8.366  49.393  1.00  0.00     0.127 C 
HETATM   17 CL1  UNL     1      25.663   8.748  50.173  1.00  0.00    -0.065 Cl
ENDBRANCH   7   9
ENDBRANCH   4   7
BRANCH   1  18
HETATM   18  O1  UNL     1      24.904   1.790  51.545  1.00  0.00    -0.347 OA
BRANCH  18  19
HETATM   19  C6  UNL     1      23.555   1.412  51.664  1.00  0.00     0.214 C 
BRANCH  19  20
HETATM   20  C5  UNL     1      23.411   0.489  52.825  1.00  0.00    -0.031 A 
HETATM   21  C4  UNL     1      24.583   0.099  53.478  1.00  0.00     0.009 A 
HETATM   22  C3  UNL     1      24.583  -0.750  54.564  1.00  0.00     0.004 A 
HETATM   23  C2  UNL     1      23.385  -1.249  55.043  1.00  0.00     0.042 A 
HETATM   24  C1  UNL     1      22.212  -0.864  54.397  1.00  0.00     0.117 A 
HETATM   25  F1  UNL     1      21.046  -1.359  54.875  1.00  0.00    -0.206 F 
HETATM   26  C19 UNL     1      22.221  -0.019  53.317  1.00  0.00     0.051 A 
ENDBRANCH  19  20
ENDBRANCH  18  19
ENDBRANCH   1  18
TORSDOF 5
ENDMDL
MODEL 9
REMARK VINA RESULT:      -7.9      5.463      7.686
REMARK  5 active torsions:
REMARK  status: ('A' for Active; 'I' for Inactive)
REMARK    1  A    between atoms: C5_6  and  C6_7 
REMARK    2  A    between atoms: C6_7  and  O1_8 
REMARK    3  A    between atoms: O1_8  and  C7_9 
REMARK    4  A    between atoms: C10_12  and  N1_13 
REMARK    5  A    between atoms: N1_13  and  C11_14 
ROOT
HETATM    1  C7  UNL     1      25.335   3.217  50.365  1.00  0.00     0.069 A 
HETATM    2  C8  UNL     1      24.564   4.342  50.319  1.00  0.00     0.039 A 
HETATM    3  C9  UNL     1      25.030   5.462  49.641  1.00  0.00     0.032 A 
HETATM    4  C10 UNL     1      26.239   5.519  48.999  1.00  0.00     0.028 A 
HETATM    5  C17 UNL     1      26.970   4.352  49.082  1.00  0.00     0.032 A 
HETATM    6  C18 UNL     1      26.554   3.223  49.739  1.00  0.00     0.039 A 
ENDROOT
BRANCH   4   7
HETATM    7  N1  UNL     1      26.719   6.656  48.306  1.00  0.00    -0.379 N 
HETATM    8  H8  UNL     1      26.128   7.002  47.494  1.00  0.00     0.160 HD
BRANCH   7   9
HETATM    9  C11 UNL     1      27.920   7.362  48.610  1.00  0.00     0.146 C 
HETATM   10  C12 UNL     1      28.766   7.654  47.380  1.00  0.00     0.034 C 
HETATM   11  C13 UNL     1      30.148   7.054  47.514  1.00  0.00     0.024 C 
HETATM   12  C14 UNL     1      30.882   7.551  48.714  1.00  0.00     0.150 C 
HETATM   13  N2  UNL     1      30.841   8.986  48.892  1.00  0.00    -0.283 NA
HETATM   14  C15 UNL     1      29.916   9.825  49.221  1.00  0.00     0.228 C 
HETATM   15  N3  UNL     1      28.524   9.625  49.545  1.00  0.00    -0.233 NA
HETATM   16  C16 UNL     1      27.671   8.665  49.329  1.00  0.00     0.127 C 
HETATM   17 CL1  UNL     1      26.138   9.178  50.049  1.00  0.00    -0.065 Cl
ENDBRANCH   7   9
ENDBRANCH   4   7
BRANCH   1  18
HETATM   18  O1  UNL     1      24.845   2.109  51.050  1.00  0.00    -0.347 OA
BRANCH  18  19
HETATM   19  C6  UNL     1      23.473   2.014  51.339  1.00  0.00     0.214 C 
BRANCH  19  20
HETATM   20  C5  UNL     1      23.272   1.000  52.412  1.00  0.00    -0.031 A 
HETATM   21  C4  UNL     1      21.954   0.664  52.732  1.00  0.00     0.009 A 
HETATM   22  C3  UNL     1      21.636  -0.260  53.706  1.00  0.00     0.004 A 
HETATM   23  C2  UNL     1      22.649  -0.890  54.406  1.00  0.00     0.042 A 
HETATM   24  C1  UNL     1      23.966  -0.561  54.093  1.00  0.00     0.117 A 
HETATM   25  F1  UNL     1      24.947  -1.185  54.785  1.00  0.00    -0.206 F 
HETATM   26  C19 UNL     1      24.272   0.359  53.122  1.00  0.00     0.051 A 
ENDBRANCH  19  20
ENDBRANCH  18  19
ENDBRANCH   1  18
TORSDOF 5
ENDMDL
