MODEL 1
REMARK VINA RESULT:      -7.2      0.000      0.000
REMARK  5 active torsions:
REMARK  status: ('A' for Active; 'I' for Inactive)
REMARK    1  A    between atoms: C2_2  and  O1_3 
REMARK    2  A    between atoms: O1_3  and  C3_4 
REMARK    3  A    between atoms: C8_9  and  O2_10 
REMARK    4  A    between atoms: N1_12  and  C10_13 
REMARK    5  A    between atoms: C13_16  and  O3_17 
ROOT
HETATM    1  C3  UNL     1      21.477   1.086  51.513  1.00  0.00     0.102 A 
HETATM    2  C4  UNL     1      21.054   0.238  52.548  1.00  0.00     0.050 A 
HETATM    3  C5  UNL     1      21.973  -0.309  53.451  1.00  0.00    -0.008 A 
HETATM    4  C6  UNL     1      23.312  -0.016  53.329  1.00  0.00     0.051 A 
HETATM    5  C7  UNL     1      23.712   0.806  52.325  1.00  0.00     0.070 A 
HETATM    6  C8  UNL     1      22.844   1.380  51.396  1.00  0.00     0.103 A 
HETATM    7  N1  UNL     1      24.189  -0.603  54.278  1.00  0.00    -0.309 N 
HETATM    8  C16 UNL     1      23.543  -1.425  55.238  1.00  0.00     0.208 A 
HETATM    9  N2  UNL     1      22.301  -1.697  55.349  1.00  0.00    -0.280 NA
HETATM   10  C17 UNL     1      21.324  -1.160  54.443  1.00  0.00     0.191 A 
ENDROOT
BRANCH   7  11
HETATM   11  C10 UNL     1      25.551  -0.319  54.169  1.00  0.00     0.024 A 
HETATM   12  C11 UNL     1      26.268  -1.126  53.414  1.00  0.00     0.028 A 
HETATM   13  C12 UNL     1      27.675  -0.732  53.375  1.00  0.00     0.034 A 
HETATM   14  C13 UNL     1      27.801   0.366  54.148  1.00  0.00     0.051 A 
HETATM   15  C15 UNL     1      26.481   0.730  54.720  1.00  0.00     0.122 A 
BRANCH  14  16
HETATM   16  O3  UNL     1      28.863   1.206  54.514  1.00  0.00    -0.360 OA
HETATM   17  C14 UNL     1      28.989   2.450  53.820  1.00  0.00     0.209 C 
ENDBRANCH  14  16
ENDBRANCH   7  11
BRANCH   6  18
HETATM   18  O2  UNL     1      23.368   2.213  50.401  1.00  0.00    -0.353 OA
HETATM   19  C9  UNL     1      23.863   3.472  50.809  1.00  0.00     0.210 C 
ENDBRANCH   6  18
BRANCH   1  20
HETATM   20  O1  UNL     1      20.738   1.703  50.553  1.00  0.00    -0.349 OA
BRANCH  20  21
HETATM   21  C2  UNL     1      19.750   2.668  50.662  1.00  0.00     0.171 C 
HETATM   22  C1  UNL     1      20.056   3.837  51.537  1.00  0.00     0.034 C 
ENDBRANCH  20  21
ENDBRANCH   1  20
TORSDOF 5
ENDMDL
MODEL 2
REMARK VINA RESULT:      -7.2      2.395      7.081
REMARK  5 active torsions:
REMARK  status: ('A' for Active; 'I' for Inactive)
REMARK    1  A    between atoms: C2_2  and  O1_3 
REMARK    2  A    between atoms: O1_3  and  C3_4 
REMARK    3  A    between atoms: C8_9  and  O2_10 
REMARK    4  A    between atoms: N1_12  and  C10_13 
REMARK    5  A    between atoms: C13_16  and  O3_17 
ROOT
HETATM    1  C3  UNL     1      26.755   0.163  53.563  1.00  0.00     0.102 A 
HETATM    2  C4  UNL     1      26.973   1.086  52.528  1.00  0.00     0.050 A 
HETATM    3  C5  UNL     1      25.901   1.631  51.811  1.00  0.00    -0.008 A 
HETATM    4  C6  UNL     1      24.612   1.262  52.120  1.00  0.00     0.051 A 
HETATM    5  C7  UNL     1      24.409   0.370  53.123  1.00  0.00     0.070 A 
HETATM    6  C8  UNL     1      25.437  -0.208  53.871  1.00  0.00     0.103 A 
HETATM    7  N1  UNL     1      23.571   1.853  51.356  1.00  0.00    -0.309 N 
HETATM    8  C16 UNL     1      24.023   2.760  50.362  1.00  0.00     0.208 A 
HETATM    9  N2  UNL     1      25.219   3.100  50.076  1.00  0.00    -0.280 NA
HETATM   10  C17 UNL     1      26.349   2.564  50.783  1.00  0.00     0.191 A 
ENDROOT
BRANCH   7  11
HETATM   11  C10 UNL     1      22.257   1.489  51.654  1.00  0.00     0.024 A 
HETATM   12  C11 UNL     1      21.542   2.356  52.341  1.00  0.00     0.028 A 
HETATM   13  C12 UNL     1      20.187   1.868  52.592  1.00  0.00     0.034 A 
HETATM   14  C13 UNL     1      20.093   0.648  52.026  1.00  0.00     0.051 A 
HETATM   15  C15 UNL     1      21.383   0.294  51.383  1.00  0.00     0.122 A 
BRANCH  14  16
HETATM   16  O3  UNL     1      19.085  -0.321  51.915  1.00  0.00    -0.360 OA
HETATM   17  C14 UNL     1      18.577  -0.885  53.127  1.00  0.00     0.209 C 
ENDBRANCH  14  16
ENDBRANCH   7  11
BRANCH   6  18
HETATM   18  O2  UNL     1      25.112  -1.118  54.882  1.00  0.00    -0.353 OA
HETATM   19  C9  UNL     1      23.750  -1.221  55.244  1.00  0.00     0.210 C 
ENDBRANCH   6  18
BRANCH   1  20
HETATM   20  O1  UNL     1      27.661  -0.463  54.358  1.00  0.00    -0.349 OA
BRANCH  20  21
HETATM   21  C2  UNL     1      29.012  -0.219  54.547  1.00  0.00     0.171 C 
HETATM   22  C1  UNL     1      29.951  -0.934  53.634  1.00  0.00     0.034 C 
ENDBRANCH  20  21
ENDBRANCH   1  20
TORSDOF 5
ENDMDL
MODEL 3
REMARK VINA RESULT:      -6.9      1.540      6.024
REMARK  5 active torsions:
REMARK  status: ('A' for Active; 'I' for Inactive)
REMARK    1  A    between atoms: C2_2  and  O1_3 
REMARK    2  A    between atoms: O1_3  and  C3_4 
REMARK    3  A    between atoms: C8_9  and  O2_10 
REMARK    4  A    between atoms: N1_12  and  C10_13 
REMARK    5  A    between atoms: C13_16  and  O3_17 
ROOT
HETATM    1  C3  UNL     1      26.667   0.204  53.288  1.00  0.00     0.102 A 
HETATM    2  C4  UNL     1      25.972  -0.520  54.269  1.00  0.00     0.050 A 
HETATM    3  C5  UNL     1      24.572  -0.536  54.295  1.00  0.00    -0.008 A 
HETATM    4  C6  UNL     1      23.861   0.166  53.349  1.00  0.00     0.051 A 
HETATM    5  C7  UNL     1      24.541   0.864  52.404  1.00  0.00     0.070 A 
HETATM    6  C8  UNL     1      25.934   0.918  52.328  1.00  0.00     0.103 A 
HETATM    7  N1  UNL     1      22.445   0.106  53.432  1.00  0.00    -0.309 N 
HETATM    8  C16 UNL     1      21.958  -0.688  54.502  1.00  0.00     0.208 A 
HETATM    9  N2  UNL     1      22.619  -1.338  55.379  1.00  0.00    -0.280 NA
HETATM   10  C17 UNL     1      24.055  -1.347  55.392  1.00  0.00     0.191 A 
ENDROOT
BRANCH   7  11
HETATM   11  C10 UNL     1      21.707   0.815  52.482  1.00  0.00     0.024 A 
HETATM   12  C11 UNL     1      21.366   0.164  51.389  1.00  0.00     0.028 A 
HETATM   13  C12 UNL     1      20.599   1.004  50.471  1.00  0.00     0.034 A 
HETATM   14  C13 UNL     1      20.478   2.217  51.049  1.00  0.00     0.051 A 
HETATM   15  C15 UNL     1      21.162   2.213  52.366  1.00  0.00     0.122 A 
BRANCH  14  16
HETATM   16  O3  UNL     1      19.873   3.430  50.693  1.00  0.00    -0.360 OA
HETATM   17  C14 UNL     1      20.590   4.633  50.980  1.00  0.00     0.209 C 
ENDBRANCH  14  16
ENDBRANCH   7  11
BRANCH   6  18
HETATM   18  O2  UNL     1      26.530   1.671  51.311  1.00  0.00    -0.353 OA
HETATM   19  C9  UNL     1      25.914   2.896  50.970  1.00  0.00     0.210 C 
ENDBRANCH   6  18
BRANCH   1  20
HETATM   20  O1  UNL     1      28.008   0.334  53.109  1.00  0.00    -0.349 OA
BRANCH  20  21
HETATM   21  C2  UNL     1      29.059   0.106  53.982  1.00  0.00     0.171 C 
HETATM   22  C1  UNL     1      29.947  -1.050  53.667  1.00  0.00     0.034 C 
ENDBRANCH  20  21
ENDBRANCH   1  20
TORSDOF 5
ENDMDL
MODEL 4
REMARK VINA RESULT:      -6.9      2.200      5.485
REMARK  5 active torsions:
REMARK  status: ('A' for Active; 'I' for Inactive)
REMARK    1  A    between atoms: C2_2  and  O1_3 
REMARK    2  A    between atoms: O1_3  and  C3_4 
REMARK    3  A    between atoms: C8_9  and  O2_10 
REMARK    4  A    between atoms: N1_12  and  C10_13 
REMARK    5  A    between atoms: C13_16  and  O3_17 
ROOT
HETATM    1  C3  UNL     1      25.894   3.057  50.901  1.00  0.00     0.102 A 
HETATM    2  C4  UNL     1      26.790   2.175  51.525  1.00  0.00     0.050 A 
HETATM    3  C5  UNL     1      26.325   1.109  52.304  1.00  0.00    -0.008 A 
HETATM    4  C6  UNL     1      24.973   0.916  52.466  1.00  0.00     0.051 A 
HETATM    5  C7  UNL     1      24.113   1.774  51.859  1.00  0.00     0.070 A 
HETATM    6  C8  UNL     1      24.517   2.854  51.072  1.00  0.00     0.103 A 
HETATM    7  N1  UNL     1      24.569  -0.184  53.267  1.00  0.00    -0.309 N 
HETATM    8  C16 UNL     1      25.645  -0.944  53.796  1.00  0.00     0.208 A 
HETATM    9  N2  UNL     1      26.899  -0.763  53.646  1.00  0.00    -0.280 NA
HETATM   10  C17 UNL     1      27.420   0.319  52.858  1.00  0.00     0.191 A 
ENDROOT
BRANCH   7  11
HETATM   11  C10 UNL     1      23.201  -0.393  53.445  1.00  0.00     0.024 A 
HETATM   12  C11 UNL     1      22.818  -0.858  54.616  1.00  0.00     0.028 A 
HETATM   13  C12 UNL     1      21.369  -1.037  54.685  1.00  0.00     0.034 A 
HETATM   14  C13 UNL     1      20.865  -0.660  53.493  1.00  0.00     0.051 A 
HETATM   15  C15 UNL     1      21.966  -0.220  52.601  1.00  0.00     0.122 A 
BRANCH  14  16
HETATM   16  O3  UNL     1      19.580  -0.594  52.934  1.00  0.00    -0.360 OA
HETATM   17  C14 UNL     1      19.357   0.376  51.908  1.00  0.00     0.209 C 
ENDBRANCH  14  16
ENDBRANCH   7  11
BRANCH   6  18
HETATM   18  O2  UNL     1      23.542   3.676  50.495  1.00  0.00    -0.353 OA
HETATM   19  C9  UNL     1      22.233   3.590  51.021  1.00  0.00     0.210 C 
ENDBRANCH   6  18
BRANCH   1  20
HETATM   20  O1  UNL     1      26.159   4.135  50.117  1.00  0.00    -0.349 OA
BRANCH  20  21
HETATM   21  C2  UNL     1      27.042   4.283  49.060  1.00  0.00     0.171 C 
HETATM   22  C1  UNL     1      27.313   5.679  48.610  1.00  0.00     0.034 C 
ENDBRANCH  20  21
ENDBRANCH   1  20
TORSDOF 5
ENDMDL
MODEL 5
REMARK VINA RESULT:      -6.6      2.004      2.458
REMARK  5 active torsions:
REMARK  status: ('A' for Active; 'I' for Inactive)
REMARK    1  A    between atoms: C2_2  and  O1_3 
REMARK    2  A    between atoms: O1_3  and  C3_4 
REMARK    3  A    between atoms: C8_9  and  O2_10 
REMARK    4  A    between atoms: N1_12  and  C10_13 
REMARK    5  A    between atoms: C13_16  and  O3_17 
ROOT
HETATM    1  C3  UNL     1      19.767   0.506  51.594  1.00  0.00     0.102 A 
HETATM    2  C4  UNL     1      19.868  -0.238  52.780  1.00  0.00     0.050 A 
HETATM    3  C5  UNL     1      21.111  -0.468  53.382  1.00  0.00    -0.008 A 
HETATM    4  C6  UNL     1      22.254   0.040  52.810  1.00  0.00     0.051 A 
HETATM    5  C7  UNL     1      22.148   0.759  51.664  1.00  0.00     0.070 A 
HETATM    6  C8  UNL     1      20.939   1.020  51.017  1.00  0.00     0.103 A 
HETATM    7  N1  UNL     1      23.481  -0.228  53.473  1.00  0.00    -0.309 N 
HETATM    8  C16 UNL     1      23.346  -0.999  54.657  1.00  0.00     0.208 A 
HETATM    9  N2  UNL     1      22.284  -1.470  55.186  1.00  0.00    -0.280 NA
HETATM   10  C17 UNL     1      20.989  -1.262  54.600  1.00  0.00     0.191 A 
ENDROOT
BRANCH   7  11
HETATM   11  C10 UNL     1      24.652   0.277  52.906  1.00  0.00     0.024 A 
HETATM   12  C11 UNL     1      25.655  -0.565  52.766  1.00  0.00     0.028 A 
HETATM   13  C12 UNL     1      26.824   0.074  52.164  1.00  0.00     0.034 A 
HETATM   14  C13 UNL     1      26.498   1.363  51.935  1.00  0.00     0.051 A 
HETATM   15  C15 UNL     1      25.104   1.613  52.379  1.00  0.00     0.122 A 
BRANCH  14  16
HETATM   16  O3  UNL     1      27.161   2.473  51.392  1.00  0.00    -0.360 OA
HETATM   17  C14 UNL     1      26.440   3.276  50.453  1.00  0.00     0.209 C 
ENDBRANCH  14  16
ENDBRANCH   7  11
BRANCH   6  18
HETATM   18  O2  UNL     1      20.947   1.774  49.838  1.00  0.00    -0.353 OA
HETATM   19  C9  UNL     1      22.182   1.899  49.162  1.00  0.00     0.210 C 
ENDBRANCH   6  18
BRANCH   1  20
HETATM   20  O1  UNL     1      18.660   0.827  50.875  1.00  0.00    -0.349 OA
BRANCH  20  21
HETATM   21  C2  UNL     1      17.747   0.017  50.221  1.00  0.00     0.171 C 
HETATM   22  C1  UNL     1      16.616  -0.508  51.041  1.00  0.00     0.034 C 
ENDBRANCH  20  21
ENDBRANCH   1  20
TORSDOF 5
ENDMDL
MODEL 6
REMARK VINA RESULT:      -6.4      1.839      6.090
REMARK  5 active torsions:
REMARK  status: ('A' for Active; 'I' for Inactive)
REMARK    1  A    between atoms: C2_2  and  O1_3 
REMARK    2  A    between atoms: O1_3  and  C3_4 
REMARK    3  A    between atoms: C8_9  and  O2_10 
REMARK    4  A    between atoms: N1_12  and  C10_13 
REMARK    5  A    between atoms: C13_16  and  O3_17 
ROOT
HETATM    1  C3  UNL     1      26.108  -0.171  53.260  1.00  0.00     0.102 A 
HETATM    2  C4  UNL     1      25.103  -0.731  54.063  1.00  0.00     0.050 A 
HETATM    3  C5  UNL     1      23.763  -0.359  53.902  1.00  0.00    -0.008 A 
HETATM    4  C6  UNL     1      23.418   0.567  52.945  1.00  0.00     0.051 A 
HETATM    5  C7  UNL     1      24.397   1.104  52.173  1.00  0.00     0.070 A 
HETATM    6  C8  UNL     1      25.748   0.774  52.287  1.00  0.00     0.103 A 
HETATM    7  N1  UNL     1      22.042   0.898  52.834  1.00  0.00    -0.309 N 
HETATM    8  C16 UNL     1      21.202   0.208  53.747  1.00  0.00     0.208 A 
HETATM    9  N2  UNL     1      21.524  -0.650  54.635  1.00  0.00    -0.280 NA
HETATM   10  C17 UNL     1      22.886  -1.058  54.836  1.00  0.00     0.191 A 
ENDROOT
BRANCH   7  11
HETATM   11  C10 UNL     1      21.674   1.838  51.870  1.00  0.00     0.024 A 
HETATM   12  C11 UNL     1      21.366   3.044  52.304  1.00  0.00     0.028 A 
HETATM   13  C12 UNL     1      20.997   3.939  51.208  1.00  0.00     0.034 A 
HETATM   14  C13 UNL     1      21.090   3.229  50.066  1.00  0.00     0.051 A 
HETATM   15  C15 UNL     1      21.523   1.843  50.373  1.00  0.00     0.122 A 
BRANCH  14  16
HETATM   16  O3  UNL     1      20.876   3.501  48.707  1.00  0.00    -0.360 OA
HETATM   17  C14 UNL     1      20.424   4.813  48.361  1.00  0.00     0.209 C 
ENDBRANCH  14  16
ENDBRANCH   7  11
BRANCH   6  18
HETATM   18  O2  UNL     1      26.672   1.390  51.436  1.00  0.00    -0.353 OA
HETATM   19  C9  UNL     1      26.431   2.740  51.092  1.00  0.00     0.210 C 
ENDBRANCH   6  18
BRANCH   1  20
HETATM   20  O1  UNL     1      27.447  -0.407  53.272  1.00  0.00    -0.349 OA
BRANCH  20  21
HETATM   21  C2  UNL     1      28.399  -0.130  54.239  1.00  0.00     0.171 C 
HETATM   22  C1  UNL     1      29.070   1.199  54.150  1.00  0.00     0.034 C 
ENDBRANCH  20  21
ENDBRANCH   1  20
TORSDOF 5
ENDMDL
MODEL 7
REMARK VINA RESULT:      -6.1      2.788      4.914
REMARK  5 active torsions:
REMARK  status: ('A' for Active; 'I' for Inactive)
REMARK    1  A    between atoms: C2_2  and  O1_3 
REMARK    2  A    between atoms: O1_3  and  C3_4 
REMARK    3  A    between atoms: C8_9  and  O2_10 
REMARK    4  A    between atoms: N1_12  and  C10_13 
REMARK    5  A    between atoms: C13_16  and  O3_17 
ROOT
HETATM    1  C3  UNL     1      19.544  -0.425  53.413  1.00  0.00     0.102 A 
HETATM    2  C4  UNL     1      20.682  -0.978  54.020  1.00  0.00     0.050 A 
HETATM    3  C5  UNL     1      21.957  -0.454  53.770  1.00  0.00    -0.008 A 
HETATM    4  C6  UNL     1      22.103   0.617  52.919  1.00  0.00     0.051 A 
HETATM    5  C7  UNL     1      20.997   1.146  52.337  1.00  0.00     0.070 A 
HETATM    6  C8  UNL     1      19.702   0.667  52.546  1.00  0.00     0.103 A 
HETATM    7  N1  UNL     1      23.422   1.099  52.710  1.00  0.00    -0.309 N 
HETATM    8  C16 UNL     1      24.421   0.390  53.428  1.00  0.00     0.208 A 
HETATM    9  N2  UNL     1      24.283  -0.604  54.216  1.00  0.00    -0.280 NA
HETATM   10  C17 UNL     1      22.996  -1.175  54.498  1.00  0.00     0.191 A 
ENDROOT
BRANCH   7  11
HETATM   11  C10 UNL     1      23.591   2.184  51.848  1.00  0.00     0.024 A 
HETATM   12  C11 UNL     1      23.848   3.350  52.404  1.00  0.00     0.028 A 
HETATM   13  C12 UNL     1      24.004   4.407  51.406  1.00  0.00     0.034 A 
HETATM   14  C13 UNL     1      23.829   3.840  50.196  1.00  0.00     0.051 A 
HETATM   15  C15 UNL     1      23.552   2.391  50.358  1.00  0.00     0.122 A 
BRANCH  14  16
HETATM   16  O3  UNL     1      23.850   4.300  48.871  1.00  0.00    -0.360 OA
HETATM   17  C14 UNL     1      22.635   4.208  48.122  1.00  0.00     0.209 C 
ENDBRANCH  14  16
ENDBRANCH   7  11
BRANCH   6  18
HETATM   18  O2  UNL     1      18.634   1.290  51.892  1.00  0.00    -0.353 OA
HETATM   19  C9  UNL     1      18.500   1.051  50.506  1.00  0.00     0.210 C 
ENDBRANCH   6  18
BRANCH   1  20
HETATM   20  O1  UNL     1      18.242  -0.796  53.535  1.00  0.00    -0.349 OA
BRANCH  20  21
HETATM   21  C2  UNL     1      17.546  -1.839  52.947  1.00  0.00     0.171 C 
HETATM   22  C1  UNL     1      17.547  -3.137  53.682  1.00  0.00     0.034 C 
ENDBRANCH  20  21
ENDBRANCH   1  20
TORSDOF 5
ENDMDL
MODEL 8
REMARK VINA RESULT:      -5.9      2.915      4.499
REMARK  5 active torsions:
REMARK  status: ('A' for Active; 'I' for Inactive)
REMARK    1  A    between atoms: C2_2  and  O1_3 
REMARK    2  A    between atoms: O1_3  and  C3_4 
REMARK    3  A    between atoms: C8_9  and  O2_10 
REMARK    4  A    between atoms: N1_12  and  C10_13 
REMARK    5  A    between atoms: C13_16  and  O3_17 
ROOT
HETATM    1  C3  UNL     1      21.026   0.728  50.969  1.00  0.00     0.102 A 
HETATM    2  C4  UNL     1      21.836   0.303  52.033  1.00  0.00     0.050 A 
HETATM    3  C5  UNL     1      23.117   0.837  52.220  1.00  0.00    -0.008 A 
HETATM    4  C6  UNL     1      23.594   1.794  51.355  1.00  0.00     0.051 A 
HETATM    5  C7  UNL     1      22.803   2.200  50.328  1.00  0.00     0.070 A 
HETATM    6  C8  UNL     1      21.520   1.704  50.090  1.00  0.00     0.103 A 
HETATM    7  N1  UNL     1      24.899   2.295  51.602  1.00  0.00    -0.309 N 
HETATM    8  C16 UNL     1      25.536   1.723  52.735  1.00  0.00     0.208 A 
HETATM    9  N2  UNL     1      25.092   0.835  53.536  1.00  0.00    -0.280 NA
HETATM   10  C17 UNL     1      23.787   0.257  53.380  1.00  0.00     0.191 A 
ENDROOT
BRANCH   7  11
HETATM   11  C10 UNL     1      25.401   3.264  50.732  1.00  0.00     0.024 A 
HETATM   12  C11 UNL     1      26.497   2.956  50.069  1.00  0.00     0.028 A 
HETATM   13  C12 UNL     1      26.927   4.044  49.192  1.00  0.00     0.034 A 
HETATM   14  C13 UNL     1      26.043   5.050  49.344  1.00  0.00     0.051 A 
HETATM   15  C15 UNL     1      25.001   4.657  50.326  1.00  0.00     0.122 A 
BRANCH  14  16
HETATM   16  O3  UNL     1      25.897   6.335  48.801  1.00  0.00    -0.360 OA
HETATM   17  C14 UNL     1      27.052   6.934  48.208  1.00  0.00     0.209 C 
ENDBRANCH  14  16
ENDBRANCH   7  11
BRANCH   6  18
HETATM   18  O2  UNL     1      20.793   2.195  49.000  1.00  0.00    -0.353 OA
HETATM   19  C9  UNL     1      21.513   2.466  47.815  1.00  0.00     0.210 C 
ENDBRANCH   6  18
BRANCH   1  20
HETATM   20  O1  UNL     1      19.771   0.327  50.634  1.00  0.00    -0.349 OA
BRANCH  20  21
HETATM   21  C2  UNL     1      18.573   0.461  51.315  1.00  0.00     0.171 C 
HETATM   22  C1  UNL     1      18.214  -0.643  52.253  1.00  0.00     0.034 C 
ENDBRANCH  20  21
ENDBRANCH   1  20
TORSDOF 5
ENDMDL
MODEL 9
REMARK VINA RESULT:      -5.9      3.024      6.492
REMARK  5 active torsions:
REMARK  status: ('A' for Active; 'I' for Inactive)
REMARK    1  A    between atoms: C2_2  and  O1_3 
REMARK    2  A    between atoms: O1_3  and  C3_4 
REMARK    3  A    between atoms: C8_9  and  O2_10 
REMARK    4  A    between atoms: N1_12  and  C10_13 
REMARK    5  A    between atoms: C13_16  and  O3_17 
ROOT
HETATM    1  C3  UNL     1      25.822   4.407  49.426  1.00  0.00     0.102 A 
HETATM    2  C4  UNL     1      26.569   3.540  50.238  1.00  0.00     0.050 A 
HETATM    3  C5  UNL     1      25.941   2.543  50.994  1.00  0.00    -0.008 A 
HETATM    4  C6  UNL     1      24.573   2.405  50.946  1.00  0.00     0.051 A 
HETATM    5  C7  UNL     1      23.858   3.249  50.158  1.00  0.00     0.070 A 
HETATM    6  C8  UNL     1      24.428   4.261  49.383  1.00  0.00     0.103 A 
HETATM    7  N1  UNL     1      24.001   1.374  51.736  1.00  0.00    -0.309 N 
HETATM    8  C16 UNL     1      24.945   0.616  52.476  1.00  0.00     0.208 A 
HETATM    9  N2  UNL     1      26.214   0.746  52.520  1.00  0.00    -0.280 NA
HETATM   10  C17 UNL     1      26.899   1.756  51.764  1.00  0.00     0.191 A 
ENDROOT
BRANCH   7  11
HETATM   11  C10 UNL     1      22.614   1.221  51.702  1.00  0.00     0.024 A 
HETATM   12  C11 UNL     1      21.950   1.582  52.781  1.00  0.00     0.028 A 
HETATM   13  C12 UNL     1      20.510   1.376  52.630  1.00  0.00     0.034 A 
HETATM   14  C13 UNL     1      20.309   0.867  51.398  1.00  0.00     0.051 A 
HETATM   15  C15 UNL     1      21.610   0.720  50.699  1.00  0.00     0.122 A 
BRANCH  14  16
HETATM   16  O3  UNL     1      19.186   0.462  50.663  1.00  0.00    -0.360 OA
HETATM   17  C14 UNL     1      18.063  -0.036  51.396  1.00  0.00     0.209 C 
ENDBRANCH  14  16
ENDBRANCH   7  11
BRANCH   6  18
HETATM   18  O2  UNL     1      23.593   5.073  48.608  1.00  0.00    -0.353 OA
HETATM   19  C9  UNL     1      22.569   4.432  47.874  1.00  0.00     0.210 C 
ENDBRANCH   6  18
BRANCH   1  20
HETATM   20  O1  UNL     1      26.254   5.422  48.632  1.00  0.00    -0.349 OA
BRANCH  20  21
HETATM   21  C2  UNL     1      27.433   6.148  48.662  1.00  0.00     0.171 C 
HETATM   22  C1  UNL     1      28.670   5.425  48.247  1.00  0.00     0.034 C 
ENDBRANCH  20  21
ENDBRANCH   1  20
TORSDOF 5
ENDMDL
