MODEL 1
REMARK VINA RESULT:      -7.2      0.000      0.000
REMARK  7 active torsions:
REMARK  status: ('A' for Active; 'I' for Inactive)
REMARK    1  A    between atoms: C5_5  and  N1_6 
REMARK    2  A    between atoms: N1_6  and  C6_7 
REMARK    3  A    between atoms: C6_7  and  C7_8 
REMARK    4  A    between atoms: C7_8  and  C8_9 
REMARK    5  A    between atoms: C10_11  and  N2_12 
REMARK    6  A    between atoms: N2_12  and  C12_14 
REMARK    7  A    between atoms: C12_14  and  C13_15 
ROOT
HETATM    1  C8  UNL     1      23.794   1.944  52.689  1.00  0.00    -0.073 C 
HETATM    2  C9  UNL     1      25.053   2.030  53.140  1.00  0.00     0.033 C 
HETATM    3  C10 UNL     1      25.686   0.827  53.608  1.00  0.00     0.041 C 
HETATM    4  C14 UNL     1      25.034  -0.276  53.838  1.00  0.00    -0.001 C 
HETATM    5  C15 UNL     1      23.747  -0.289  53.667  1.00  0.00    -0.008 C 
HETATM    6  C16 UNL     1      23.094   0.634  52.679  1.00  0.00     0.062 C 
ENDROOT
BRANCH   1   7
HETATM    7  C7  UNL     1      23.114   3.166  52.200  1.00  0.00     0.054 C 
BRANCH   7   8
HETATM    8  C6  UNL     1      22.519   3.036  50.834  1.00  0.00     0.124 C 
BRANCH   8   9
HETATM    9  N1  UNL     1      23.615   2.711  49.912  1.00  0.00    -0.390 N 
HETATM   10  H6  UNL     1      23.681   1.749  49.469  1.00  0.00     0.159 HD
BRANCH   9  11
HETATM   11  C5  UNL     1      24.644   3.618  49.547  1.00  0.00     0.027 A 
HETATM   12  C4  UNL     1      25.996   3.278  49.636  1.00  0.00     0.029 A 
HETATM   13  C3  UNL     1      26.956   4.197  49.268  1.00  0.00     0.009 A 
HETATM   14  C2  UNL     1      26.612   5.450  48.812  1.00  0.00    -0.062 A 
HETATM   15  C1  UNL     1      27.660   6.454  48.410  1.00  0.00     0.048 C 
HETATM   16  C18 UNL     1      25.278   5.862  48.697  1.00  0.00     0.009 A 
HETATM   17  C17 UNL     1      24.383   4.886  49.084  1.00  0.00     0.029 A 
ENDBRANCH   9  11
ENDBRANCH   8   9
ENDBRANCH   7   8
ENDBRANCH   1   7
BRANCH   3  18
HETATM   18  N2  UNL     1      27.099   0.924  53.806  1.00  0.00    -0.383 N 
HETATM   19  C11 UNL     1      27.745   1.983  53.064  1.00  0.00     0.149 C 
BRANCH  18  20
HETATM   20  C12 UNL     1      27.879   0.064  54.667  1.00  0.00     0.137 C 
BRANCH  20  21
HETATM   21  C13 UNL     1      29.285  -0.113  54.120  1.00  0.00     0.134 C 
HETATM   22 CL1  UNL     1      29.415  -1.699  53.366  1.00  0.00    -0.129 Cl
ENDBRANCH  20  21
ENDBRANCH  18  20
ENDBRANCH   3  18
TORSDOF 7
ENDMDL
MODEL 2
REMARK VINA RESULT:      -7.0      1.407      1.923
REMARK  7 active torsions:
REMARK  status: ('A' for Active; 'I' for Inactive)
REMARK    1  A    between atoms: C5_5  and  N1_6 
REMARK    2  A    between atoms: N1_6  and  C6_7 
REMARK    3  A    between atoms: C6_7  and  C7_8 
REMARK    4  A    between atoms: C7_8  and  C8_9 
REMARK    5  A    between atoms: C10_11  and  N2_12 
REMARK    6  A    between atoms: N2_12  and  C12_14 
REMARK    7  A    between atoms: C12_14  and  C13_15 
ROOT
HETATM    1  C8  UNL     1      22.958   1.031  52.021  1.00  0.00    -0.073 C 
HETATM    2  C9  UNL     1      24.250   0.947  52.368  1.00  0.00     0.033 C 
HETATM    3  C10 UNL     1      24.619  -0.020  53.366  1.00  0.00     0.041 C 
HETATM    4  C14 UNL     1      23.750  -0.639  54.112  1.00  0.00    -0.001 C 
HETATM    5  C15 UNL     1      22.491  -0.353  53.974  1.00  0.00    -0.008 C 
HETATM    6  C16 UNL     1      21.955   0.142  52.662  1.00  0.00     0.062 C 
ENDROOT
BRANCH   1   7
HETATM    7  C7  UNL     1      22.545   2.017  50.995  1.00  0.00     0.054 C 
BRANCH   7   8
HETATM    8  C6  UNL     1      22.909   3.432  51.317  1.00  0.00     0.124 C 
BRANCH   8   9
HETATM    9  N1  UNL     1      23.196   4.105  50.044  1.00  0.00    -0.390 N 
HETATM   10  H6  UNL     1      22.411   4.349  49.372  1.00  0.00     0.159 HD
BRANCH   9  11
HETATM   11  C5  UNL     1      24.497   4.476  49.615  1.00  0.00     0.027 A 
HETATM   12  C4  UNL     1      24.769   5.737  49.079  1.00  0.00     0.029 A 
HETATM   13  C3  UNL     1      26.051   6.046  48.677  1.00  0.00     0.009 A 
HETATM   14  C2  UNL     1      27.077   5.135  48.793  1.00  0.00    -0.062 A 
HETATM   15  C1  UNL     1      28.478   5.472  48.354  1.00  0.00     0.048 C 
HETATM   16  C18 UNL     1      26.881   3.852  49.320  1.00  0.00     0.009 A 
HETATM   17  C17 UNL     1      25.574   3.625  49.696  1.00  0.00     0.029 A 
ENDBRANCH   9  11
ENDBRANCH   8   9
ENDBRANCH   7   8
ENDBRANCH   1   7
BRANCH   3  18
HETATM   18  N2  UNL     1      26.024  -0.259  53.486  1.00  0.00    -0.383 N 
HETATM   19  C11 UNL     1      26.592  -1.076  52.438  1.00  0.00     0.149 C 
BRANCH  18  20
HETATM   20  C12 UNL     1      26.865   0.247  54.546  1.00  0.00     0.137 C 
BRANCH  20  21
HETATM   21  C13 UNL     1      28.214   0.684  54.001  1.00  0.00     0.134 C 
HETATM   22 CL1  UNL     1      28.126   2.380  53.535  1.00  0.00    -0.129 Cl
ENDBRANCH  20  21
ENDBRANCH  18  20
ENDBRANCH   3  18
TORSDOF 7
ENDMDL
MODEL 3
REMARK VINA RESULT:      -7.0      3.325      7.233
REMARK  7 active torsions:
REMARK  status: ('A' for Active; 'I' for Inactive)
REMARK    1  A    between atoms: C5_5  and  N1_6 
REMARK    2  A    between atoms: N1_6  and  C6_7 
REMARK    3  A    between atoms: C6_7  and  C7_8 
REMARK    4  A    between atoms: C7_8  and  C8_9 
REMARK    5  A    between atoms: C10_11  and  N2_12 
REMARK    6  A    between atoms: N2_12  and  C12_14 
REMARK    7  A    between atoms: C12_14  and  C13_15 
ROOT
HETATM    1  C8  UNL     1      26.736   4.555  49.174  1.00  0.00    -0.073 C 
HETATM    2  C9  UNL     1      27.907   4.843  48.589  1.00  0.00     0.033 C 
HETATM    3  C10 UNL     1      28.131   6.196  48.159  1.00  0.00     0.041 C 
HETATM    4  C14 UNL     1      27.184   7.086  48.088  1.00  0.00    -0.001 C 
HETATM    5  C15 UNL     1      25.972   6.734  48.391  1.00  0.00    -0.008 C 
HETATM    6  C16 UNL     1      25.716   5.618  49.362  1.00  0.00     0.062 C 
ENDROOT
BRANCH   1   7
HETATM    7  C7  UNL     1      26.474   3.169  49.629  1.00  0.00     0.054 C 
BRANCH   7   8
HETATM    8  C6  UNL     1      25.323   3.038  50.575  1.00  0.00     0.124 C 
BRANCH   8   9
HETATM    9  N1  UNL     1      25.883   2.952  51.930  1.00  0.00    -0.390 N 
HETATM   10  H6  UNL     1      25.652   3.690  52.658  1.00  0.00     0.159 HD
BRANCH   9  11
HETATM   11  C5  UNL     1      26.749   1.918  52.369  1.00  0.00     0.027 A 
HETATM   12  C4  UNL     1      26.458   0.568  52.157  1.00  0.00     0.029 A 
HETATM   13  C3  UNL     1      27.335  -0.398  52.605  1.00  0.00     0.009 A 
HETATM   14  C2  UNL     1      28.498  -0.061  53.261  1.00  0.00    -0.062 A 
HETATM   15  C1  UNL     1      29.455  -1.115  53.751  1.00  0.00     0.048 C 
HETATM   16  C18 UNL     1      28.855   1.270  53.511  1.00  0.00     0.009 A 
HETATM   17  C17 UNL     1      27.927   2.171  53.032  1.00  0.00     0.029 A 
ENDBRANCH   9  11
ENDBRANCH   8   9
ENDBRANCH   7   8
ENDBRANCH   1   7
BRANCH   3  18
HETATM   18  N2  UNL     1      29.483   6.503  47.808  1.00  0.00    -0.383 N 
HETATM   19  C11 UNL     1      29.632   7.548  46.820  1.00  0.00     0.149 C 
BRANCH  18  20
HETATM   20  C12 UNL     1      30.652   5.858  48.360  1.00  0.00     0.137 C 
BRANCH  20  21
HETATM   21  C13 UNL     1      31.407   6.804  49.279  1.00  0.00     0.134 C 
HETATM   22 CL1  UNL     1      32.875   7.345  48.471  1.00  0.00    -0.129 Cl
ENDBRANCH  20  21
ENDBRANCH  18  20
ENDBRANCH   3  18
TORSDOF 7
ENDMDL
MODEL 4
REMARK VINA RESULT:      -6.8      3.468      7.379
REMARK  7 active torsions:
REMARK  status: ('A' for Active; 'I' for Inactive)
REMARK    1  A    between atoms: C5_5  and  N1_6 
REMARK    2  A    between atoms: N1_6  and  C6_7 
REMARK    3  A    between atoms: C6_7  and  C7_8 
REMARK    4  A    between atoms: C7_8  and  C8_9 
REMARK    5  A    between atoms: C10_11  and  N2_12 
REMARK    6  A    between atoms: N2_12  and  C12_14 
REMARK    7  A    between atoms: C12_14  and  C13_15 
ROOT
HETATM    1  C8  UNL     1      27.618   5.858  48.466  1.00  0.00    -0.073 C 
HETATM    2  C9  UNL     1      28.794   5.224  48.360  1.00  0.00     0.033 C 
HETATM    3  C10 UNL     1      29.905   5.952  47.812  1.00  0.00     0.041 C 
HETATM    4  C14 UNL     1      29.776   7.093  47.200  1.00  0.00    -0.001 C 
HETATM    5  C15 UNL     1      28.586   7.591  47.049  1.00  0.00    -0.008 C 
HETATM    6  C16 UNL     1      27.490   7.271  48.024  1.00  0.00     0.062 C 
ENDROOT
BRANCH   1   7
HETATM    7  C7  UNL     1      26.452   5.136  49.027  1.00  0.00     0.054 C 
BRANCH   7   8
HETATM    8  C6  UNL     1      26.699   3.688  49.307  1.00  0.00     0.124 C 
BRANCH   8   9
HETATM    9  N1  UNL     1      26.694   3.522  50.766  1.00  0.00    -0.390 N 
HETATM   10  H6  UNL     1      27.268   4.166  51.386  1.00  0.00     0.159 HD
BRANCH   9  11
HETATM   11  C5  UNL     1      25.953   2.525  51.452  1.00  0.00     0.027 A 
HETATM   12  C4  UNL     1      24.605   2.695  51.775  1.00  0.00     0.029 A 
HETATM   13  C3  UNL     1      23.931   1.694  52.442  1.00  0.00     0.009 A 
HETATM   14  C2  UNL     1      24.560   0.522  52.800  1.00  0.00    -0.062 A 
HETATM   15  C1  UNL     1      23.825  -0.571  53.529  1.00  0.00     0.048 C 
HETATM   16  C18 UNL     1      25.909   0.281  52.512  1.00  0.00     0.009 A 
HETATM   17  C17 UNL     1      26.508   1.329  51.845  1.00  0.00     0.029 A 
ENDBRANCH   9  11
ENDBRANCH   8   9
ENDBRANCH   7   8
ENDBRANCH   1   7
BRANCH   3  18
HETATM   18  N2  UNL     1      31.181   5.328  47.985  1.00  0.00    -0.383 N 
HETATM   19  C11 UNL     1      31.927   5.782  49.137  1.00  0.00     0.149 C 
BRANCH  18  20
HETATM   20  C12 UNL     1      31.738   4.319  47.114  1.00  0.00     0.137 C 
BRANCH  20  21
HETATM   21  C13 UNL     1      32.801   3.510  47.838  1.00  0.00     0.134 C 
HETATM   22 CL1  UNL     1      32.833   1.877  47.177  1.00  0.00    -0.129 Cl
ENDBRANCH  20  21
ENDBRANCH  18  20
ENDBRANCH   3  18
TORSDOF 7
ENDMDL
MODEL 5
REMARK VINA RESULT:      -6.8      2.637      5.373
REMARK  7 active torsions:
REMARK  status: ('A' for Active; 'I' for Inactive)
REMARK    1  A    between atoms: C5_5  and  N1_6 
REMARK    2  A    between atoms: N1_6  and  C6_7 
REMARK    3  A    between atoms: C6_7  and  C7_8 
REMARK    4  A    between atoms: C7_8  and  C8_9 
REMARK    5  A    between atoms: C10_11  and  N2_12 
REMARK    6  A    between atoms: N2_12  and  C12_14 
REMARK    7  A    between atoms: C12_14  and  C13_15 
ROOT
HETATM    1  C8  UNL     1      23.015   2.182  51.729  1.00  0.00    -0.073 C 
HETATM    2  C9  UNL     1      22.256   1.684  52.716  1.00  0.00     0.033 C 
HETATM    3  C10 UNL     1      21.312   0.652  52.386  1.00  0.00     0.041 C 
HETATM    4  C14 UNL     1      20.988   0.349  51.162  1.00  0.00    -0.001 C 
HETATM    5  C15 UNL     1      21.517   1.027  50.189  1.00  0.00    -0.008 C 
HETATM    6  C16 UNL     1      22.867   1.666  50.344  1.00  0.00     0.062 C 
ENDROOT
BRANCH   1   7
HETATM    7  C7  UNL     1      23.998   3.246  52.037  1.00  0.00     0.054 C 
BRANCH   7   8
HETATM    8  C6  UNL     1      24.895   3.606  50.895  1.00  0.00     0.124 C 
BRANCH   8   9
HETATM    9  N1  UNL     1      26.278   3.455  51.366  1.00  0.00    -0.390 N 
HETATM   10  H6  UNL     1      26.958   4.269  51.316  1.00  0.00     0.159 HD
BRANCH   9  11
HETATM   11  C5  UNL     1      26.808   2.256  51.909  1.00  0.00     0.027 A 
HETATM   12  C4  UNL     1      27.814   2.263  52.879  1.00  0.00     0.029 A 
HETATM   13  C3  UNL     1      28.294   1.069  53.374  1.00  0.00     0.009 A 
HETATM   14  C2  UNL     1      27.802  -0.139  52.931  1.00  0.00    -0.062 A 
HETATM   15  C1  UNL     1      28.326  -1.444  53.470  1.00  0.00     0.048 C 
HETATM   16  C18 UNL     1      26.796  -0.225  51.961  1.00  0.00     0.009 A 
HETATM   17  C17 UNL     1      26.372   1.011  51.520  1.00  0.00     0.029 A 
ENDBRANCH   9  11
ENDBRANCH   8   9
ENDBRANCH   7   8
ENDBRANCH   1   7
BRANCH   3  18
HETATM   18  N2  UNL     1      20.743  -0.029  53.507  1.00  0.00    -0.383 N 
HETATM   19  C11 UNL     1      19.429  -0.585  53.277  1.00  0.00     0.149 C 
BRANCH  18  20
HETATM   20  C12 UNL     1      21.379  -0.185  54.795  1.00  0.00     0.137 C 
BRANCH  20  21
HETATM   21  C13 UNL     1      22.327  -1.372  54.789  1.00  0.00     0.134 C 
HETATM   22 CL1  UNL     1      23.953  -0.810  54.409  1.00  0.00    -0.129 Cl
ENDBRANCH  20  21
ENDBRANCH  18  20
ENDBRANCH   3  18
TORSDOF 7
ENDMDL
MODEL 6
REMARK VINA RESULT:      -6.7      3.107      7.469
REMARK  7 active torsions:
REMARK  status: ('A' for Active; 'I' for Inactive)
REMARK    1  A    between atoms: C5_5  and  N1_6 
REMARK    2  A    between atoms: N1_6  and  C6_7 
REMARK    3  A    between atoms: C6_7  and  C7_8 
REMARK    4  A    between atoms: C7_8  and  C8_9 
REMARK    5  A    between atoms: C10_11  and  N2_12 
REMARK    6  A    between atoms: N2_12  and  C12_14 
REMARK    7  A    between atoms: C12_14  and  C13_15 
ROOT
HETATM    1  C8  UNL     1      26.434   4.360  49.493  1.00  0.00    -0.073 C 
HETATM    2  C9  UNL     1      25.387   5.181  49.655  1.00  0.00     0.033 C 
HETATM    3  C10 UNL     1      25.404   6.441  48.962  1.00  0.00     0.041 C 
HETATM    4  C14 UNL     1      26.468   6.923  48.389  1.00  0.00    -0.001 C 
HETATM    5  C15 UNL     1      27.578   6.254  48.467  1.00  0.00    -0.008 C 
HETATM    6  C16 UNL     1      27.566   4.760  48.617  1.00  0.00     0.062 C 
ENDROOT
BRANCH   1   7
HETATM    7  C7  UNL     1      26.448   3.055  50.193  1.00  0.00     0.054 C 
BRANCH   7   8
HETATM    8  C6  UNL     1      25.354   2.883  51.199  1.00  0.00     0.124 C 
BRANCH   8   9
HETATM    9  N1  UNL     1      25.991   2.771  52.517  1.00  0.00    -0.390 N 
HETATM   10  H6  UNL     1      25.727   3.435  53.303  1.00  0.00     0.159 HD
BRANCH   9  11
HETATM   11  C5  UNL     1      26.978   1.806  52.846  1.00  0.00     0.027 A 
HETATM   12  C4  UNL     1      28.204   2.163  53.413  1.00  0.00     0.029 A 
HETATM   13  C3  UNL     1      29.128   1.185  53.713  1.00  0.00     0.009 A 
HETATM   14  C2  UNL     1      28.870  -0.145  53.466  1.00  0.00    -0.062 A 
HETATM   15  C1  UNL     1      29.879  -1.214  53.793  1.00  0.00     0.048 C 
HETATM   16  C18 UNL     1      27.665  -0.579  52.899  1.00  0.00     0.009 A 
HETATM   17  C17 UNL     1      26.798   0.459  52.630  1.00  0.00     0.029 A 
ENDBRANCH   9  11
ENDBRANCH   8   9
ENDBRANCH   7   8
ENDBRANCH   1   7
BRANCH   3  18
HETATM   18  N2  UNL     1      24.156   7.138  48.946  1.00  0.00    -0.383 N 
HETATM   19  C11 UNL     1      24.255   8.565  49.156  1.00  0.00     0.149 C 
BRANCH  18  20
HETATM   20  C12 UNL     1      22.863   6.526  48.740  1.00  0.00     0.137 C 
BRANCH  20  21
HETATM   21  C13 UNL     1      22.746   5.977  47.328  1.00  0.00     0.134 C 
HETATM   22 CL1  UNL     1      22.479   4.237  47.406  1.00  0.00    -0.129 Cl
ENDBRANCH  20  21
ENDBRANCH  18  20
ENDBRANCH   3  18
TORSDOF 7
ENDMDL
MODEL 7
REMARK VINA RESULT:      -6.5      3.482      7.567
REMARK  7 active torsions:
REMARK  status: ('A' for Active; 'I' for Inactive)
REMARK    1  A    between atoms: C5_5  and  N1_6 
REMARK    2  A    between atoms: N1_6  and  C6_7 
REMARK    3  A    between atoms: C6_7  and  C7_8 
REMARK    4  A    between atoms: C7_8  and  C8_9 
REMARK    5  A    between atoms: C10_11  and  N2_12 
REMARK    6  A    between atoms: N2_12  and  C12_14 
REMARK    7  A    between atoms: C12_14  and  C13_15 
ROOT
HETATM    1  C8  UNL     1      26.779   4.629  49.087  1.00  0.00    -0.073 C 
HETATM    2  C9  UNL     1      27.999   4.874  48.589  1.00  0.00     0.033 C 
HETATM    3  C10 UNL     1      28.297   6.215  48.165  1.00  0.00     0.041 C 
HETATM    4  C14 UNL     1      27.386   7.133  48.017  1.00  0.00    -0.001 C 
HETATM    5  C15 UNL     1      26.144   6.822  48.232  1.00  0.00    -0.008 C 
HETATM    6  C16 UNL     1      25.782   5.724  49.190  1.00  0.00     0.062 C 
ENDROOT
BRANCH   1   7
HETATM    7  C7  UNL     1      26.440   3.257  49.533  1.00  0.00     0.054 C 
BRANCH   7   8
HETATM    8  C6  UNL     1      25.762   3.191  50.865  1.00  0.00     0.124 C 
BRANCH   8   9
HETATM    9  N1  UNL     1      24.495   2.475  50.671  1.00  0.00    -0.390 N 
HETATM   10  H6  UNL     1      23.913   2.633  49.797  1.00  0.00     0.159 HD
BRANCH   9  11
HETATM   11  C5  UNL     1      23.955   1.546  51.597  1.00  0.00     0.027 A 
HETATM   12  C4  UNL     1      24.751   0.891  52.540  1.00  0.00     0.029 A 
HETATM   13  C3  UNL     1      24.176  -0.002  53.418  1.00  0.00     0.009 A 
HETATM   14  C2  UNL     1      22.825  -0.268  53.387  1.00  0.00    -0.062 A 
HETATM   15  C1  UNL     1      22.195  -1.245  54.345  1.00  0.00     0.048 C 
HETATM   16  C18 UNL     1      21.964   0.349  52.470  1.00  0.00     0.009 A 
HETATM   17  C17 UNL     1      22.617   1.226  51.631  1.00  0.00     0.029 A 
ENDBRANCH   9  11
ENDBRANCH   8   9
ENDBRANCH   7   8
ENDBRANCH   1   7
BRANCH   3  18
HETATM   18  N2  UNL     1      29.680   6.477  47.914  1.00  0.00    -0.383 N 
HETATM   19  C11 UNL     1      30.515   5.300  47.830  1.00  0.00     0.149 C 
BRANCH  18  20
HETATM   20  C12 UNL     1      30.261   7.789  47.747  1.00  0.00     0.137 C 
BRANCH  20  21
HETATM   21  C13 UNL     1      30.880   8.274  49.047  1.00  0.00     0.134 C 
HETATM   22 CL1  UNL     1      30.082   9.763  49.546  1.00  0.00    -0.129 Cl
ENDBRANCH  20  21
ENDBRANCH  18  20
ENDBRANCH   3  18
TORSDOF 7
ENDMDL
MODEL 8
REMARK VINA RESULT:      -6.4      3.615      7.757
REMARK  7 active torsions:
REMARK  status: ('A' for Active; 'I' for Inactive)
REMARK    1  A    between atoms: C5_5  and  N1_6 
REMARK    2  A    between atoms: N1_6  and  C6_7 
REMARK    3  A    between atoms: C6_7  and  C7_8 
REMARK    4  A    between atoms: C7_8  and  C8_9 
REMARK    5  A    between atoms: C10_11  and  N2_12 
REMARK    6  A    between atoms: N2_12  and  C12_14 
REMARK    7  A    between atoms: C12_14  and  C13_15 
ROOT
HETATM    1  C8  UNL     1      25.957   5.010  49.686  1.00  0.00    -0.073 C 
HETATM    2  C9  UNL     1      25.904   6.338  49.510  1.00  0.00     0.033 C 
HETATM    3  C10 UNL     1      26.860   6.940  48.622  1.00  0.00     0.041 C 
HETATM    4  C14 UNL     1      27.908   6.312  48.174  1.00  0.00    -0.001 C 
HETATM    5  C15 UNL     1      28.123   5.093  48.568  1.00  0.00    -0.008 C 
HETATM    6  C16 UNL     1      26.982   4.205  48.974  1.00  0.00     0.062 C 
ENDROOT
BRANCH   1   7
HETATM    7  C7  UNL     1      24.986   4.359  50.596  1.00  0.00     0.054 C 
BRANCH   7   8
HETATM    8  C6  UNL     1      25.226   2.899  50.813  1.00  0.00     0.124 C 
BRANCH   8   9
HETATM    9  N1  UNL     1      25.735   2.742  52.181  1.00  0.00    -0.390 N 
HETATM   10  H6  UNL     1      25.388   3.371  52.963  1.00  0.00     0.159 HD
BRANCH   9  11
HETATM   11  C5  UNL     1      26.699   1.774  52.566  1.00  0.00     0.027 A 
HETATM   12  C4  UNL     1      26.479   0.404  52.405  1.00  0.00     0.029 A 
HETATM   13  C3  UNL     1      27.450  -0.494  52.795  1.00  0.00     0.009 A 
HETATM   14  C2  UNL     1      28.639  -0.070  53.345  1.00  0.00    -0.062 A 
HETATM   15  C1  UNL     1      29.699  -1.051  53.773  1.00  0.00     0.048 C 
HETATM   16  C18 UNL     1      28.930   1.286  53.539  1.00  0.00     0.009 A 
HETATM   17  C17 UNL     1      27.910   2.115  53.122  1.00  0.00     0.029 A 
ENDBRANCH   9  11
ENDBRANCH   8   9
ENDBRANCH   7   8
ENDBRANCH   1   7
BRANCH   3  18
HETATM   18  N2  UNL     1      26.579   8.293  48.257  1.00  0.00    -0.383 N 
HETATM   19  C11 UNL     1      27.427   9.280  48.887  1.00  0.00     0.149 C 
BRANCH  18  20
HETATM   20  C12 UNL     1      25.543   8.710  47.339  1.00  0.00     0.137 C 
BRANCH  20  21
HETATM   21  C13 UNL     1      24.637   9.746  47.982  1.00  0.00     0.134 C 
HETATM   22 CL1  UNL     1      23.435   8.925  48.974  1.00  0.00    -0.129 Cl
ENDBRANCH  20  21
ENDBRANCH  18  20
ENDBRANCH   3  18
TORSDOF 7
ENDMDL
MODEL 9
REMARK VINA RESULT:      -6.4      3.015      5.440
REMARK  7 active torsions:
REMARK  status: ('A' for Active; 'I' for Inactive)
REMARK    1  A    between atoms: C5_5  and  N1_6 
REMARK    2  A    between atoms: N1_6  and  C6_7 
REMARK    3  A    between atoms: C6_7  and  C7_8 
REMARK    4  A    between atoms: C7_8  and  C8_9 
REMARK    5  A    between atoms: C10_11  and  N2_12 
REMARK    6  A    between atoms: N2_12  and  C12_14 
REMARK    7  A    between atoms: C12_14  and  C13_15 
ROOT
HETATM    1  C8  UNL     1      24.898   2.092  52.434  1.00  0.00    -0.073 C 
HETATM    2  C9  UNL     1      24.018   1.185  52.881  1.00  0.00     0.033 C 
HETATM    3  C10 UNL     1      24.521  -0.098  53.289  1.00  0.00     0.041 C 
HETATM    4  C14 UNL     1      25.729  -0.505  53.028  1.00  0.00    -0.001 C 
HETATM    5  C15 UNL     1      26.514   0.268  52.341  1.00  0.00    -0.008 C 
HETATM    6  C16 UNL     1      26.345   1.760  52.374  1.00  0.00     0.062 C 
ENDROOT
BRANCH   1   7
HETATM    7  C7  UNL     1      24.413   3.425  52.006  1.00  0.00     0.054 C 
BRANCH   7   8
HETATM    8  C6  UNL     1      24.268   3.582  50.525  1.00  0.00     0.124 C 
BRANCH   8   9
HETATM    9  N1  UNL     1      22.836   3.736  50.243  1.00  0.00    -0.390 N 
HETATM   10  H6  UNL     1      22.471   4.609  49.759  1.00  0.00     0.159 HD
BRANCH   9  11
HETATM   11  C5  UNL     1      21.849   2.773  50.579  1.00  0.00     0.027 A 
HETATM   12  C4  UNL     1      21.885   1.470  50.078  1.00  0.00     0.029 A 
HETATM   13  C3  UNL     1      20.902   0.573  50.437  1.00  0.00     0.009 A 
HETATM   14  C2  UNL     1      19.877   0.934  51.284  1.00  0.00    -0.062 A 
HETATM   15  C1  UNL     1      18.802  -0.045  51.676  1.00  0.00     0.048 C 
HETATM   16  C18 UNL     1      19.775   2.222  51.825  1.00  0.00     0.009 A 
HETATM   17  C17 UNL     1      20.795   3.054  51.417  1.00  0.00     0.029 A 
ENDBRANCH   9  11
ENDBRANCH   8   9
ENDBRANCH   7   8
ENDBRANCH   1   7
BRANCH   3  18
HETATM   18  N2  UNL     1      23.591  -0.910  54.012  1.00  0.00    -0.383 N 
HETATM   19  C11 UNL     1      24.003  -1.258  55.353  1.00  0.00     0.149 C 
BRANCH  18  20
HETATM   20  C12 UNL     1      22.324  -1.378  53.500  1.00  0.00     0.137 C 
BRANCH  20  21
HETATM   21  C13 UNL     1      21.242  -1.273  54.561  1.00  0.00     0.134 C 
HETATM   22 CL1  UNL     1      20.791   0.418  54.760  1.00  0.00    -0.129 Cl
ENDBRANCH  20  21
ENDBRANCH  18  20
ENDBRANCH   3  18
TORSDOF 7
ENDMDL
