MODEL 1
REMARK VINA RESULT:      -8.9      0.000      0.000
REMARK  7 active torsions:
REMARK  status: ('A' for Active; 'I' for Inactive)
REMARK    1  A    between atoms: N2_5  and  C4_6 
REMARK    2  A    between atoms: C4_6  and  C5_7 
REMARK    3  A    between atoms: C5_7  and  C6_8 
REMARK    4  A    between atoms: C7_9  and  C8_10 
REMARK    5  A    between atoms: C8_10  and  N3_11 
REMARK    6  A    between atoms: N3_11  and  C9_12 
REMARK    7  A    between atoms: N6_20  and  C15_21 
ROOT
HETATM    1  C9  UNL     1      24.801   2.819  50.818  1.00  0.00     0.100 A 
HETATM    2  C10 UNL     1      25.242   1.906  51.681  1.00  0.00     0.091 A 
HETATM    3  C11 UNL     1      24.260   1.132  52.597  1.00  0.00     0.351 A 
HETATM    4  C12 UNL     1      22.949   0.802  53.111  1.00  0.00     0.553 A 
HETATM    5  C13 UNL     1      23.181   1.629  52.243  1.00  0.00     0.364 A 
HETATM    6  N4  UNL     1      23.764   0.827  52.982  1.00  0.00     0.220 N 
HETATM    7  N5  UNL     1      24.058  -0.118  53.903  1.00  0.00     0.222 N 
HETATM    8  C14 UNL     1      24.229  -1.151  54.930  1.00  0.00     0.345 C 
HETATM    9  N6  UNL     1      25.257   0.305  53.311  1.00  0.00    -0.132 N 
HETATM   10  N7  UNL     1      23.460   2.603  51.219  1.00  0.00    -0.334 N 
HETATM   11  H23 UNL     1      22.518   2.929  51.020  1.00  0.00     0.164 HD
ENDROOT
BRANCH   1  12
HETATM   12  N3  UNL     1      25.001   3.737  49.884  1.00  0.00    -0.366 N 
HETATM   13  H14 UNL     1      24.158   4.337  49.884  1.00  0.00     0.162 HD
BRANCH  12  14
HETATM   14  C8  UNL     1      26.300   3.344  49.408  1.00  0.00     0.215 C 
BRANCH  14  15
HETATM   15  C7  UNL     1      27.024   4.532  48.933  1.00  0.00    -0.087 C 
HETATM   16  C6  UNL     1      27.629   5.497  48.559  1.00  0.00    -0.103 C 
BRANCH  16  17
HETATM   17  C5  UNL     1      28.377   6.653  48.125  1.00  0.00     0.113 C 
BRANCH  17  18
HETATM   18  C4  UNL     1      29.785   6.314  47.789  1.00  0.00     0.129 C 
BRANCH  18  19
HETATM   19  N2  UNL     1      30.755   7.038  48.573  1.00  0.00    -0.408 N 
HETATM   20  C3  UNL     1      31.265   8.204  47.964  1.00  0.00     0.147 C 
HETATM   21  C2  UNL     1      32.735   8.184  47.641  1.00  0.00     0.291 C 
HETATM   22  N1  UNL     1      33.525   7.661  48.748  1.00  0.00     0.087 N 
HETATM   23  C1  UNL     1      34.895   7.562  48.211  1.00  0.00     0.310 C 
HETATM   24  C22 UNL     1      33.078   6.291  48.938  1.00  0.00     0.291 C 
HETATM   25  C21 UNL     1      31.633   6.249  49.349  1.00  0.00     0.147 C 
ENDBRANCH  18  19
ENDBRANCH  17  18
ENDBRANCH  16  17
ENDBRANCH  14  15
ENDBRANCH  12  14
ENDBRANCH   1  12
BRANCH   9  26
HETATM   26  C15 UNL     1      26.666   0.015  53.453  1.00  0.00     0.065 A 
HETATM   27  C16 UNL     1      27.206  -1.195  52.986  1.00  0.00     0.034 A 
HETATM   28  C17 UNL     1      28.546  -1.417  53.117  1.00  0.00     0.046 A 
HETATM   29  C18 UNL     1      29.249  -0.402  53.711  1.00  0.00     0.138 A 
HETATM   30  F1  UNL     1      30.583  -0.613  53.845  1.00  0.00    -0.204 F 
HETATM   31  C19 UNL     1      28.787   0.801  54.188  1.00  0.00     0.074 A 
HETATM   32 CL1  UNL     1      29.819   2.001  54.925  1.00  0.00    -0.081 Cl
HETATM   33  C20 UNL     1      27.443   1.025  54.057  1.00  0.00     0.058 A 
ENDBRANCH   9  26
TORSDOF 7
ENDMDL
MODEL 2
REMARK VINA RESULT:      -8.9      1.129      1.785
REMARK  7 active torsions:
REMARK  status: ('A' for Active; 'I' for Inactive)
REMARK    1  A    between atoms: N2_5  and  C4_6 
REMARK    2  A    between atoms: C4_6  and  C5_7 
REMARK    3  A    between atoms: C5_7  and  C6_8 
REMARK    4  A    between atoms: C7_9  and  C8_10 
REMARK    5  A    between atoms: C8_10  and  N3_11 
REMARK    6  A    between atoms: N3_11  and  C9_12 
REMARK    7  A    between atoms: N6_20  and  C15_21 
ROOT
HETATM    1  C9  UNL     1      23.418   2.094  51.101  1.00  0.00     0.100 A 
HETATM    2  C10 UNL     1      24.027   1.247  51.930  1.00  0.00     0.091 A 
HETATM    3  C11 UNL     1      23.241   0.524  53.053  1.00  0.00     0.351 A 
HETATM    4  C12 UNL     1      22.049   0.212  53.811  1.00  0.00     0.553 A 
HETATM    5  C13 UNL     1      22.105   0.981  52.865  1.00  0.00     0.364 A 
HETATM    6  N4  UNL     1      22.828   0.239  53.538  1.00  0.00     0.220 N 
HETATM    7  N5  UNL     1      23.303  -0.638  54.451  1.00  0.00     0.222 N 
HETATM    8  C14 UNL     1      23.677  -1.597  55.496  1.00  0.00     0.345 C 
HETATM    9  N6  UNL     1      24.368  -0.240  53.630  1.00  0.00    -0.132 N 
HETATM   10  N7  UNL     1      22.174   1.888  51.747  1.00  0.00    -0.334 N 
HETATM   11  H23 UNL     1      21.205   2.187  51.697  1.00  0.00     0.164 HD
ENDROOT
BRANCH   1  12
HETATM   12  N3  UNL     1      23.428   2.949  50.090  1.00  0.00    -0.366 N 
HETATM   13  H14 UNL     1      22.933   2.479  49.311  1.00  0.00     0.162 HD
BRANCH  12  14
HETATM   14  C8  UNL     1      24.139   4.047  50.686  1.00  0.00     0.215 C 
BRANCH  14  15
HETATM   15  C7  UNL     1      25.373   4.296  49.926  1.00  0.00    -0.087 C 
HETATM   16  C6  UNL     1      26.385   4.514  49.321  1.00  0.00    -0.103 C 
BRANCH  16  17
HETATM   17  C5  UNL     1      27.608   4.795  48.608  1.00  0.00     0.113 C 
BRANCH  17  18
HETATM   18  C4  UNL     1      27.844   6.255  48.456  1.00  0.00     0.129 C 
BRANCH  18  19
HETATM   19  N2  UNL     1      29.050   6.573  47.734  1.00  0.00    -0.408 N 
HETATM   20  C3  UNL     1      30.077   5.611  47.833  1.00  0.00     0.147 C 
HETATM   21  C2  UNL     1      31.334   6.065  48.528  1.00  0.00     0.291 C 
HETATM   22  N1  UNL     1      31.755   7.384  48.075  1.00  0.00     0.087 N 
HETATM   23  C1  UNL     1      32.884   7.734  48.956  1.00  0.00     0.310 C 
HETATM   24  C22 UNL     1      30.677   8.288  48.438  1.00  0.00     0.291 C 
HETATM   25  C21 UNL     1      29.412   7.939  47.708  1.00  0.00     0.147 C 
ENDBRANCH  18  19
ENDBRANCH  17  18
ENDBRANCH  16  17
ENDBRANCH  14  15
ENDBRANCH  12  14
ENDBRANCH   1  12
BRANCH   9  26
HETATM   26  C15 UNL     1      25.786  -0.501  53.538  1.00  0.00     0.065 A 
HETATM   27  C16 UNL     1      26.276  -1.583  52.788  1.00  0.00     0.034 A 
HETATM   28  C17 UNL     1      27.624  -1.778  52.707  1.00  0.00     0.046 A 
HETATM   29  C18 UNL     1      28.386  -0.867  53.391  1.00  0.00     0.138 A 
HETATM   30  F1  UNL     1      29.728  -1.052  53.316  1.00  0.00    -0.204 F 
HETATM   31  C19 UNL     1      27.976   0.209  54.140  1.00  0.00     0.074 A 
HETATM   32 CL1  UNL     1      29.080   1.287  54.957  1.00  0.00    -0.081 Cl
HETATM   33  C20 UNL     1      26.624   0.406  54.221  1.00  0.00     0.058 A 
ENDBRANCH   9  26
TORSDOF 7
ENDMDL
MODEL 3
REMARK VINA RESULT:      -8.9      1.353      1.890
REMARK  7 active torsions:
REMARK  status: ('A' for Active; 'I' for Inactive)
REMARK    1  A    between atoms: N2_5  and  C4_6 
REMARK    2  A    between atoms: C4_6  and  C5_7 
REMARK    3  A    between atoms: C5_7  and  C6_8 
REMARK    4  A    between atoms: C7_9  and  C8_10 
REMARK    5  A    between atoms: C8_10  and  N3_11 
REMARK    6  A    between atoms: N3_11  and  C9_12 
REMARK    7  A    between atoms: N6_20  and  C15_21 
ROOT
HETATM    1  C9  UNL     1      24.607   2.733  50.708  1.00  0.00     0.100 A 
HETATM    2  C10 UNL     1      25.038   1.826  51.582  1.00  0.00     0.091 A 
HETATM    3  C11 UNL     1      24.049   1.091  52.523  1.00  0.00     0.351 A 
HETATM    4  C12 UNL     1      22.738   0.800  53.057  1.00  0.00     0.553 A 
HETATM    5  C13 UNL     1      22.978   1.606  52.173  1.00  0.00     0.364 A 
HETATM    6  N4  UNL     1      23.552   0.804  52.919  1.00  0.00     0.220 N 
HETATM    7  N5  UNL     1      23.835  -0.131  53.854  1.00  0.00     0.222 N 
HETATM    8  C14 UNL     1      23.995  -1.149  54.897  1.00  0.00     0.345 C 
HETATM    9  N6  UNL     1      25.036   0.255  53.240  1.00  0.00    -0.132 N 
HETATM   10  N7  UNL     1      23.266   2.555  51.128  1.00  0.00    -0.334 N 
HETATM   11  H23 UNL     1      22.330   2.898  50.933  1.00  0.00     0.164 HD
ENDROOT
BRANCH   1  12
HETATM   12  N3  UNL     1      24.816   3.629  49.755  1.00  0.00    -0.366 N 
HETATM   13  H14 UNL     1      23.884   3.995  49.493  1.00  0.00     0.162 HD
BRANCH  12  14
HETATM   14  C8  UNL     1      26.248   3.559  49.643  1.00  0.00     0.215 C 
BRANCH  14  15
HETATM   15  C7  UNL     1      26.750   4.798  49.031  1.00  0.00    -0.087 C 
HETATM   16  C6  UNL     1      27.140   5.817  48.534  1.00  0.00    -0.103 C 
BRANCH  16  17
HETATM   17  C5  UNL     1      27.586   7.054  47.938  1.00  0.00     0.113 C 
BRANCH  17  18
HETATM   18  C4  UNL     1      29.069   7.150  47.896  1.00  0.00     0.129 C 
BRANCH  18  19
HETATM   19  N2  UNL     1      29.617   8.063  48.868  1.00  0.00    -0.408 N 
HETATM   20  C3  UNL     1      28.744   9.092  49.279  1.00  0.00     0.147 C 
HETATM   21  C2  UNL     1      29.168  10.491  48.919  1.00  0.00     0.291 C 
HETATM   22  N1  UNL     1      30.579  10.718  49.203  1.00  0.00     0.087 N 
HETATM   23  C1  UNL     1      30.857  12.057  48.651  1.00  0.00     0.310 C 
HETATM   24  C22 UNL     1      31.306   9.786  48.357  1.00  0.00     0.291 C 
HETATM   25  C21 UNL     1      30.990   8.365  48.727  1.00  0.00     0.147 C 
ENDBRANCH  18  19
ENDBRANCH  17  18
ENDBRANCH  16  17
ENDBRANCH  14  15
ENDBRANCH  12  14
ENDBRANCH   1  12
BRANCH   9  26
HETATM   26  C15 UNL     1      26.439  -0.064  53.372  1.00  0.00     0.065 A 
HETATM   27  C16 UNL     1      26.953  -1.281  52.892  1.00  0.00     0.034 A 
HETATM   28  C17 UNL     1      28.289  -1.530  53.013  1.00  0.00     0.046 A 
HETATM   29  C18 UNL     1      29.015  -0.534  53.612  1.00  0.00     0.138 A 
HETATM   30  F1  UNL     1      30.345  -0.773  53.737  1.00  0.00    -0.204 F 
HETATM   31  C19 UNL     1      28.580   0.673  54.102  1.00  0.00     0.074 A 
HETATM   32 CL1  UNL     1      29.640   1.846  54.843  1.00  0.00    -0.081 Cl
HETATM   33  C20 UNL     1      27.240   0.925  53.980  1.00  0.00     0.058 A 
ENDBRANCH   9  26
TORSDOF 7
ENDMDL
MODEL 4
REMARK VINA RESULT:      -8.7      1.653      2.535
REMARK  7 active torsions:
REMARK  status: ('A' for Active; 'I' for Inactive)
REMARK    1  A    between atoms: N2_5  and  C4_6 
REMARK    2  A    between atoms: C4_6  and  C5_7 
REMARK    3  A    between atoms: C5_7  and  C6_8 
REMARK    4  A    between atoms: C7_9  and  C8_10 
REMARK    5  A    between atoms: C8_10  and  N3_11 
REMARK    6  A    between atoms: N3_11  and  C9_12 
REMARK    7  A    between atoms: N6_20  and  C15_21 
ROOT
HETATM    1  C9  UNL     1      26.721   3.814  49.480  1.00  0.00     0.100 A 
HETATM    2  C10 UNL     1      26.548   2.945  50.473  1.00  0.00     0.091 A 
HETATM    3  C11 UNL     1      25.129   2.581  50.980  1.00  0.00     0.351 A 
HETATM    4  C12 UNL     1      23.686   2.673  50.976  1.00  0.00     0.553 A 
HETATM    5  C13 UNL     1      24.435   3.286  50.233  1.00  0.00     0.364 A 
HETATM    6  N4  UNL     1      24.465   2.469  51.161  1.00  0.00     0.220 N 
HETATM    7  N5  UNL     1      24.131   1.614  52.153  1.00  0.00     0.222 N 
HETATM    8  C14 UNL     1      23.625   0.722  53.201  1.00  0.00     0.345 C 
HETATM    9  N6  UNL     1      25.529   1.630  52.039  1.00  0.00    -0.132 N 
HETATM   10  N7  UNL     1      25.323   4.008  49.358  1.00  0.00    -0.334 N 
HETATM   11  H23 UNL     1      24.648   4.535  48.811  1.00  0.00     0.164 HD
ENDROOT
BRANCH   1  12
HETATM   12  N3  UNL     1      27.491   4.514  48.660  1.00  0.00    -0.366 N 
HETATM   13  H14 UNL     1      28.219   3.861  48.321  1.00  0.00     0.162 HD
BRANCH  12  14
HETATM   14  C8  UNL     1      26.847   5.798  48.732  1.00  0.00     0.215 C 
BRANCH  14  15
HETATM   15  C7  UNL     1      27.771   6.833  48.248  1.00  0.00    -0.087 C 
HETATM   16  C6  UNL     1      28.509   7.691  47.851  1.00  0.00    -0.103 C 
BRANCH  16  17
HETATM   17  C5  UNL     1      29.377   8.739  47.369  1.00  0.00     0.113 C 
BRANCH  17  18
HETATM   18  C4  UNL     1      30.326   9.204  48.416  1.00  0.00     0.129 C 
BRANCH  18  19
HETATM   19  N2  UNL     1      31.550   8.444  48.464  1.00  0.00    -0.408 N 
HETATM   20  C3  UNL     1      32.017   7.985  47.215  1.00  0.00     0.147 C 
HETATM   21  C2  UNL     1      32.043   6.490  47.036  1.00  0.00     0.291 C 
HETATM   22  N1  UNL     1      32.604   5.816  48.200  1.00  0.00     0.087 N 
HETATM   23  C1  UNL     1      32.408   4.380  47.927  1.00  0.00     0.310 C 
HETATM   24  C22 UNL     1      31.714   6.131  49.305  1.00  0.00     0.291 C 
HETATM   25  C21 UNL     1      31.712   7.606  49.590  1.00  0.00     0.147 C 
ENDBRANCH  18  19
ENDBRANCH  17  18
ENDBRANCH  16  17
ENDBRANCH  14  15
ENDBRANCH  12  14
ENDBRANCH   1  12
BRANCH   9  26
HETATM   26  C15 UNL     1      26.650   1.009  52.706  1.00  0.00     0.065 A 
HETATM   27  C16 UNL     1      27.462   1.739  53.591  1.00  0.00     0.034 A 
HETATM   28  C17 UNL     1      28.494   1.107  54.219  1.00  0.00     0.046 A 
HETATM   29  C18 UNL     1      28.639  -0.220  53.910  1.00  0.00     0.138 A 
HETATM   30  F1  UNL     1      29.663  -0.859  54.531  1.00  0.00    -0.204 F 
HETATM   31  C19 UNL     1      27.887  -0.993  53.058  1.00  0.00     0.074 A 
HETATM   32 CL1  UNL     1      28.200  -2.686  52.769  1.00  0.00    -0.081 Cl
HETATM   33  C20 UNL     1      26.849  -0.360  52.429  1.00  0.00     0.058 A 
ENDBRANCH   9  26
TORSDOF 7
ENDMDL
MODEL 5
REMARK VINA RESULT:      -8.3      3.546     10.079
REMARK  7 active torsions:
REMARK  status: ('A' for Active; 'I' for Inactive)
REMARK    1  A    between atoms: N2_5  and  C4_6 
REMARK    2  A    between atoms: C4_6  and  C5_7 
REMARK    3  A    between atoms: C5_7  and  C6_8 
REMARK    4  A    between atoms: C7_9  and  C8_10 
REMARK    5  A    between atoms: C8_10  and  N3_11 
REMARK    6  A    between atoms: N3_11  and  C9_12 
REMARK    7  A    between atoms: N6_20  and  C15_21 
ROOT
HETATM    1  C9  UNL     1      29.522   5.668  48.373  1.00  0.00     0.100 A 
HETATM    2  C10 UNL     1      30.824   5.751  48.104  1.00  0.00     0.091 A 
HETATM    3  C11 UNL     1      31.646   7.001  48.508  1.00  0.00     0.351 A 
HETATM    4  C12 UNL     1      31.813   8.311  49.096  1.00  0.00     0.553 A 
HETATM    5  C13 UNL     1      30.765   7.687  49.045  1.00  0.00     0.364 A 
HETATM    6  N4  UNL     1      31.952   7.593  48.713  1.00  0.00     0.220 N 
HETATM    7  N5  UNL     1      33.268   7.824  48.507  1.00  0.00     0.222 N 
HETATM    8  C14 UNL     1      34.676   8.206  48.352  1.00  0.00     0.345 C 
HETATM    9  N6  UNL     1      32.955   6.563  47.977  1.00  0.00    -0.132 N 
HETATM   10  N7  UNL     1      29.531   6.946  48.984  1.00  0.00    -0.334 N 
HETATM   11  H23 UNL     1      28.905   7.601  49.444  1.00  0.00     0.164 HD
ENDROOT
BRANCH   1  12
HETATM   12  N3  UNL     1      28.358   5.038  48.331  1.00  0.00    -0.366 N 
HETATM   13  H14 UNL     1      28.578   4.035  48.206  1.00  0.00     0.162 HD
BRANCH  12  14
HETATM   14  C8  UNL     1      27.457   6.149  48.482  1.00  0.00     0.215 C 
BRANCH  14  15
HETATM   15  C7  UNL     1      26.125   5.648  48.851  1.00  0.00    -0.087 C 
HETATM   16  C6  UNL     1      25.030   5.252  49.138  1.00  0.00    -0.103 C 
BRANCH  16  17
HETATM   17  C5  UNL     1      23.702   4.791  49.467  1.00  0.00     0.113 C 
BRANCH  17  18
HETATM   18  C4  UNL     1      23.682   3.346  49.816  1.00  0.00     0.129 C 
BRANCH  18  19
HETATM   19  N2  UNL     1      23.910   3.087  51.215  1.00  0.00    -0.408 N 
HETATM   20  C3  UNL     1      25.121   2.427  51.512  1.00  0.00     0.147 C 
HETATM   21  C2  UNL     1      24.987   1.050  52.106  1.00  0.00     0.291 C 
HETATM   22  N1  UNL     1      23.981   1.012  53.159  1.00  0.00     0.087 N 
HETATM   23  C1  UNL     1      23.868  -0.416  53.511  1.00  0.00     0.310 C 
HETATM   24  C22 UNL     1      22.724   1.358  52.516  1.00  0.00     0.291 C 
HETATM   25  C21 UNL     1      22.765   2.760  51.976  1.00  0.00     0.147 C 
ENDBRANCH  18  19
ENDBRANCH  17  18
ENDBRANCH  16  17
ENDBRANCH  14  15
ENDBRANCH  12  14
ENDBRANCH   1  12
BRANCH   9  26
HETATM   26  C15 UNL     1      33.652   5.509  47.275  1.00  0.00     0.065 A 
HETATM   27  C16 UNL     1      34.300   4.478  47.975  1.00  0.00     0.034 A 
HETATM   28  C17 UNL     1      34.923   3.489  47.272  1.00  0.00     0.046 A 
HETATM   29  C18 UNL     1      34.850   3.609  45.909  1.00  0.00     0.138 A 
HETATM   30  F1  UNL     1      35.467   2.629  45.200  1.00  0.00    -0.204 F 
HETATM   31  C19 UNL     1      34.237   4.586  45.162  1.00  0.00     0.074 A 
HETATM   32 CL1  UNL     1      34.232   4.598  43.416  1.00  0.00    -0.081 Cl
HETATM   33  C20 UNL     1      33.610   5.578  45.867  1.00  0.00     0.058 A 
ENDBRANCH   9  26
TORSDOF 7
ENDMDL
MODEL 6
REMARK VINA RESULT:      -8.3      3.052      9.811
REMARK  7 active torsions:
REMARK  status: ('A' for Active; 'I' for Inactive)
REMARK    1  A    between atoms: N2_5  and  C4_6 
REMARK    2  A    between atoms: C4_6  and  C5_7 
REMARK    3  A    between atoms: C5_7  and  C6_8 
REMARK    4  A    between atoms: C7_9  and  C8_10 
REMARK    5  A    between atoms: C8_10  and  N3_11 
REMARK    6  A    between atoms: N3_11  and  C9_12 
REMARK    7  A    between atoms: N6_20  and  C15_21 
ROOT
HETATM    1  C9  UNL     1      29.150   7.582  48.144  1.00  0.00     0.100 A 
HETATM    2  C10 UNL     1      30.235   7.090  47.549  1.00  0.00     0.091 A 
HETATM    3  C11 UNL     1      30.674   7.588  46.149  1.00  0.00     0.351 A 
HETATM    4  C12 UNL     1      30.546   8.403  44.961  1.00  0.00     0.553 A 
HETATM    5  C13 UNL     1      29.787   8.422  45.916  1.00  0.00     0.364 A 
HETATM    6  N4  UNL     1      30.810   7.853  45.518  1.00  0.00     0.220 N 
HETATM    7  N5  UNL     1      31.876   7.451  44.790  1.00  0.00     0.222 N 
HETATM    8  C14 UNL     1      32.988   7.112  43.895  1.00  0.00     0.345 C 
HETATM    9  N6  UNL     1      31.870   6.732  45.994  1.00  0.00    -0.132 N 
HETATM   10  N7  UNL     1      28.895   8.442  47.047  1.00  0.00    -0.334 N 
HETATM   11  H23 UNL     1      28.230   9.146  46.739  1.00  0.00     0.164 HD
ENDROOT
BRANCH   1  12
HETATM   12  N3  UNL     1      28.289   7.631  49.149  1.00  0.00    -0.366 N 
HETATM   13  H14 UNL     1      28.823   7.967  49.970  1.00  0.00     0.162 HD
BRANCH  12  14
HETATM   14  C8  UNL     1      27.095   7.174  48.490  1.00  0.00     0.215 C 
BRANCH  14  15
HETATM   15  C7  UNL     1      26.858   5.765  48.835  1.00  0.00    -0.087 C 
HETATM   16  C6  UNL     1      26.675   4.619  49.134  1.00  0.00    -0.103 C 
BRANCH  16  17
HETATM   17  C5  UNL     1      26.466   3.242  49.516  1.00  0.00     0.113 C 
BRANCH  17  18
HETATM   18  C4  UNL     1      25.245   3.072  50.348  1.00  0.00     0.129 C 
BRANCH  18  19
HETATM   19  N2  UNL     1      25.524   2.784  51.732  1.00  0.00    -0.408 N 
HETATM   20  C3  UNL     1      26.743   2.114  51.968  1.00  0.00     0.147 C 
HETATM   21  C2  UNL     1      26.626   0.726  52.540  1.00  0.00     0.291 C 
HETATM   22  N1  UNL     1      25.660   0.670  53.629  1.00  0.00     0.087 N 
HETATM   23  C1  UNL     1      25.554  -0.764  53.957  1.00  0.00     0.310 C 
HETATM   24  C22 UNL     1      24.382   1.034  53.043  1.00  0.00     0.291 C 
HETATM   25  C21 UNL     1      24.408   2.446  52.530  1.00  0.00     0.147 C 
ENDBRANCH  18  19
ENDBRANCH  17  18
ENDBRANCH  16  17
ENDBRANCH  14  15
ENDBRANCH  12  14
ENDBRANCH   1  12
BRANCH   9  26
HETATM   26  C15 UNL     1      32.667   5.696  46.611  1.00  0.00     0.065 A 
HETATM   27  C16 UNL     1      32.476   4.343  46.283  1.00  0.00     0.034 A 
HETATM   28  C17 UNL     1      33.269   3.401  46.869  1.00  0.00     0.046 A 
HETATM   29  C18 UNL     1      34.201   3.888  47.748  1.00  0.00     0.138 A 
HETATM   30  F1  UNL     1      34.995   2.958  48.335  1.00  0.00    -0.204 F 
HETATM   31  C19 UNL     1      34.441   5.190  48.113  1.00  0.00     0.074 A 
HETATM   32 CL1  UNL     1      35.678   5.654  49.255  1.00  0.00    -0.081 Cl
HETATM   33  C20 UNL     1      33.648   6.137  47.524  1.00  0.00     0.058 A 
ENDBRANCH   9  26
TORSDOF 7
ENDMDL
MODEL 7
REMARK VINA RESULT:      -8.2      2.590      3.885
REMARK  7 active torsions:
REMARK  status: ('A' for Active; 'I' for Inactive)
REMARK    1  A    between atoms: N2_5  and  C4_6 
REMARK    2  A    between atoms: C4_6  and  C5_7 
REMARK    3  A    between atoms: C5_7  and  C6_8 
REMARK    4  A    between atoms: C7_9  and  C8_10 
REMARK    5  A    between atoms: C8_10  and  N3_11 
REMARK    6  A    between atoms: N3_11  and  C9_12 
REMARK    7  A    between atoms: N6_20  and  C15_21 
ROOT
HETATM    1  C9  UNL     1      24.807   3.143  50.234  1.00  0.00     0.100 A 
HETATM    2  C10 UNL     1      25.008   2.235  51.188  1.00  0.00     0.091 A 
HETATM    3  C11 UNL     1      23.819   1.496  51.853  1.00  0.00     0.351 A 
HETATM    4  C12 UNL     1      22.416   1.202  52.044  1.00  0.00     0.553 A 
HETATM    5  C13 UNL     1      22.867   2.010  51.248  1.00  0.00     0.364 A 
HETATM    6  N4  UNL     1      23.239   1.208  52.112  1.00  0.00     0.220 N 
HETATM    7  N5  UNL     1      23.283   0.272  53.087  1.00  0.00     0.222 N 
HETATM    8  C14 UNL     1      23.181  -0.748  54.136  1.00  0.00     0.345 C 
HETATM    9  N6  UNL     1      24.598   0.660  52.791  1.00  0.00    -0.132 N 
HETATM   10  N7  UNL     1      23.404   2.961  50.309  1.00  0.00    -0.334 N 
HETATM   11  H23 UNL     1      22.544   3.304  49.889  1.00  0.00     0.164 HD
ENDROOT
BRANCH   1  12
HETATM   12  N3  UNL     1      25.244   4.041  49.365  1.00  0.00    -0.366 N 
HETATM   13  H14 UNL     1      24.426   4.624  49.117  1.00  0.00     0.162 HD
BRANCH  12  14
HETATM   14  C8  UNL     1      26.628   3.662  49.276  1.00  0.00     0.215 C 
BRANCH  14  15
HETATM   15  C7  UNL     1      27.413   4.801  48.776  1.00  0.00    -0.087 C 
HETATM   16  C6  UNL     1      28.070   5.719  48.372  1.00  0.00    -0.103 C 
BRANCH  16  17
HETATM   17  C5  UNL     1      28.882   6.811  47.891  1.00  0.00     0.113 C 
BRANCH  17  18
HETATM   18  C4  UNL     1      28.084   7.805  47.124  1.00  0.00     0.129 C 
BRANCH  18  19
HETATM   19  N2  UNL     1      26.984   8.362  47.871  1.00  0.00    -0.408 N 
HETATM   20  C3  UNL     1      25.769   8.461  47.160  1.00  0.00     0.147 C 
HETATM   21  C2  UNL     1      25.264   9.859  46.923  1.00  0.00     0.291 C 
HETATM   22  N1  UNL     1      25.353  10.678  48.125  1.00  0.00     0.087 N 
HETATM   23  C1  UNL     1      24.976  12.032  47.680  1.00  0.00     0.310 C 
HETATM   24  C22 UNL     1      26.768  10.750  48.448  1.00  0.00     0.291 C 
HETATM   25  C21 UNL     1      27.314   9.391  48.781  1.00  0.00     0.147 C 
ENDBRANCH  18  19
ENDBRANCH  17  18
ENDBRANCH  16  17
ENDBRANCH  14  15
ENDBRANCH  12  14
ENDBRANCH   1  12
BRANCH   9  26
HETATM   26  C15 UNL     1      25.926   0.342  53.266  1.00  0.00     0.065 A 
HETATM   27  C16 UNL     1      26.605   1.202  54.145  1.00  0.00     0.034 A 
HETATM   28  C17 UNL     1      27.846   0.851  54.589  1.00  0.00     0.046 A 
HETATM   29  C18 UNL     1      28.318  -0.345  54.114  1.00  0.00     0.138 A 
HETATM   30  F1  UNL     1      29.551  -0.704  54.551  1.00  0.00    -0.204 F 
HETATM   31  C19 UNL     1      27.711  -1.230  53.257  1.00  0.00     0.074 A 
HETATM   32 CL1  UNL     1      28.448  -2.727  52.742  1.00  0.00    -0.081 Cl
HETATM   33  C20 UNL     1      26.465  -0.880  52.812  1.00  0.00     0.058 A 
ENDBRANCH   9  26
TORSDOF 7
ENDMDL
MODEL 8
REMARK VINA RESULT:      -8.2      3.455      9.528
REMARK  7 active torsions:
REMARK  status: ('A' for Active; 'I' for Inactive)
REMARK    1  A    between atoms: N2_5  and  C4_6 
REMARK    2  A    between atoms: C4_6  and  C5_7 
REMARK    3  A    between atoms: C5_7  and  C6_8 
REMARK    4  A    between atoms: C7_9  and  C8_10 
REMARK    5  A    between atoms: C8_10  and  N3_11 
REMARK    6  A    between atoms: N3_11  and  C9_12 
REMARK    7  A    between atoms: N6_20  and  C15_21 
ROOT
HETATM    1  C9  UNL     1      27.053   6.510  48.866  1.00  0.00     0.100 A 
HETATM    2  C10 UNL     1      28.146   7.110  48.397  1.00  0.00     0.091 A 
HETATM    3  C11 UNL     1      28.573   8.509  48.910  1.00  0.00     0.351 A 
HETATM    4  C12 UNL     1      28.426   9.693  49.726  1.00  0.00     0.553 A 
HETATM    5  C13 UNL     1      27.669   8.736  49.726  1.00  0.00     0.364 A 
HETATM    6  N4  UNL     1      28.702   9.139  49.180  1.00  0.00     0.220 N 
HETATM    7  N5  UNL     1      29.774   9.870  48.802  1.00  0.00     0.222 N 
HETATM    8  C14 UNL     1      30.891  10.769  48.489  1.00  0.00     0.345 C 
HETATM    9  N6  UNL     1      29.785   8.669  48.078  1.00  0.00    -0.132 N 
HETATM   10  N7  UNL     1      26.779   7.603  49.724  1.00  0.00    -0.334 N 
HETATM   11  H23 UNL     1      26.099   7.907  50.416  1.00  0.00     0.164 HD
ENDROOT
BRANCH   1  12
HETATM   12  N3  UNL     1      26.194   5.503  48.893  1.00  0.00    -0.366 N 
HETATM   13  H14 UNL     1      25.251   5.929  48.874  1.00  0.00     0.162 HD
BRANCH  12  14
HETATM   14  C8  UNL     1      27.101   4.389  48.938  1.00  0.00     0.215 C 
BRANCH  14  15
HETATM   15  C7  UNL     1      26.611   3.401  49.910  1.00  0.00    -0.087 C 
HETATM   16  C6  UNL     1      26.200   2.610  50.711  1.00  0.00    -0.103 C 
BRANCH  16  17
HETATM   17  C5  UNL     1      25.692   1.676  51.688  1.00  0.00     0.113 C 
BRANCH  17  18
HETATM   18  C4  UNL     1      25.604   2.280  53.045  1.00  0.00     0.129 C 
BRANCH  18  19
HETATM   19  N2  UNL     1      26.563   1.744  53.978  1.00  0.00    -0.408 N 
HETATM   20  C3  UNL     1      27.863   2.283  53.876  1.00  0.00     0.147 C 
HETATM   21  C2  UNL     1      28.940   1.319  53.457  1.00  0.00     0.291 C 
HETATM   22  N1  UNL     1      28.843   0.055  54.175  1.00  0.00     0.087 N 
HETATM   23  C1  UNL     1      29.852  -0.812  53.538  1.00  0.00     0.310 C 
HETATM   24  C22 UNL     1      27.554  -0.509  53.809  1.00  0.00     0.291 C 
HETATM   25  C21 UNL     1      26.430   0.370  54.279  1.00  0.00     0.147 C 
ENDBRANCH  18  19
ENDBRANCH  17  18
ENDBRANCH  16  17
ENDBRANCH  14  15
ENDBRANCH  12  14
ENDBRANCH   1  12
BRANCH   9  26
HETATM   26  C15 UNL     1      30.605   8.058  47.056  1.00  0.00     0.065 A 
HETATM   27  C16 UNL     1      30.367   8.305  45.694  1.00  0.00     0.034 A 
HETATM   28  C17 UNL     1      31.181   7.729  44.763  1.00  0.00     0.046 A 
HETATM   29  C18 UNL     1      32.180   6.941  45.272  1.00  0.00     0.138 A 
HETATM   30  F1  UNL     1      32.996   6.364  44.354  1.00  0.00    -0.204 F 
HETATM   31  C19 UNL     1      32.469   6.657  46.585  1.00  0.00     0.074 A 
HETATM   32 CL1  UNL     1      33.789   5.625  47.076  1.00  0.00    -0.081 Cl
HETATM   33  C20 UNL     1      31.653   7.236  47.519  1.00  0.00     0.058 A 
ENDBRANCH   9  26
TORSDOF 7
ENDMDL
MODEL 9
REMARK VINA RESULT:      -8.2      2.992      9.725
REMARK  7 active torsions:
REMARK  status: ('A' for Active; 'I' for Inactive)
REMARK    1  A    between atoms: N2_5  and  C4_6 
REMARK    2  A    between atoms: C4_6  and  C5_7 
REMARK    3  A    between atoms: C5_7  and  C6_8 
REMARK    4  A    between atoms: C7_9  and  C8_10 
REMARK    5  A    between atoms: C8_10  and  N3_11 
REMARK    6  A    between atoms: N3_11  and  C9_12 
REMARK    7  A    between atoms: N6_20  and  C15_21 
ROOT
HETATM    1  C9  UNL     1      28.615   6.850  48.580  1.00  0.00     0.100 A 
HETATM    2  C10 UNL     1      29.866   6.865  48.125  1.00  0.00     0.091 A 
HETATM    3  C11 UNL     1      30.756   8.125  48.274  1.00  0.00     0.351 A 
HETATM    4  C12 UNL     1      31.023   9.484  48.689  1.00  0.00     0.553 A 
HETATM    5  C13 UNL     1      29.970   8.890  48.851  1.00  0.00     0.364 A 
HETATM    6  N4  UNL     1      31.097   8.726  48.369  1.00  0.00     0.220 N 
HETATM    7  N5  UNL     1      32.374   8.895  47.958  1.00  0.00     0.222 N 
HETATM    8  C14 UNL     1      33.750   9.217  47.568  1.00  0.00     0.345 C 
HETATM    9  N6  UNL     1      31.970   7.596  47.616  1.00  0.00    -0.132 N 
HETATM   10  N7  UNL     1      28.729   8.184  49.043  1.00  0.00    -0.334 N 
HETATM   11  H23 UNL     1      28.184   8.901  49.513  1.00  0.00     0.164 HD
ENDROOT
BRANCH   1  12
HETATM   12  N3  UNL     1      27.447   6.254  48.768  1.00  0.00    -0.366 N 
HETATM   13  H14 UNL     1      26.763   7.010  48.945  1.00  0.00     0.162 HD
BRANCH  12  14
HETATM   14  C8  UNL     1      27.831   4.877  48.616  1.00  0.00     0.215 C 
BRANCH  14  15
HETATM   15  C7  UNL     1      26.890   4.025  49.357  1.00  0.00    -0.087 C 
HETATM   16  C6  UNL     1      26.119   3.319  49.945  1.00  0.00    -0.103 C 
BRANCH  16  17
HETATM   17  C5  UNL     1      25.184   2.459  50.630  1.00  0.00     0.113 C 
BRANCH  17  18
HETATM   18  C4  UNL     1      25.088   2.780  52.079  1.00  0.00     0.129 C 
BRANCH  18  19
HETATM   19  N2  UNL     1      25.393   1.664  52.939  1.00  0.00    -0.408 N 
HETATM   20  C3  UNL     1      26.324   1.935  53.964  1.00  0.00     0.147 C 
HETATM   21  C2  UNL     1      27.627   1.187  53.878  1.00  0.00     0.291 C 
HETATM   22  N1  UNL     1      27.422  -0.224  53.578  1.00  0.00     0.087 N 
HETATM   23  C1  UNL     1      28.780  -0.761  53.373  1.00  0.00     0.310 C 
HETATM   24  C22 UNL     1      26.785  -0.261  52.272  1.00  0.00     0.291 C 
HETATM   25  C21 UNL     1      25.435   0.397  52.313  1.00  0.00     0.147 C 
ENDBRANCH  18  19
ENDBRANCH  17  18
ENDBRANCH  16  17
ENDBRANCH  14  15
ENDBRANCH  12  14
ENDBRANCH   1  12
BRANCH   9  26
HETATM   26  C15 UNL     1      32.544   6.454  46.941  1.00  0.00     0.065 A 
HETATM   27  C16 UNL     1      32.395   6.283  45.555  1.00  0.00     0.034 A 
HETATM   28  C17 UNL     1      32.976   5.204  44.954  1.00  0.00     0.046 A 
HETATM   29  C18 UNL     1      33.667   4.371  45.794  1.00  0.00     0.138 A 
HETATM   30  F1  UNL     1      34.249   3.296  45.205  1.00  0.00    -0.204 F 
HETATM   31  C19 UNL     1      33.852   4.478  47.151  1.00  0.00     0.074 A 
HETATM   32 CL1  UNL     1      34.768   3.324  48.088  1.00  0.00    -0.081 Cl
HETATM   33  C20 UNL     1      33.271   5.560  47.755  1.00  0.00     0.058 A 
ENDBRANCH   9  26
TORSDOF 7
ENDMDL
