MODEL 1
REMARK VINA RESULT:      -9.8      0.000      0.000
REMARK  4 active torsions:
REMARK  status: ('A' for Active; 'I' for Inactive)
REMARK    1  A    between atoms: C4_5  and  C5_6 
REMARK    2  A    between atoms: C13_14  and  N1_15 
REMARK    3  A    between atoms: N1_15  and  C14_16 
REMARK    4  A    between atoms: C17_20  and  C18_21 
ROOT
HETATM    1 CL1  UNL     1      20.731  -1.354  54.217  1.00  0.00    -0.082 Cl
HETATM    2  C1  UNL     1      22.409  -0.872  54.125  1.00  0.00     0.061 A 
HETATM    3  C2  UNL     1      23.345  -1.271  55.080  1.00  0.00     0.026 A 
HETATM    4  C3  UNL     1      24.671  -0.858  54.949  1.00  0.00     0.009 A 
HETATM    5  C4  UNL     1      25.169  -0.047  53.905  1.00  0.00    -0.049 A 
HETATM    6  C12 UNL     1      24.159   0.265  53.055  1.00  0.00     0.039 A 
HETATM    7  C13 UNL     1      22.840  -0.066  53.063  1.00  0.00     0.071 A 
ENDROOT
BRANCH   7   8
HETATM    8  N1  UNL     1      21.892   0.305  52.127  1.00  0.00    -0.186 N 
HETATM    9  H9  UNL     1      20.875   0.091  52.263  1.00  0.00     0.184 HD
BRANCH   8  10
HETATM   10  C14 UNL     1      22.033   0.969  50.909  1.00  0.00     0.727 A 
HETATM   11  N2  UNL     1      21.261   0.772  49.850  1.00  0.00    -0.075 NA
HETATM   12  C15 UNL     1      21.260   1.308  48.649  1.00  0.00     0.139 A 
HETATM   13  C16 UNL     1      22.224   2.269  48.387  1.00  0.00     0.053 A 
HETATM   14  C17 UNL     1      23.077   2.543  49.429  1.00  0.00     0.089 A 
HETATM   15  N4  UNL     1      22.845   1.885  50.447  1.00  0.00    -0.062 NA
BRANCH  14  16
HETATM   16  C18 UNL     1      24.163   3.537  49.324  1.00  0.00     0.011 A 
HETATM   17  C19 UNL     1      25.445   3.132  49.636  1.00  0.00     0.017 A 
HETATM   18  C20 UNL     1      26.553   3.967  49.574  1.00  0.00     0.020 A 
HETATM   19  C21 UNL     1      26.262   5.273  49.163  1.00  0.00     0.116 A 
HETATM   20  N3  UNL     1      25.024   5.635  48.872  1.00  0.00    -0.272 NA
HETATM   21  C22 UNL     1      23.966   4.824  48.934  1.00  0.00     0.130 A 
ENDBRANCH  14  16
ENDBRANCH   8  10
ENDBRANCH   7   8
BRANCH   5  22
HETATM   22  C5  UNL     1      26.530   0.119  54.142  1.00  0.00     0.053 A 
HETATM   23  C6  UNL     1      27.393   0.711  52.974  1.00  0.00     0.019 A 
HETATM   24  C7  UNL     1      26.734   0.376  51.846  1.00  0.00    -0.014 A 
HETATM   25  C11 UNL     1      28.696   1.034  53.619  1.00  0.00    -0.014 A 
HETATM   26  C9  UNL     1      27.523  -0.802  53.349  1.00  0.00     0.019 A 
HETATM   27  C8  UNL     1      26.887  -1.248  52.270  1.00  0.00    -0.014 A 
HETATM   28  C10 UNL     1      28.848  -0.440  54.014  1.00  0.00    -0.014 A 
ENDBRANCH   5  22
TORSDOF 4
ENDMDL
MODEL 2
REMARK VINA RESULT:      -9.3      1.714      2.287
REMARK  4 active torsions:
REMARK  status: ('A' for Active; 'I' for Inactive)
REMARK    1  A    between atoms: C4_5  and  C5_6 
REMARK    2  A    between atoms: C13_14  and  N1_15 
REMARK    3  A    between atoms: N1_15  and  C14_16 
REMARK    4  A    between atoms: C17_20  and  C18_21 
ROOT
HETATM    1 CL1  UNL     1      20.514  -0.022  52.735  1.00  0.00    -0.082 Cl
HETATM    2  C1  UNL     1      22.211   0.182  53.104  1.00  0.00     0.061 A 
HETATM    3  C2  UNL     1      22.949  -0.807  53.755  1.00  0.00     0.026 A 
HETATM    4  C3  UNL     1      24.302  -0.587  54.017  1.00  0.00     0.009 A 
HETATM    5  C4  UNL     1      25.015   0.582  53.674  1.00  0.00    -0.049 A 
HETATM    6  C12 UNL     1      24.181   1.454  53.052  1.00  0.00     0.039 A 
HETATM    7  C13 UNL     1      22.861   1.367  52.737  1.00  0.00     0.071 A 
ENDROOT
BRANCH   7   8
HETATM    8  N1  UNL     1      22.107   2.325  52.085  1.00  0.00    -0.186 N 
HETATM    9  H9  UNL     1      21.073   2.212  51.953  1.00  0.00     0.184 HD
BRANCH   8  10
HETATM   10  C14 UNL     1      22.485   3.534  51.500  1.00  0.00     0.727 A 
HETATM   11  N2  UNL     1      21.735   4.626  51.476  1.00  0.00    -0.075 NA
HETATM   12  C15 UNL     1      21.941   5.825  50.976  1.00  0.00     0.139 A 
HETATM   13  C16 UNL     1      23.157   6.045  50.348  1.00  0.00     0.053 A 
HETATM   14  C17 UNL     1      24.007   4.965  50.321  1.00  0.00     0.089 A 
HETATM   15  N4  UNL     1      23.549   3.960  50.869  1.00  0.00    -0.062 NA
BRANCH  14  16
HETATM   16  C18 UNL     1      25.340   5.022  49.690  1.00  0.00     0.011 A 
HETATM   17  C19 UNL     1      25.738   6.216  49.122  1.00  0.00     0.017 A 
HETATM   18  C20 UNL     1      26.967   6.402  48.502  1.00  0.00     0.020 A 
HETATM   19  C21 UNL     1      27.784   5.265  48.500  1.00  0.00     0.116 A 
HETATM   20  N3  UNL     1      27.376   4.134  49.049  1.00  0.00    -0.272 NA
HETATM   21  C22 UNL     1      26.194   3.966  49.644  1.00  0.00     0.130 A 
ENDBRANCH  14  16
ENDBRANCH   8  10
ENDBRANCH   7   8
BRANCH   5  22
HETATM   22  C5  UNL     1      26.325   0.391  54.101  1.00  0.00     0.053 A 
HETATM   23  C6  UNL     1      27.449   1.168  53.331  1.00  0.00     0.019 A 
HETATM   24  C7  UNL     1      26.951   1.374  52.095  1.00  0.00    -0.014 A 
HETATM   25  C11 UNL     1      28.657   0.993  54.187  1.00  0.00    -0.014 A 
HETATM   26  C9  UNL     1      27.298  -0.376  53.138  1.00  0.00     0.019 A 
HETATM   27  C8  UNL     1      26.799  -0.294  51.908  1.00  0.00    -0.014 A 
HETATM   28  C10 UNL     1      28.529  -0.526  54.028  1.00  0.00    -0.014 A 
ENDBRANCH   5  22
TORSDOF 4
ENDMDL
MODEL 3
REMARK VINA RESULT:      -9.2      2.024      5.895
REMARK  4 active torsions:
REMARK  status: ('A' for Active; 'I' for Inactive)
REMARK    1  A    between atoms: C4_5  and  C5_6 
REMARK    2  A    between atoms: C13_14  and  N1_15 
REMARK    3  A    between atoms: N1_15  and  C14_16 
REMARK    4  A    between atoms: C17_20  and  C18_21 
ROOT
HETATM    1 CL1  UNL     1      18.910   1.009  49.705  1.00  0.00    -0.082 Cl
HETATM    2  C1  UNL     1      20.539   1.638  49.604  1.00  0.00     0.061 A 
HETATM    3  C2  UNL     1      20.918   2.546  48.615  1.00  0.00     0.026 A 
HETATM    4  C3  UNL     1      22.232   3.016  48.589  1.00  0.00     0.009 A 
HETATM    5  C4  UNL     1      23.245   2.645  49.501  1.00  0.00    -0.049 A 
HETATM    6  C12 UNL     1      22.740   1.763  50.401  1.00  0.00     0.039 A 
HETATM    7  C13 UNL     1      21.497   1.229  50.539  1.00  0.00     0.071 A 
ENDROOT
BRANCH   7   8
HETATM    8  N1  UNL     1      21.089   0.337  51.513  1.00  0.00    -0.186 N 
HETATM    9  H9  UNL     1      20.133  -0.092  51.497  1.00  0.00     0.184 HD
BRANCH   8  10
HETATM   10  C14 UNL     1      21.760  -0.153  52.633  1.00  0.00     0.727 A 
HETATM   11  N2  UNL     1      21.173  -0.732  53.671  1.00  0.00    -0.075 NA
HETATM   12  C15 UNL     1      21.654  -1.240  54.785  1.00  0.00     0.139 A 
HETATM   13  C16 UNL     1      23.028  -1.192  54.957  1.00  0.00     0.053 A 
HETATM   14  C17 UNL     1      23.728  -0.606  53.929  1.00  0.00     0.089 A 
HETATM   15  N4  UNL     1      23.014  -0.213  53.003  1.00  0.00    -0.062 NA
BRANCH  14  16
HETATM   16  C18 UNL     1      25.198  -0.469  53.949  1.00  0.00     0.011 A 
HETATM   17  C19 UNL     1      25.865  -0.469  52.740  1.00  0.00     0.017 A 
HETATM   18  C20 UNL     1      27.243  -0.344  52.621  1.00  0.00     0.020 A 
HETATM   19  C21 UNL     1      27.913  -0.216  53.845  1.00  0.00     0.116 A 
HETATM   20  N3  UNL     1      27.248  -0.222  54.987  1.00  0.00    -0.272 NA
HETATM   21  C22 UNL     1      25.924  -0.341  55.091  1.00  0.00     0.130 A 
ENDBRANCH  14  16
ENDBRANCH   8  10
ENDBRANCH   7   8
BRANCH   5  22
HETATM   22  C5  UNL     1      24.390   3.341  49.132  1.00  0.00     0.053 A 
HETATM   23  C6  UNL     1      25.616   3.271  50.107  1.00  0.00     0.019 A 
HETATM   24  C7  UNL     1      25.084   3.041  51.325  1.00  0.00    -0.014 A 
HETATM   25  C11 UNL     1      26.739   3.847  49.314  1.00  0.00    -0.014 A 
HETATM   26  C9  UNL     1      24.789   4.592  49.992  1.00  0.00     0.019 A 
HETATM   27  C8  UNL     1      24.203   4.471  51.179  1.00  0.00    -0.014 A 
HETATM   28  C10 UNL     1      25.948   5.152  49.171  1.00  0.00    -0.014 A 
ENDBRANCH   5  22
TORSDOF 4
ENDMDL
MODEL 4
REMARK VINA RESULT:      -9.0      2.074      2.437
REMARK  4 active torsions:
REMARK  status: ('A' for Active; 'I' for Inactive)
REMARK    1  A    between atoms: C4_5  and  C5_6 
REMARK    2  A    between atoms: C13_14  and  N1_15 
REMARK    3  A    between atoms: N1_15  and  C14_16 
REMARK    4  A    between atoms: C17_20  and  C18_21 
ROOT
HETATM    1 CL1  UNL     1      20.753  -1.528  54.284  1.00  0.00    -0.082 Cl
HETATM    2  C1  UNL     1      22.410  -0.982  54.183  1.00  0.00     0.061 A 
HETATM    3  C2  UNL     1      23.373  -1.370  55.115  1.00  0.00     0.026 A 
HETATM    4  C3  UNL     1      24.681  -0.904  54.977  1.00  0.00     0.009 A 
HETATM    5  C4  UNL     1      25.134  -0.049  53.949  1.00  0.00    -0.049 A 
HETATM    6  C12 UNL     1      24.101   0.247  53.120  1.00  0.00     0.039 A 
HETATM    7  C13 UNL     1      22.796  -0.133  53.137  1.00  0.00     0.071 A 
ENDROOT
BRANCH   7   8
HETATM    8  N1  UNL     1      21.822   0.226  52.224  1.00  0.00    -0.186 N 
HETATM    9  H9  UNL     1      21.446  -0.460  51.527  1.00  0.00     0.184 HD
BRANCH   8  10
HETATM   10  C14 UNL     1      21.179   1.446  52.017  1.00  0.00     0.727 A 
HETATM   11  N2  UNL     1      19.864   1.613  52.007  1.00  0.00    -0.075 NA
HETATM   12  C15 UNL     1      19.112   2.678  51.831  1.00  0.00     0.139 A 
HETATM   13  C16 UNL     1      19.766   3.881  51.615  1.00  0.00     0.053 A 
HETATM   14  C17 UNL     1      21.138   3.809  51.606  1.00  0.00     0.089 A 
HETATM   15  N4  UNL     1      21.578   2.673  51.798  1.00  0.00    -0.062 NA
BRANCH  14  16
HETATM   16  C18 UNL     1      21.992   4.994  51.388  1.00  0.00     0.011 A 
HETATM   17  C19 UNL     1      21.408   6.122  50.846  1.00  0.00     0.017 A 
HETATM   18  C20 UNL     1      22.098   7.301  50.594  1.00  0.00     0.020 A 
HETATM   19  C21 UNL     1      23.455   7.253  50.939  1.00  0.00     0.116 A 
HETATM   20  N3  UNL     1      23.987   6.159  51.455  1.00  0.00    -0.272 NA
HETATM   21  C22 UNL     1      23.315   5.032  51.693  1.00  0.00     0.130 A 
ENDBRANCH  14  16
ENDBRANCH   8  10
ENDBRANCH   7   8
BRANCH   5  22
HETATM   22  C5  UNL     1      26.491   0.162  54.173  1.00  0.00     0.053 A 
HETATM   23  C6  UNL     1      27.342   0.691  52.966  1.00  0.00     0.019 A 
HETATM   24  C7  UNL     1      26.691   0.267  51.864  1.00  0.00    -0.014 A 
HETATM   25  C11 UNL     1      28.638   1.085  53.587  1.00  0.00    -0.014 A 
HETATM   26  C9  UNL     1      27.504  -0.789  53.443  1.00  0.00     0.019 A 
HETATM   27  C8  UNL     1      26.878  -1.321  52.397  1.00  0.00    -0.014 A 
HETATM   28  C10 UNL     1      28.821  -0.355  54.081  1.00  0.00    -0.014 A 
ENDBRANCH   5  22
TORSDOF 4
ENDMDL
MODEL 5
REMARK VINA RESULT:      -8.8      3.049      5.818
REMARK  4 active torsions:
REMARK  status: ('A' for Active; 'I' for Inactive)
REMARK    1  A    between atoms: C4_5  and  C5_6 
REMARK    2  A    between atoms: C13_14  and  N1_15 
REMARK    3  A    between atoms: N1_15  and  C14_16 
REMARK    4  A    between atoms: C17_20  and  C18_21 
ROOT
HETATM    1 CL1  UNL     1      23.043   3.495  49.736  1.00  0.00    -0.082 Cl
HETATM    2  C1  UNL     1      24.224   2.819  50.833  1.00  0.00     0.061 A 
HETATM    3  C2  UNL     1      25.591   2.852  50.557  1.00  0.00     0.026 A 
HETATM    4  C3  UNL     1      26.485   2.300  51.475  1.00  0.00     0.009 A 
HETATM    5  C4  UNL     1      26.122   1.691  52.696  1.00  0.00    -0.049 A 
HETATM    6  C12 UNL     1      24.773   1.728  52.835  1.00  0.00     0.039 A 
HETATM    7  C13 UNL     1      23.798   2.228  52.029  1.00  0.00     0.071 A 
ENDROOT
BRANCH   7   8
HETATM    8  N1  UNL     1      22.438   2.220  52.280  1.00  0.00    -0.186 N 
HETATM    9  H9  UNL     1      21.845   3.067  52.113  1.00  0.00     0.184 HD
BRANCH   8  10
HETATM   10  C14 UNL     1      21.613   1.207  52.768  1.00  0.00     0.727 A 
HETATM   11  N2  UNL     1      21.894   0.443  53.814  1.00  0.00    -0.075 NA
HETATM   12  C15 UNL     1      21.234  -0.536  54.392  1.00  0.00     0.139 A 
HETATM   13  C16 UNL     1      20.004  -0.874  53.849  1.00  0.00     0.053 A 
HETATM   14  C17 UNL     1      19.624  -0.135  52.754  1.00  0.00     0.089 A 
HETATM   15  N4  UNL     1      20.445   0.724  52.426  1.00  0.00    -0.062 NA
BRANCH  14  16
HETATM   16  C18 UNL     1      18.346  -0.363  52.051  1.00  0.00     0.011 A 
HETATM   17  C19 UNL     1      18.227   0.105  50.757  1.00  0.00     0.017 A 
HETATM   18  C20 UNL     1      17.082  -0.048  49.986  1.00  0.00     0.020 A 
HETATM   19  C21 UNL     1      16.041  -0.723  50.635  1.00  0.00     0.116 A 
HETATM   20  N3  UNL     1      16.182  -1.158  51.876  1.00  0.00    -0.272 NA
HETATM   21  C22 UNL     1      17.288  -1.007  52.608  1.00  0.00     0.130 A 
ENDBRANCH  14  16
ENDBRANCH   8  10
ENDBRANCH   7   8
BRANCH   5  22
HETATM   22  C5  UNL     1      27.303   1.287  53.309  1.00  0.00     0.053 A 
HETATM   23  C6  UNL     1      27.837  -0.146  52.961  1.00  0.00     0.019 A 
HETATM   24  C7  UNL     1      26.742  -0.854  52.614  1.00  0.00    -0.014 A 
HETATM   25  C11 UNL     1      29.218  -0.161  53.520  1.00  0.00    -0.014 A 
HETATM   26  C9  UNL     1      27.214   0.131  54.368  1.00  0.00     0.019 A 
HETATM   27  C8  UNL     1      26.092  -0.543  54.138  1.00  0.00    -0.014 A 
HETATM   28  C10 UNL     1      28.641   0.124  54.911  1.00  0.00    -0.014 A 
ENDBRANCH   5  22
TORSDOF 4
ENDMDL
MODEL 6
REMARK VINA RESULT:      -8.8      2.708      5.443
REMARK  4 active torsions:
REMARK  status: ('A' for Active; 'I' for Inactive)
REMARK    1  A    between atoms: C4_5  and  C5_6 
REMARK    2  A    between atoms: C13_14  and  N1_15 
REMARK    3  A    between atoms: N1_15  and  C14_16 
REMARK    4  A    between atoms: C17_20  and  C18_21 
ROOT
HETATM    1 CL1  UNL     1      24.402   4.843  48.741  1.00  0.00    -0.082 Cl
HETATM    2  C1  UNL     1      25.081   3.939  50.074  1.00  0.00     0.061 A 
HETATM    3  C2  UNL     1      26.393   3.466  50.052  1.00  0.00     0.026 A 
HETATM    4  C3  UNL     1      26.880   2.754  51.150  1.00  0.00     0.009 A 
HETATM    5  C4  UNL     1      26.142   2.460  52.318  1.00  0.00    -0.049 A 
HETATM    6  C12 UNL     1      24.892   2.975  52.204  1.00  0.00     0.039 A 
HETATM    7  C13 UNL     1      24.296   3.679  51.205  1.00  0.00     0.071 A 
ENDROOT
BRANCH   7   8
HETATM    8  N1  UNL     1      23.003   4.169  51.201  1.00  0.00    -0.186 N 
HETATM    9  H9  UNL     1      22.792   5.155  50.915  1.00  0.00     0.184 HD
BRANCH   8  10
HETATM   10  C14 UNL     1      21.799   3.554  51.545  1.00  0.00     0.727 A 
HETATM   11  N2  UNL     1      20.598   4.057  51.299  1.00  0.00    -0.075 NA
HETATM   12  C15 UNL     1      19.387   3.611  51.551  1.00  0.00     0.139 A 
HETATM   13  C16 UNL     1      19.289   2.385  52.191  1.00  0.00     0.053 A 
HETATM   14  C17 UNL     1      20.487   1.782  52.490  1.00  0.00     0.089 A 
HETATM   15  N4  UNL     1      21.473   2.433  52.135  1.00  0.00    -0.062 NA
BRANCH  14  16
HETATM   16  C18 UNL     1      20.567   0.475  53.172  1.00  0.00     0.011 A 
HETATM   17  C19 UNL     1      21.719   0.180  53.874  1.00  0.00     0.017 A 
HETATM   18  C20 UNL     1      21.918  -1.011  54.561  1.00  0.00     0.020 A 
HETATM   19  C21 UNL     1      20.841  -1.903  54.483  1.00  0.00     0.116 A 
HETATM   20  N3  UNL     1      19.751  -1.595  53.801  1.00  0.00    -0.272 NA
HETATM   21  C22 UNL     1      19.569  -0.447  53.145  1.00  0.00     0.130 A 
ENDBRANCH  14  16
ENDBRANCH   8  10
ENDBRANCH   7   8
BRANCH   5  22
HETATM   22  C5  UNL     1      26.992   1.750  53.159  1.00  0.00     0.053 A 
HETATM   23  C6  UNL     1      27.374   0.292  52.728  1.00  0.00     0.019 A 
HETATM   24  C7  UNL     1      26.345  -0.129  51.963  1.00  0.00    -0.014 A 
HETATM   25  C11 UNL     1      28.489  -0.074  53.646  1.00  0.00    -0.014 A 
HETATM   26  C9  UNL     1      26.394   0.518  53.925  1.00  0.00     0.019 A 
HETATM   27  C8  UNL     1      25.308   0.121  53.268  1.00  0.00    -0.014 A 
HETATM   28  C10 UNL     1      27.558   0.152  54.842  1.00  0.00    -0.014 A 
ENDBRANCH   5  22
TORSDOF 4
ENDMDL
MODEL 7
REMARK VINA RESULT:      -8.7      2.733      4.023
REMARK  4 active torsions:
REMARK  status: ('A' for Active; 'I' for Inactive)
REMARK    1  A    between atoms: C4_5  and  C5_6 
REMARK    2  A    between atoms: C13_14  and  N1_15 
REMARK    3  A    between atoms: N1_15  and  C14_16 
REMARK    4  A    between atoms: C17_20  and  C18_21 
ROOT
HETATM    1 CL1  UNL     1      21.048   3.773  51.133  1.00  0.00    -0.082 Cl
HETATM    2  C1  UNL     1      22.445   3.025  51.873  1.00  0.00     0.061 A 
HETATM    3  C2  UNL     1      22.454   1.678  52.238  1.00  0.00     0.026 A 
HETATM    4  C3  UNL     1      23.601   1.138  52.820  1.00  0.00     0.009 A 
HETATM    5  C4  UNL     1      24.792   1.851  53.081  1.00  0.00    -0.049 A 
HETATM    6  C12 UNL     1      24.644   3.139  52.679  1.00  0.00     0.039 A 
HETATM    7  C13 UNL     1      23.596   3.788  52.106  1.00  0.00     0.071 A 
ENDROOT
BRANCH   7   8
HETATM    8  N1  UNL     1      23.561   5.116  51.723  1.00  0.00    -0.186 N 
HETATM    9  H9  UNL     1      23.151   5.854  52.344  1.00  0.00     0.184 HD
BRANCH   8  10
HETATM   10  C14 UNL     1      24.000   5.735  50.552  1.00  0.00     0.727 A 
HETATM   11  N2  UNL     1      23.235   6.464  49.753  1.00  0.00    -0.075 NA
HETATM   12  C15 UNL     1      23.490   7.105  48.633  1.00  0.00     0.139 A 
HETATM   13  C16 UNL     1      24.789   7.043  48.154  1.00  0.00     0.053 A 
HETATM   14  C17 UNL     1      25.661   6.304  48.918  1.00  0.00     0.089 A 
HETATM   15  N4  UNL     1      25.144   5.810  49.923  1.00  0.00    -0.062 NA
BRANCH  14  16
HETATM   16  C18 UNL     1      27.081   6.131  48.554  1.00  0.00     0.011 A 
HETATM   17  C19 UNL     1      27.770   7.233  48.089  1.00  0.00     0.017 A 
HETATM   18  C20 UNL     1      29.108   7.204  47.717  1.00  0.00     0.020 A 
HETATM   19  C21 UNL     1      29.712   5.948  47.854  1.00  0.00     0.116 A 
HETATM   20  N3  UNL     1      29.028   4.909  48.300  1.00  0.00    -0.272 NA
HETATM   21  C22 UNL     1      27.742   4.948  48.656  1.00  0.00     0.130 A 
ENDBRANCH  14  16
ENDBRANCH   8  10
ENDBRANCH   7   8
BRANCH   5  22
HETATM   22  C5  UNL     1      25.683   0.948  53.652  1.00  0.00     0.053 A 
HETATM   23  C6  UNL     1      27.201   1.338  53.645  1.00  0.00     0.019 A 
HETATM   24  C7  UNL     1      27.347   2.165  52.589  1.00  0.00    -0.014 A 
HETATM   25  C11 UNL     1      27.832   0.345  54.559  1.00  0.00    -0.014 A 
HETATM   26  C9  UNL     1      26.684   0.211  52.693  1.00  0.00     0.019 A 
HETATM   27  C8  UNL     1      26.787   0.934  51.582  1.00  0.00    -0.014 A 
HETATM   28  C10 UNL     1      27.327  -0.785  53.655  1.00  0.00    -0.014 A 
ENDBRANCH   5  22
TORSDOF 4
ENDMDL
MODEL 8
REMARK VINA RESULT:      -8.5      3.519      5.778
REMARK  4 active torsions:
REMARK  status: ('A' for Active; 'I' for Inactive)
REMARK    1  A    between atoms: C4_5  and  C5_6 
REMARK    2  A    between atoms: C13_14  and  N1_15 
REMARK    3  A    between atoms: N1_15  and  C14_16 
REMARK    4  A    between atoms: C17_20  and  C18_21 
ROOT
HETATM    1 CL1  UNL     1      23.431   6.584  51.050  1.00  0.00    -0.082 Cl
HETATM    2  C1  UNL     1      23.909   4.937  51.389  1.00  0.00     0.061 A 
HETATM    3  C2  UNL     1      23.520   4.282  52.559  1.00  0.00     0.026 A 
HETATM    4  C3  UNL     1      23.929   2.965  52.770  1.00  0.00     0.009 A 
HETATM    5  C4  UNL     1      24.726   2.210  51.881  1.00  0.00    -0.049 A 
HETATM    6  C12 UNL     1      25.029   2.965  50.795  1.00  0.00     0.039 A 
HETATM    7  C13 UNL     1      24.701   4.242  50.466  1.00  0.00     0.071 A 
ENDROOT
BRANCH   7   8
HETATM    8  N1  UNL     1      25.061   4.914  49.313  1.00  0.00    -0.186 N 
HETATM    9  H9  UNL     1      24.390   5.038  48.518  1.00  0.00     0.184 HD
BRANCH   8  10
HETATM   10  C14 UNL     1      26.267   5.517  48.954  1.00  0.00     0.727 A 
HETATM   11  N2  UNL     1      27.382   4.861  48.668  1.00  0.00    -0.075 NA
HETATM   12  C15 UNL     1      28.581   5.272  48.316  1.00  0.00     0.139 A 
HETATM   13  C16 UNL     1      28.770   6.641  48.205  1.00  0.00     0.053 A 
HETATM   14  C17 UNL     1      27.666   7.409  48.485  1.00  0.00     0.089 A 
HETATM   15  N4  UNL     1      26.668   6.752  48.791  1.00  0.00    -0.062 NA
BRANCH  14  16
HETATM   16  C18 UNL     1      27.690   8.884  48.419  1.00  0.00     0.011 A 
HETATM   17  C19 UNL     1      27.801   9.475  47.176  1.00  0.00     0.017 A 
HETATM   18  C20 UNL     1      27.831  10.849  46.977  1.00  0.00     0.020 A 
HETATM   19  C21 UNL     1      27.738  11.600  48.156  1.00  0.00     0.116 A 
HETATM   20  N3  UNL     1      27.635  11.007  49.333  1.00  0.00    -0.272 NA
HETATM   21  C22 UNL     1      27.606   9.685  49.513  1.00  0.00     0.130 A 
ENDBRANCH  14  16
ENDBRANCH   8  10
ENDBRANCH   7   8
BRANCH   5  22
HETATM   22  C5  UNL     1      24.893   0.956  52.460  1.00  0.00     0.053 A 
HETATM   23  C6  UNL     1      25.753   0.880  53.769  1.00  0.00     0.019 A 
HETATM   24  C7  UNL     1      26.594   1.932  53.698  1.00  0.00    -0.014 A 
HETATM   25  C11 UNL     1      25.500  -0.494  54.285  1.00  0.00    -0.014 A 
HETATM   26  C9  UNL     1      26.330   0.326  52.425  1.00  0.00     0.019 A 
HETATM   27  C8  UNL     1      27.202   1.314  52.252  1.00  0.00    -0.014 A 
HETATM   28  C10 UNL     1      26.048  -1.071  52.974  1.00  0.00    -0.014 A 
ENDBRANCH   5  22
TORSDOF 4
ENDMDL
MODEL 9
REMARK VINA RESULT:      -8.5      2.227      6.786
REMARK  4 active torsions:
REMARK  status: ('A' for Active; 'I' for Inactive)
REMARK    1  A    between atoms: C4_5  and  C5_6 
REMARK    2  A    between atoms: C13_14  and  N1_15 
REMARK    3  A    between atoms: N1_15  and  C14_16 
REMARK    4  A    between atoms: C17_20  and  C18_21 
ROOT
HETATM    1 CL1  UNL     1      19.868  -0.670  53.515  1.00  0.00    -0.082 Cl
HETATM    2  C1  UNL     1      20.267   0.133  52.014  1.00  0.00     0.061 A 
HETATM    3  C2  UNL     1      19.295   0.445  51.063  1.00  0.00     0.026 A 
HETATM    4  C3  UNL     1      19.676   1.092  49.887  1.00  0.00     0.009 A 
HETATM    5  C4  UNL     1      20.997   1.472  49.560  1.00  0.00    -0.049 A 
HETATM    6  C12 UNL     1      21.832   1.109  50.567  1.00  0.00     0.039 A 
HETATM    7  C13 UNL     1      21.597   0.483  51.750  1.00  0.00     0.071 A 
ENDROOT
BRANCH   7   8
HETATM    8  N1  UNL     1      22.536   0.170  52.716  1.00  0.00    -0.186 N 
HETATM    9  H9  UNL     1      22.344  -0.548  53.454  1.00  0.00     0.184 HD
BRANCH   8  10
HETATM   10  C14 UNL     1      23.818   0.676  52.932  1.00  0.00     0.727 A 
HETATM   11  N2  UNL     1      24.101   1.957  53.123  1.00  0.00    -0.075 NA
HETATM   12  C15 UNL     1      25.236   2.586  53.338  1.00  0.00     0.139 A 
HETATM   13  C16 UNL     1      26.385   1.813  53.389  1.00  0.00     0.053 A 
HETATM   14  C17 UNL     1      26.193   0.464  53.201  1.00  0.00     0.089 A 
HETATM   15  N4  UNL     1      25.014   0.152  53.017  1.00  0.00    -0.062 NA
BRANCH  14  16
HETATM   16  C18 UNL     1      27.306  -0.504  53.221  1.00  0.00     0.011 A 
HETATM   17  C19 UNL     1      28.574  -0.029  53.490  1.00  0.00     0.017 A 
HETATM   18  C20 UNL     1      29.704  -0.835  53.542  1.00  0.00     0.020 A 
HETATM   19  C21 UNL     1      29.451  -2.190  53.295  1.00  0.00     0.116 A 
HETATM   20  N3  UNL     1      28.227  -2.618  53.038  1.00  0.00    -0.272 NA
HETATM   21  C22 UNL     1      27.147  -1.834  52.992  1.00  0.00     0.130 A 
ENDBRANCH  14  16
ENDBRANCH   8  10
ENDBRANCH   7   8
BRANCH   5  22
HETATM   22  C5  UNL     1      20.939   2.091  48.317  1.00  0.00     0.053 A 
HETATM   23  C6  UNL     1      22.167   2.972  47.898  1.00  0.00     0.019 A 
HETATM   24  C7  UNL     1      22.715   3.385  49.058  1.00  0.00    -0.014 A 
HETATM   25  C11 UNL     1      21.940   3.240  46.450  1.00  0.00    -0.014 A 
HETATM   26  C9  UNL     1      20.817   3.656  48.290  1.00  0.00     0.019 A 
HETATM   27  C8  UNL     1      21.251   4.116  49.459  1.00  0.00    -0.014 A 
HETATM   28  C10 UNL     1      20.603   3.905  46.799  1.00  0.00    -0.014 A 
ENDBRANCH   5  22
TORSDOF 4
ENDMDL
