MODEL 1
REMARK VINA RESULT:      -7.8      0.000      0.000
REMARK  4 active torsions:
REMARK  status: ('A' for Active; 'I' for Inactive)
REMARK    1  A    between atoms: C7_9  and  N3_10 
REMARK    2  A    between atoms: N3_10  and  O1_11 
REMARK    3  A    between atoms: N3_10  and  N4_12 
REMARK    4  A    between atoms: N4_12  and  C8_13 
ROOT
HETATM    1  C1  UNL     1      28.112   5.476  48.331  1.00  0.00     0.017 C 
HETATM    2  C2  UNL     1      27.190   4.895  48.909  1.00  0.00    -0.082 C 
HETATM    3  C3  UNL     1      26.097   4.186  49.591  1.00  0.00    -0.001 C 
HETATM    4  C4  UNL     1      24.849   4.580  49.449  1.00  0.00     0.030 C 
HETATM    5  C5  UNL     1      23.412   4.548  49.652  1.00  0.00     0.086 C 
HETATM    6  N1  UNL     1      23.505   3.525  50.388  1.00  0.00    -0.189 NA
HETATM    7  N2  UNL     1      22.319   2.960  50.927  1.00  0.00    -0.331 N 
HETATM    8  C6  UNL     1      23.251   2.004  50.392  1.00  0.00     0.276 A 
HETATM    9  C7  UNL     1      24.451   1.912  51.255  1.00  0.00     0.086 C 
HETATM   10  C14 UNL     1      25.701   2.334  51.193  1.00  0.00     0.011 C 
HETATM   11  C15 UNL     1      26.714   3.084  50.414  1.00  0.00     0.077 C 
HETATM   12  H4  UNL     1      21.616   3.593  51.322  1.00  0.00     0.176 HD
ENDROOT
BRANCH   9  13
HETATM   13  N3  UNL     1      24.165   1.196  52.487  1.00  0.00    -0.165 N 
BRANCH  13  14
HETATM   14  O1  UNL     1      23.676   2.047  53.422  1.00  0.00    -0.268 OA
HETATM   15  H7  UNL     1      24.471   2.378  53.930  1.00  0.00     0.247 HD
ENDBRANCH  13  14
BRANCH  13  16
HETATM   16  N4  UNL     1      24.196  -0.066  53.111  1.00  0.00    -0.275 N 
HETATM   17  H8  UNL     1      23.295  -0.583  53.198  1.00  0.00     0.189 HD
BRANCH  16  18
HETATM   18  C8  UNL     1      25.595  -0.142  53.408  1.00  0.00     0.050 A 
HETATM   19  C9  UNL     1      26.196   0.564  54.423  1.00  0.00     0.031 A 
HETATM   20  C10 UNL     1      27.561   0.431  54.644  1.00  0.00     0.002 A 
HETATM   21  C11 UNL     1      28.261  -0.421  53.815  1.00  0.00     0.000 A 
HETATM   22  C12 UNL     1      27.657  -1.130  52.796  1.00  0.00     0.002 A 
HETATM   23  C13 UNL     1      26.282  -1.013  52.554  1.00  0.00     0.031 A 
ENDBRANCH  16  18
ENDBRANCH  13  16
ENDBRANCH   9  13
TORSDOF 4
ENDMDL
MODEL 2
REMARK VINA RESULT:      -7.8      3.181      5.457
REMARK  4 active torsions:
REMARK  status: ('A' for Active; 'I' for Inactive)
REMARK    1  A    between atoms: C7_9  and  N3_10 
REMARK    2  A    between atoms: N3_10  and  O1_11 
REMARK    3  A    between atoms: N3_10  and  N4_12 
REMARK    4  A    between atoms: N4_12  and  C8_13 
ROOT
HETATM    1  C1  UNL     1      17.964  -1.263  53.360  1.00  0.00     0.017 C 
HETATM    2  C2  UNL     1      19.143  -0.926  53.222  1.00  0.00    -0.082 C 
HETATM    3  C3  UNL     1      20.548  -0.517  53.076  1.00  0.00    -0.001 C 
HETATM    4  C4  UNL     1      20.933   0.207  52.047  1.00  0.00     0.030 C 
HETATM    5  C5  UNL     1      21.866   0.940  51.210  1.00  0.00     0.086 C 
HETATM    6  N1  UNL     1      22.820   0.699  52.002  1.00  0.00    -0.189 NA
HETATM    7  N2  UNL     1      24.107   1.219  51.702  1.00  0.00    -0.331 N 
HETATM    8  C6  UNL     1      23.705   1.364  53.077  1.00  0.00     0.276 A 
HETATM    9  C7  UNL     1      23.690   0.048  53.754  1.00  0.00     0.086 C 
HETATM   10  C14 UNL     1      22.765  -0.806  54.152  1.00  0.00     0.011 C 
HETATM   11  C15 UNL     1      21.316  -1.110  54.229  1.00  0.00     0.077 C 
HETATM   12  H4  UNL     1      24.447   1.145  50.739  1.00  0.00     0.176 HD
ENDROOT
BRANCH   9  13
HETATM   13  N3  UNL     1      25.038  -0.425  54.023  1.00  0.00    -0.165 N 
BRANCH  13  14
HETATM   14  O1  UNL     1      25.586  -0.944  52.898  1.00  0.00    -0.268 OA
HETATM   15  H7  UNL     1      24.834  -1.380  52.404  1.00  0.00     0.247 HD
ENDBRANCH  13  14
BRANCH  13  16
HETATM   16  N4  UNL     1      26.026  -0.562  55.017  1.00  0.00    -0.275 N 
HETATM   17  H8  UNL     1      25.821  -1.202  55.814  1.00  0.00     0.189 HD
BRANCH  16  18
HETATM   18  C8  UNL     1      27.017   0.323  54.482  1.00  0.00     0.050 A 
HETATM   19  C9  UNL     1      26.758   1.624  54.120  1.00  0.00     0.031 A 
HETATM   20  C10 UNL     1      27.778   2.416  53.609  1.00  0.00     0.002 A 
HETATM   21  C11 UNL     1      29.028   1.845  53.488  1.00  0.00     0.000 A 
HETATM   22  C12 UNL     1      29.287   0.539  53.851  1.00  0.00     0.002 A 
HETATM   23  C13 UNL     1      28.275  -0.280  54.369  1.00  0.00     0.031 A 
ENDBRANCH  16  18
ENDBRANCH  13  16
ENDBRANCH   9  13
TORSDOF 4
ENDMDL
MODEL 3
REMARK VINA RESULT:      -7.6      3.276      5.803
REMARK  4 active torsions:
REMARK  status: ('A' for Active; 'I' for Inactive)
REMARK    1  A    between atoms: C7_9  and  N3_10 
REMARK    2  A    between atoms: N3_10  and  O1_11 
REMARK    3  A    between atoms: N3_10  and  N4_12 
REMARK    4  A    between atoms: N4_12  and  C8_13 
ROOT
HETATM    1  C1  UNL     1      18.563  -0.910  53.251  1.00  0.00     0.017 C 
HETATM    2  C2  UNL     1      19.774  -0.736  53.412  1.00  0.00    -0.082 C 
HETATM    3  C3  UNL     1      21.221  -0.535  53.586  1.00  0.00    -0.001 C 
HETATM    4  C4  UNL     1      21.866  -1.120  54.571  1.00  0.00     0.030 C 
HETATM    5  C5  UNL     1      23.015  -1.470  55.388  1.00  0.00     0.086 C 
HETATM    6  N1  UNL     1      23.785  -0.785  54.658  1.00  0.00    -0.189 NA
HETATM    7  N2  UNL     1      25.170  -0.745  54.972  1.00  0.00    -0.331 N 
HETATM    8  C6  UNL     1      24.874  -0.922  53.574  1.00  0.00     0.276 A 
HETATM    9  C7  UNL     1      24.314   0.323  53.002  1.00  0.00     0.086 C 
HETATM   10  C14 UNL     1      23.119   0.746  52.633  1.00  0.00     0.011 C 
HETATM   11  C15 UNL     1      21.677   0.425  52.517  1.00  0.00     0.077 C 
HETATM   12  H4  UNL     1      25.442  -0.622  55.952  1.00  0.00     0.176 HD
ENDROOT
BRANCH   9  13
HETATM   13  N3  UNL     1      25.342   1.337  52.829  1.00  0.00    -0.165 N 
BRANCH  13  14
HETATM   14  O1  UNL     1      25.311   2.217  53.859  1.00  0.00    -0.268 OA
HETATM   15  H7  UNL     1      25.764   1.759  54.623  1.00  0.00     0.247 HD
ENDBRANCH  13  14
BRANCH  13  16
HETATM   16  N4  UNL     1      26.384   1.779  51.992  1.00  0.00    -0.275 N 
HETATM   17  H8  UNL     1      26.121   2.316  51.138  1.00  0.00     0.189 HD
BRANCH  16  18
HETATM   18  C8  UNL     1      27.503   1.261  52.722  1.00  0.00     0.050 A 
HETATM   19  C9  UNL     1      27.845  -0.070  52.745  1.00  0.00     0.031 A 
HETATM   20  C10 UNL     1      28.948  -0.488  53.479  1.00  0.00     0.002 A 
HETATM   21  C11 UNL     1      29.659   0.474  54.165  1.00  0.00     0.000 A 
HETATM   22  C12 UNL     1      29.315   1.811  54.142  1.00  0.00     0.002 A 
HETATM   23  C13 UNL     1      28.207   2.257  53.408  1.00  0.00     0.031 A 
ENDBRANCH  16  18
ENDBRANCH  13  16
ENDBRANCH   9  13
TORSDOF 4
ENDMDL
MODEL 4
REMARK VINA RESULT:      -7.6      1.496      5.753
REMARK  4 active torsions:
REMARK  status: ('A' for Active; 'I' for Inactive)
REMARK    1  A    between atoms: C7_9  and  N3_10 
REMARK    2  A    between atoms: N3_10  and  O1_11 
REMARK    3  A    between atoms: N3_10  and  N4_12 
REMARK    4  A    between atoms: N4_12  and  C8_13 
ROOT
HETATM    1  C1  UNL     1      29.659  -1.075  53.785  1.00  0.00     0.017 C 
HETATM    2  C2  UNL     1      28.607  -0.521  53.457  1.00  0.00    -0.082 C 
HETATM    3  C3  UNL     1      27.358   0.156  53.076  1.00  0.00    -0.001 C 
HETATM    4  C4  UNL     1      26.194  -0.427  53.266  1.00  0.00     0.030 C 
HETATM    5  C5  UNL     1      24.748  -0.552  53.236  1.00  0.00     0.086 C 
HETATM    6  N1  UNL     1      24.623   0.603  52.741  1.00  0.00    -0.189 NA
HETATM    7  N2  UNL     1      23.319   1.098  52.477  1.00  0.00    -0.331 N 
HETATM    8  C6  UNL     1      24.205   2.043  53.104  1.00  0.00     0.276 A 
HETATM    9  C7  UNL     1      25.256   2.475  52.155  1.00  0.00     0.086 C 
HETATM   10  C14 UNL     1      26.541   2.227  51.981  1.00  0.00     0.011 C 
HETATM   11  C15 UNL     1      27.729   1.479  52.456  1.00  0.00     0.077 C 
HETATM   12  H4  UNL     1      22.643   0.470  52.032  1.00  0.00     0.176 HD
ENDROOT
BRANCH   9  13
HETATM   13  N3  UNL     1      24.724   3.385  51.153  1.00  0.00    -0.165 N 
BRANCH  13  14
HETATM   14  O1  UNL     1      24.487   4.601  51.702  1.00  0.00    -0.268 OA
HETATM   15  H7  UNL     1      24.592   5.261  50.958  1.00  0.00     0.247 HD
ENDBRANCH  13  14
BRANCH  13  16
HETATM   16  N4  UNL     1      24.345   3.505  49.802  1.00  0.00    -0.275 N 
HETATM   17  H8  UNL     1      23.487   2.999  49.495  1.00  0.00     0.189 HD
BRANCH  16  18
HETATM   18  C8  UNL     1      25.397   4.362  49.343  1.00  0.00     0.050 A 
HETATM   19  C9  UNL     1      26.707   3.961  49.224  1.00  0.00     0.031 A 
HETATM   20  C10 UNL     1      27.666   4.857  48.769  1.00  0.00     0.002 A 
HETATM   21  C11 UNL     1      27.247   6.133  48.452  1.00  0.00     0.000 A 
HETATM   22  C12 UNL     1      25.932   6.535  48.572  1.00  0.00     0.002 A 
HETATM   23  C13 UNL     1      24.947   5.649  49.028  1.00  0.00     0.031 A 
ENDBRANCH  16  18
ENDBRANCH  13  16
ENDBRANCH   9  13
TORSDOF 4
ENDMDL
MODEL 5
REMARK VINA RESULT:      -7.6      2.498      4.699
REMARK  4 active torsions:
REMARK  status: ('A' for Active; 'I' for Inactive)
REMARK    1  A    between atoms: C7_9  and  N3_10 
REMARK    2  A    between atoms: N3_10  and  O1_11 
REMARK    3  A    between atoms: N3_10  and  N4_12 
REMARK    4  A    between atoms: N4_12  and  C8_13 
ROOT
HETATM    1  C1  UNL     1      19.108  -0.981  53.217  1.00  0.00     0.017 C 
HETATM    2  C2  UNL     1      20.039  -0.314  52.758  1.00  0.00    -0.082 C 
HETATM    3  C3  UNL     1      21.144   0.496  52.224  1.00  0.00    -0.001 C 
HETATM    4  C4  UNL     1      21.231   0.746  50.935  1.00  0.00     0.030 C 
HETATM    5  C5  UNL     1      21.801   1.307  49.724  1.00  0.00     0.086 C 
HETATM    6  N1  UNL     1      22.732   1.858  50.377  1.00  0.00    -0.189 NA
HETATM    7  N2  UNL     1      23.691   2.637  49.677  1.00  0.00    -0.331 N 
HETATM    8  C6  UNL     1      23.207   3.231  50.895  1.00  0.00     0.276 A 
HETATM    9  C7  UNL     1      23.720   2.492  52.070  1.00  0.00     0.086 C 
HETATM   10  C14 UNL     1      23.227   1.634  52.945  1.00  0.00     0.011 C 
HETATM   11  C15 UNL     1      22.041   0.859  53.379  1.00  0.00     0.077 C 
HETATM   12  H4  UNL     1      24.072   2.266  48.801  1.00  0.00     0.176 HD
ENDROOT
BRANCH   9  13
HETATM   13  N3  UNL     1      25.129   2.770  52.297  1.00  0.00    -0.165 N 
BRANCH  13  14
HETATM   14  O1  UNL     1      25.336   3.123  53.589  1.00  0.00    -0.268 OA
HETATM   15  H7  UNL     1      25.047   4.077  53.661  1.00  0.00     0.247 HD
ENDBRANCH  13  14
BRANCH  13  16
HETATM   16  N4  UNL     1      26.398   2.821  51.690  1.00  0.00    -0.275 N 
HETATM   17  H8  UNL     1      26.604   3.635  51.071  1.00  0.00     0.189 HD
BRANCH  16  18
HETATM   18  C8  UNL     1      26.956   1.612  52.218  1.00  0.00     0.050 A 
HETATM   19  C9  UNL     1      26.456   0.362  51.945  1.00  0.00     0.031 A 
HETATM   20  C10 UNL     1      27.059  -0.760  52.499  1.00  0.00     0.002 A 
HETATM   21  C11 UNL     1      28.154  -0.559  53.314  1.00  0.00     0.000 A 
HETATM   22  C12 UNL     1      28.656   0.697  53.587  1.00  0.00     0.002 A 
HETATM   23  C13 UNL     1      28.065   1.844  53.040  1.00  0.00     0.031 A 
ENDBRANCH  16  18
ENDBRANCH  13  16
ENDBRANCH   9  13
TORSDOF 4
ENDMDL
MODEL 6
REMARK VINA RESULT:      -7.5      2.312      3.479
REMARK  4 active torsions:
REMARK  status: ('A' for Active; 'I' for Inactive)
REMARK    1  A    between atoms: C7_9  and  N3_10 
REMARK    2  A    between atoms: N3_10  and  O1_11 
REMARK    3  A    between atoms: N3_10  and  N4_12 
REMARK    4  A    between atoms: N4_12  and  C8_13 
ROOT
HETATM    1  C1  UNL     1      22.397   3.188  47.985  1.00  0.00     0.017 C 
HETATM    2  C2  UNL     1      22.740   2.687  49.059  1.00  0.00    -0.082 C 
HETATM    3  C3  UNL     1      23.164   2.083  50.331  1.00  0.00    -0.001 C 
HETATM    4  C4  UNL     1      22.332   1.344  51.034  1.00  0.00     0.030 C 
HETATM    5  C5  UNL     1      21.904   0.511  52.142  1.00  0.00     0.086 C 
HETATM    6  N1  UNL     1      23.043   0.584  52.683  1.00  0.00    -0.189 NA
HETATM    7  N2  UNL     1      23.268  -0.107  53.902  1.00  0.00    -0.331 N 
HETATM    8  C6  UNL     1      24.325  -0.236  52.934  1.00  0.00     0.276 A 
HETATM    9  C7  UNL     1      25.049   1.046  52.784  1.00  0.00     0.086 C 
HETATM   10  C14 UNL     1      25.096   2.013  51.885  1.00  0.00     0.011 C 
HETATM   11  C15 UNL     1      24.582   2.522  50.592  1.00  0.00     0.077 C 
HETATM   12  H4  UNL     1      22.550  -0.053  54.631  1.00  0.00     0.176 HD
ENDROOT
BRANCH   9  13
HETATM   13  N3  UNL     1      25.904   1.309  53.930  1.00  0.00    -0.165 N 
BRANCH  13  14
HETATM   14  O1  UNL     1      26.259   2.617  53.960  1.00  0.00    -0.268 OA
HETATM   15  H7  UNL     1      26.086   2.968  53.040  1.00  0.00     0.247 HD
ENDBRANCH  13  14
BRANCH  13  16
HETATM   16  N4  UNL     1      26.528   0.728  55.050  1.00  0.00    -0.275 N 
HETATM   17  H8  UNL     1      26.073   0.862  55.979  1.00  0.00     0.189 HD
BRANCH  16  18
HETATM   18  C8  UNL     1      27.652   0.122  54.400  1.00  0.00     0.050 A 
HETATM   19  C9  UNL     1      27.570  -1.034  53.661  1.00  0.00     0.031 A 
HETATM   20  C10 UNL     1      28.711  -1.554  53.063  1.00  0.00     0.002 A 
HETATM   21  C11 UNL     1      29.894  -0.869  53.244  1.00  0.00     0.000 A 
HETATM   22  C12 UNL     1      29.976   0.292  53.986  1.00  0.00     0.002 A 
HETATM   23  C13 UNL     1      28.839   0.836  54.599  1.00  0.00     0.031 A 
ENDBRANCH  16  18
ENDBRANCH  13  16
ENDBRANCH   9  13
TORSDOF 4
ENDMDL
MODEL 7
REMARK VINA RESULT:      -7.5      2.297      3.097
REMARK  4 active torsions:
REMARK  status: ('A' for Active; 'I' for Inactive)
REMARK    1  A    between atoms: C7_9  and  N3_10 
REMARK    2  A    between atoms: N3_10  and  O1_11 
REMARK    3  A    between atoms: N3_10  and  N4_12 
REMARK    4  A    between atoms: N4_12  and  C8_13 
ROOT
HETATM    1  C1  UNL     1      22.060   3.575  47.054  1.00  0.00     0.017 C 
HETATM    2  C2  UNL     1      22.601   3.601  48.162  1.00  0.00    -0.082 C 
HETATM    3  C3  UNL     1      23.246   3.612  49.484  1.00  0.00    -0.001 C 
HETATM    4  C4  UNL     1      22.762   4.350  50.461  1.00  0.00     0.030 C 
HETATM    5  C5  UNL     1      22.692   4.906  51.800  1.00  0.00     0.086 C 
HETATM    6  N1  UNL     1      23.702   4.240  52.165  1.00  0.00    -0.189 NA
HETATM    7  N2  UNL     1      24.153   4.361  53.507  1.00  0.00    -0.331 N 
HETATM    8  C6  UNL     1      24.111   3.012  53.005  1.00  0.00     0.276 A 
HETATM    9  C7  UNL     1      25.170   2.804  51.992  1.00  0.00     0.086 C 
HETATM   10  C14 UNL     1      25.222   2.702  50.676  1.00  0.00     0.011 C 
HETATM   11  C15 UNL     1      24.459   2.722  49.406  1.00  0.00     0.077 C 
HETATM   12  H4  UNL     1      24.203   5.297  53.920  1.00  0.00     0.176 HD
ENDROOT
BRANCH   9  13
HETATM   13  N3  UNL     1      26.483   2.712  52.610  1.00  0.00    -0.165 N 
BRANCH  13  14
HETATM   14  O1  UNL     1      27.452   2.902  51.682  1.00  0.00    -0.268 OA
HETATM   15  H7  UNL     1      28.278   2.484  52.061  1.00  0.00     0.247 HD
ENDBRANCH  13  14
BRANCH  13  16
HETATM   16  N4  UNL     1      27.165   2.495  53.822  1.00  0.00    -0.275 N 
HETATM   17  H8  UNL     1      27.158   3.267  54.523  1.00  0.00     0.189 HD
BRANCH  16  18
HETATM   18  C8  UNL     1      27.644   1.166  53.584  1.00  0.00     0.050 A 
HETATM   19  C9  UNL     1      26.835   0.125  53.196  1.00  0.00     0.031 A 
HETATM   20  C10 UNL     1      27.382  -1.134  52.985  1.00  0.00     0.002 A 
HETATM   21  C11 UNL     1      28.740  -1.280  53.180  1.00  0.00     0.000 A 
HETATM   22  C12 UNL     1      29.552  -0.235  53.570  1.00  0.00     0.002 A 
HETATM   23  C13 UNL     1      29.023   1.045  53.788  1.00  0.00     0.031 A 
ENDBRANCH  16  18
ENDBRANCH  13  16
ENDBRANCH   9  13
TORSDOF 4
ENDMDL
MODEL 8
REMARK VINA RESULT:      -7.5      7.290      8.876
REMARK  4 active torsions:
REMARK  status: ('A' for Active; 'I' for Inactive)
REMARK    1  A    between atoms: C7_9  and  N3_10 
REMARK    2  A    between atoms: N3_10  and  O1_11 
REMARK    3  A    between atoms: N3_10  and  N4_12 
REMARK    4  A    between atoms: N4_12  and  C8_13 
ROOT
HETATM    1  C1  UNL     1      29.113  12.661  48.873  1.00  0.00     0.017 C 
HETATM    2  C2  UNL     1      29.283  11.439  48.892  1.00  0.00    -0.082 C 
HETATM    3  C3  UNL     1      29.498   9.985  48.899  1.00  0.00    -0.001 C 
HETATM    4  C4  UNL     1      28.481   9.155  48.809  1.00  0.00     0.030 C 
HETATM    5  C5  UNL     1      27.817   7.866  48.741  1.00  0.00     0.086 C 
HETATM    6  N1  UNL     1      28.921   7.255  48.801  1.00  0.00    -0.189 NA
HETATM    7  N2  UNL     1      28.923   5.836  48.757  1.00  0.00    -0.331 N 
HETATM    8  C6  UNL     1      29.923   6.465  47.934  1.00  0.00     0.276 A 
HETATM    9  C7  UNL     1      30.974   7.078  48.776  1.00  0.00     0.086 C 
HETATM   10  C14 UNL     1      31.304   8.302  49.146  1.00  0.00     0.011 C 
HETATM   11  C15 UNL     1      30.976   9.745  49.068  1.00  0.00     0.077 C 
HETATM   12  H4  UNL     1      28.232   5.332  49.321  1.00  0.00     0.176 HD
ENDROOT
BRANCH   9  13
HETATM   13  N3  UNL     1      31.845   6.067  49.355  1.00  0.00    -0.165 N 
BRANCH  13  14
HETATM   14  O1  UNL     1      31.215   5.432  50.373  1.00  0.00    -0.268 OA
HETATM   15  H7  UNL     1      31.330   4.455  50.198  1.00  0.00     0.247 HD
ENDBRANCH  13  14
BRANCH  13  16
HETATM   16  N4  UNL     1      33.119   5.472  49.276  1.00  0.00    -0.275 N 
HETATM   17  H8  UNL     1      33.734   5.539  50.115  1.00  0.00     0.189 HD
BRANCH  16  18
HETATM   18  C8  UNL     1      33.053   4.962  47.939  1.00  0.00     0.050 A 
HETATM   19  C9  UNL     1      32.389   3.808  47.598  1.00  0.00     0.031 A 
HETATM   20  C10 UNL     1      32.375   3.384  46.276  1.00  0.00     0.002 A 
HETATM   21  C11 UNL     1      33.041   4.160  45.350  1.00  0.00     0.000 A 
HETATM   22  C12 UNL     1      33.707   5.319  45.693  1.00  0.00     0.002 A 
HETATM   23  C13 UNL     1      33.736   5.767  47.020  1.00  0.00     0.031 A 
ENDBRANCH  16  18
ENDBRANCH  13  16
ENDBRANCH   9  13
TORSDOF 4
ENDMDL
MODEL 9
REMARK VINA RESULT:      -7.4      2.715      4.593
REMARK  4 active torsions:
REMARK  status: ('A' for Active; 'I' for Inactive)
REMARK    1  A    between atoms: C7_9  and  N3_10 
REMARK    2  A    between atoms: N3_10  and  O1_11 
REMARK    3  A    between atoms: N3_10  and  N4_12 
REMARK    4  A    between atoms: N4_12  and  C8_13 
ROOT
HETATM    1  C1  UNL     1      19.167  -0.554  53.083  1.00  0.00     0.017 C 
HETATM    2  C2  UNL     1      19.996   0.317  52.804  1.00  0.00    -0.082 C 
HETATM    3  C3  UNL     1      20.993   1.351  52.488  1.00  0.00    -0.001 C 
HETATM    4  C4  UNL     1      20.624   2.595  52.272  1.00  0.00     0.030 C 
HETATM    5  C5  UNL     1      20.806   4.003  51.969  1.00  0.00     0.086 C 
HETATM    6  N1  UNL     1      22.059   3.861  51.894  1.00  0.00    -0.189 NA
HETATM    7  N2  UNL     1      22.862   4.998  51.612  1.00  0.00    -0.331 N 
HETATM    8  C6  UNL     1      23.364   4.152  52.663  1.00  0.00     0.276 A 
HETATM    9  C7  UNL     1      23.854   2.871  52.106  1.00  0.00     0.086 C 
HETATM   10  C14 UNL     1      23.422   1.624  52.065  1.00  0.00     0.011 C 
HETATM   11  C15 UNL     1      22.341   0.679  52.435  1.00  0.00     0.077 C 
HETATM   12  H4  UNL     1      22.554   5.638  50.874  1.00  0.00     0.176 HD
ENDROOT
BRANCH   9  13
HETATM   13  N3  UNL     1      25.120   3.045  51.411  1.00  0.00    -0.165 N 
BRANCH  13  14
HETATM   14  O1  UNL     1      24.905   3.251  50.090  1.00  0.00    -0.268 OA
HETATM   15  H7  UNL     1      24.028   3.727  50.027  1.00  0.00     0.247 HD
ENDBRANCH  13  14
BRANCH  13  16
HETATM   16  N4  UNL     1      26.518   3.083  51.572  1.00  0.00    -0.275 N 
HETATM   17  H8  UNL     1      27.034   3.866  51.116  1.00  0.00     0.189 HD
BRANCH  16  18
HETATM   18  C8  UNL     1      26.690   1.913  52.381  1.00  0.00     0.050 A 
HETATM   19  C9  UNL     1      26.760   1.941  53.753  1.00  0.00     0.031 A 
HETATM   20  C10 UNL     1      26.927   0.758  54.462  1.00  0.00     0.002 A 
HETATM   21  C11 UNL     1      27.016  -0.412  53.736  1.00  0.00     0.000 A 
HETATM   22  C12 UNL     1      26.946  -0.440  52.358  1.00  0.00     0.002 A 
HETATM   23  C13 UNL     1      26.777   0.741  51.622  1.00  0.00     0.031 A 
ENDBRANCH  16  18
ENDBRANCH  13  16
ENDBRANCH   9  13
TORSDOF 4
ENDMDL
