MODEL 1
REMARK VINA RESULT:      -9.7      0.000      0.000
REMARK  5 active torsions:
REMARK  status: ('A' for Active; 'I' for Inactive)
REMARK    1  A    between atoms: C8_9  and  N2_10 
REMARK    2  A    between atoms: N2_10  and  C9_11 
REMARK    3  A    between atoms: C14_17  and  N4_18 
REMARK    4  A    between atoms: N4_18  and  C15_19 
REMARK    5  A    between atoms: C20_24  and  O1_25 
ROOT
HETATM    1  C9  UNL     1      23.990   2.035  52.329  1.00  0.00     0.090 A 
HETATM    2  C10 UNL     1      24.426   3.197  53.209  1.00  0.00     0.047 C 
HETATM    3  C11 UNL     1      22.526   1.866  52.512  1.00  0.00     0.067 A 
HETATM    4  C12 UNL     1      22.227   0.502  52.999  1.00  0.00    -0.005 A 
HETATM    5  C13 UNL     1      22.882  -0.603  53.315  1.00  0.00     0.115 A 
HETATM    6  N3  UNL     1      24.298  -0.386  53.119  1.00  0.00    -0.245 NA
HETATM    7  C14 UNL     1      24.699   0.787  52.689  1.00  0.00     0.128 A 
ENDROOT
BRANCH   1   8
HETATM    8  N2  UNL     1      24.383   2.383  50.988  1.00  0.00    -0.377 N 
HETATM    9  H11 UNL     1      24.146   1.801  50.150  1.00  0.00     0.160 HD
BRANCH   8  10
HETATM   10  C8  UNL     1      25.098   3.421  50.333  1.00  0.00     0.007 A 
HETATM   11  C7  UNL     1      26.318   3.172  49.829  1.00  0.00     0.025 A 
HETATM   12  C6  UNL     1      27.131   4.162  49.139  1.00  0.00     0.007 A 
HETATM   13  C5  UNL     1      26.602   5.348  49.017  1.00  0.00    -0.042 A 
HETATM   14  C2  UNL     1      25.263   5.764  49.507  1.00  0.00     0.013 A 
HETATM   15  C4  UNL     1      27.037   6.654  48.453  1.00  0.00     0.304 C 
HETATM   16  C1  UNL     1      24.472   6.228  48.275  1.00  0.00     0.022 C 
HETATM   17  C3  UNL     1      25.678   6.977  50.323  1.00  0.00     0.283 C 
HETATM   18  C21 UNL     1      24.494   4.768  50.256  1.00  0.00     0.072 A 
HETATM   19  N1  UNL     1      26.782   7.559  49.563  1.00  0.00     0.088 N 
HETATM   20  H6  UNL     1      26.574   8.514  49.238  1.00  0.00     0.316 HD
ENDBRANCH   8  10
ENDBRANCH   1   8
BRANCH   7  21
HETATM   21  N4  UNL     1      26.118   0.846  52.544  1.00  0.00    -0.362 N 
HETATM   22  H19 UNL     1      26.548   1.284  51.675  1.00  0.00     0.162 HD
BRANCH  21  23
HETATM   23  C15 UNL     1      27.013   0.322  53.558  1.00  0.00     0.162 C 
HETATM   24  C16 UNL     1      27.505  -0.992  53.064  1.00  0.00     0.001 C 
HETATM   25  C17 UNL     1      28.789  -1.329  53.133  1.00  0.00    -0.024 C 
HETATM   26  C18 UNL     1      29.828  -0.424  53.708  1.00  0.00     0.056 C 
HETATM   27  C19 UNL     1      29.339   0.953  53.869  1.00  0.00     0.011 C 
HETATM   28  C20 UNL     1      28.079   1.299  53.804  1.00  0.00     0.066 C 
BRANCH  28  29
HETATM   29  O1  UNL     1      27.606   2.604  53.957  1.00  0.00    -0.363 OA
HETATM   30  H26 UNL     1      26.826   2.976  53.406  1.00  0.00     0.217 HD
ENDBRANCH  28  29
ENDBRANCH  21  23
ENDBRANCH   7  21
TORSDOF 5
ENDMDL
MODEL 2
REMARK VINA RESULT:      -9.1      2.907      6.091
REMARK  5 active torsions:
REMARK  status: ('A' for Active; 'I' for Inactive)
REMARK    1  A    between atoms: C8_9  and  N2_10 
REMARK    2  A    between atoms: N2_10  and  C9_11 
REMARK    3  A    between atoms: C14_17  and  N4_18 
REMARK    4  A    between atoms: N4_18  and  C15_19 
REMARK    5  A    between atoms: C20_24  and  O1_25 
ROOT
HETATM    1  C9  UNL     1      23.355   3.701  51.610  1.00  0.00     0.090 A 
HETATM    2  C10 UNL     1      22.525   4.768  52.308  1.00  0.00     0.047 C 
HETATM    3  C11 UNL     1      23.908   4.308  50.374  1.00  0.00     0.067 A 
HETATM    4  C12 UNL     1      23.472   3.538  49.189  1.00  0.00    -0.005 A 
HETATM    5  C13 UNL     1      22.739   2.471  48.915  1.00  0.00     0.115 A 
HETATM    6  N3  UNL     1      22.227   1.920  50.149  1.00  0.00    -0.245 NA
HETATM    7  C14 UNL     1      22.540   2.512  51.278  1.00  0.00     0.128 A 
ENDROOT
BRANCH   1   8
HETATM    8  N2  UNL     1      24.352   3.287  52.564  1.00  0.00    -0.377 N 
HETATM    9  H11 UNL     1      24.463   3.728  53.507  1.00  0.00     0.160 HD
BRANCH   8  10
HETATM   10  C8  UNL     1      25.393   2.325  52.652  1.00  0.00     0.007 A 
HETATM   11  C7  UNL     1      25.529   1.403  51.683  1.00  0.00     0.025 A 
HETATM   12  C6  UNL     1      26.561   0.377  51.676  1.00  0.00     0.007 A 
HETATM   13  C5  UNL     1      27.388   0.394  52.684  1.00  0.00    -0.042 A 
HETATM   14  C2  UNL     1      27.371   1.358  53.814  1.00  0.00     0.013 A 
HETATM   15  C4  UNL     1      28.537  -0.438  53.132  1.00  0.00     0.304 C 
HETATM   16  C1  UNL     1      28.730   2.075  53.797  1.00  0.00     0.022 C 
HETATM   17  C3  UNL     1      27.341   0.368  54.966  1.00  0.00     0.283 C 
HETATM   18  C21 UNL     1      26.283   2.338  53.832  1.00  0.00     0.072 A 
HETATM   19  N1  UNL     1      28.168  -0.745  54.504  1.00  0.00     0.088 N 
HETATM   20  H6  UNL     1      28.995  -0.892  55.099  1.00  0.00     0.316 HD
ENDBRANCH   8  10
ENDBRANCH   1   8
BRANCH   7  21
HETATM   21  N4  UNL     1      21.962   1.852  52.405  1.00  0.00    -0.362 N 
HETATM   22  H19 UNL     1      21.595   2.421  53.225  1.00  0.00     0.162 HD
BRANCH  21  23
HETATM   23  C15 UNL     1      21.857   0.407  52.474  1.00  0.00     0.162 C 
HETATM   24  C16 UNL     1      22.760  -0.041  53.568  1.00  0.00     0.001 C 
HETATM   25  C17 UNL     1      22.374  -0.935  54.472  1.00  0.00    -0.024 C 
HETATM   26  C18 UNL     1      21.016  -1.555  54.460  1.00  0.00     0.056 C 
HETATM   27  C19 UNL     1      20.086  -0.841  53.574  1.00  0.00     0.011 C 
HETATM   28  C20 UNL     1      20.452   0.041  52.680  1.00  0.00     0.066 C 
BRANCH  28  29
HETATM   29  O1  UNL     1      19.575   0.724  51.834  1.00  0.00    -0.363 OA
HETATM   30  H26 UNL     1      19.861   1.543  51.288  1.00  0.00     0.217 HD
ENDBRANCH  28  29
ENDBRANCH  21  23
ENDBRANCH   7  21
TORSDOF 5
ENDMDL
MODEL 3
REMARK VINA RESULT:      -8.9      2.008      6.748
REMARK  5 active torsions:
REMARK  status: ('A' for Active; 'I' for Inactive)
REMARK    1  A    between atoms: C8_9  and  N2_10 
REMARK    2  A    between atoms: N2_10  and  C9_11 
REMARK    3  A    between atoms: C14_17  and  N4_18 
REMARK    4  A    between atoms: N4_18  and  C15_19 
REMARK    5  A    between atoms: C20_24  and  O1_25 
ROOT
HETATM    1  C9  UNL     1      23.612   4.764  50.791  1.00  0.00     0.090 A 
HETATM    2  C10 UNL     1      23.695   3.766  49.646  1.00  0.00     0.047 C 
HETATM    3  C11 UNL     1      22.176   5.069  51.010  1.00  0.00     0.067 A 
HETATM    4  C12 UNL     1      21.933   6.519  50.853  1.00  0.00    -0.005 A 
HETATM    5  C13 UNL     1      22.621   7.615  50.576  1.00  0.00     0.115 A 
HETATM    6  N3  UNL     1      24.009   7.263  50.374  1.00  0.00    -0.245 NA
HETATM    7  C14 UNL     1      24.359   6.003  50.485  1.00  0.00     0.128 A 
ENDROOT
BRANCH   1   8
HETATM    8  N2  UNL     1      24.262   4.135  51.913  1.00  0.00    -0.377 N 
HETATM    9  H11 UNL     1      24.775   4.670  52.653  1.00  0.00     0.160 HD
BRANCH   8  10
HETATM   10  C8  UNL     1      24.461   2.824  52.418  1.00  0.00     0.007 A 
HETATM   11  C7  UNL     1      23.398   2.073  52.756  1.00  0.00     0.025 A 
HETATM   12  C6  UNL     1      23.491   0.719  53.279  1.00  0.00     0.007 A 
HETATM   13  C5  UNL     1      24.697   0.239  53.404  1.00  0.00    -0.042 A 
HETATM   14  C2  UNL     1      25.960   0.941  53.058  1.00  0.00     0.013 A 
HETATM   15  C4  UNL     1      25.291  -1.028  53.911  1.00  0.00     0.304 C 
HETATM   16  C1  UNL     1      26.657   0.085  51.991  1.00  0.00     0.022 C 
HETATM   17  C3  UNL     1      26.688   0.782  54.382  1.00  0.00     0.283 C 
HETATM   18  C21 UNL     1      25.841   2.326  52.597  1.00  0.00     0.072 A 
HETATM   19  N1  UNL     1      26.278  -0.536  54.860  1.00  0.00     0.088 N 
HETATM   20  H6  UNL     1      27.073  -1.183  54.955  1.00  0.00     0.316 HD
ENDBRANCH   8  10
ENDBRANCH   1   8
BRANCH   7  21
HETATM   21  N4  UNL     1      25.757   5.816  50.259  1.00  0.00    -0.362 N 
HETATM   22  H19 UNL     1      26.411   5.647  51.080  1.00  0.00     0.162 HD
BRANCH  21  23
HETATM   23  C15 UNL     1      26.327   5.849  48.926  1.00  0.00     0.162 C 
HETATM   24  C16 UNL     1      26.758   7.251  48.674  1.00  0.00     0.001 C 
HETATM   25  C17 UNL     1      27.943   7.533  48.142  1.00  0.00    -0.024 C 
HETATM   26  C18 UNL     1      28.924   6.476  47.757  1.00  0.00     0.056 C 
HETATM   27  C19 UNL     1      28.580   5.164  48.324  1.00  0.00     0.011 C 
HETATM   28  C20 UNL     1      27.418   4.872  48.851  1.00  0.00     0.066 C 
BRANCH  28  29
HETATM   29  O1  UNL     1      27.083   3.629  49.391  1.00  0.00    -0.363 OA
HETATM   30  H26 UNL     1      27.275   2.747  48.907  1.00  0.00     0.217 HD
ENDBRANCH  28  29
ENDBRANCH  21  23
ENDBRANCH   7  21
TORSDOF 5
ENDMDL
MODEL 4
REMARK VINA RESULT:      -8.9      2.282      6.407
REMARK  5 active torsions:
REMARK  status: ('A' for Active; 'I' for Inactive)
REMARK    1  A    between atoms: C8_9  and  N2_10 
REMARK    2  A    between atoms: N2_10  and  C9_11 
REMARK    3  A    between atoms: C14_17  and  N4_18 
REMARK    4  A    between atoms: N4_18  and  C15_19 
REMARK    5  A    between atoms: C20_24  and  O1_25 
ROOT
HETATM    1  C9  UNL     1      23.709   2.888  50.557  1.00  0.00     0.090 A 
HETATM    2  C10 UNL     1      23.046   2.331  49.306  1.00  0.00     0.047 C 
HETATM    3  C11 UNL     1      22.813   2.591  51.703  1.00  0.00     0.067 A 
HETATM    4  C12 UNL     1      22.421   3.845  52.381  1.00  0.00    -0.005 A 
HETATM    5  C13 UNL     1      22.638   5.145  52.264  1.00  0.00     0.115 A 
HETATM    6  N3  UNL     1      23.515   5.378  51.138  1.00  0.00    -0.245 NA
HETATM    7  C14 UNL     1      23.937   4.345  50.448  1.00  0.00     0.128 A 
ENDROOT
BRANCH   1   8
HETATM    8  N2  UNL     1      25.001   2.255  50.637  1.00  0.00    -0.377 N 
HETATM    9  H11 UNL     1      25.582   2.025  49.797  1.00  0.00     0.160 HD
BRANCH   8  10
HETATM   10  C8  UNL     1      25.877   1.768  51.643  1.00  0.00     0.007 A 
HETATM   11  C7  UNL     1      26.898   2.534  52.064  1.00  0.00     0.025 A 
HETATM   12  C6  UNL     1      27.849   2.131  53.089  1.00  0.00     0.007 A 
HETATM   13  C5  UNL     1      27.657   0.952  53.611  1.00  0.00    -0.042 A 
HETATM   14  C2  UNL     1      26.567   0.005  53.261  1.00  0.00     0.013 A 
HETATM   15  C4  UNL     1      28.354   0.109  54.621  1.00  0.00     0.304 C 
HETATM   16  C1  UNL     1      25.772  -0.243  54.551  1.00  0.00     0.022 C 
HETATM   17  C3  UNL     1      27.412  -1.220  52.949  1.00  0.00     0.283 C 
HETATM   18  C21 UNL     1      25.665   0.407  52.180  1.00  0.00     0.072 A 
HETATM   19  N1  UNL     1      28.516  -1.145  53.902  1.00  0.00     0.088 N 
HETATM   20  H6  UNL     1      28.538  -1.952  54.541  1.00  0.00     0.316 HD
ENDBRANCH   8  10
ENDBRANCH   1   8
BRANCH   7  21
HETATM   21  N4  UNL     1      24.792   4.736  49.373  1.00  0.00    -0.362 N 
HETATM   22  H19 UNL     1      24.537   4.485  48.371  1.00  0.00     0.162 HD
BRANCH  21  23
HETATM   23  C15 UNL     1      26.020   5.473  49.601  1.00  0.00     0.162 C 
HETATM   24  C16 UNL     1      27.138   4.608  49.138  1.00  0.00     0.001 C 
HETATM   25  C17 UNL     1      28.127   5.086  48.389  1.00  0.00    -0.024 C 
HETATM   26  C18 UNL     1      28.194   6.514  47.960  1.00  0.00     0.056 C 
HETATM   27  C19 UNL     1      26.920   7.218  48.169  1.00  0.00     0.011 C 
HETATM   28  C20 UNL     1      25.939   6.760  48.903  1.00  0.00     0.066 C 
BRANCH  28  29
HETATM   29  O1  UNL     1      24.726   7.423  49.108  1.00  0.00    -0.363 OA
HETATM   30  H26 UNL     1      24.101   7.201  49.889  1.00  0.00     0.217 HD
ENDBRANCH  28  29
ENDBRANCH  21  23
ENDBRANCH   7  21
TORSDOF 5
ENDMDL
MODEL 5
REMARK VINA RESULT:      -8.6      3.596      7.400
REMARK  5 active torsions:
REMARK  status: ('A' for Active; 'I' for Inactive)
REMARK    1  A    between atoms: C8_9  and  N2_10 
REMARK    2  A    between atoms: N2_10  and  C9_11 
REMARK    3  A    between atoms: C14_17  and  N4_18 
REMARK    4  A    between atoms: N4_18  and  C15_19 
REMARK    5  A    between atoms: C20_24  and  O1_25 
ROOT
HETATM    1  C9  UNL     1      22.274   2.951  51.070  1.00  0.00     0.090 A 
HETATM    2  C10 UNL     1      21.689   4.250  51.603  1.00  0.00     0.047 C 
HETATM    3  C11 UNL     1      23.408   3.308  50.181  1.00  0.00     0.067 A 
HETATM    4  C12 UNL     1      23.179   2.773  48.822  1.00  0.00    -0.005 A 
HETATM    5  C13 UNL     1      22.263   2.072  48.174  1.00  0.00     0.115 A 
HETATM    6  N3  UNL     1      21.185   1.750  49.082  1.00  0.00    -0.245 NA
HETATM    7  C14 UNL     1      21.264   2.168  50.323  1.00  0.00     0.128 A 
ENDROOT
BRANCH   1   8
HETATM    8  N2  UNL     1      22.648   2.179  52.227  1.00  0.00    -0.377 N 
HETATM    9  H11 UNL     1      21.954   1.784  52.904  1.00  0.00     0.160 HD
BRANCH   8  10
HETATM   10  C8  UNL     1      23.839   1.707  52.840  1.00  0.00     0.007 A 
HETATM   11  C7  UNL     1      24.775   2.586  53.237  1.00  0.00     0.025 A 
HETATM   12  C6  UNL     1      26.026   2.208  53.876  1.00  0.00     0.007 A 
HETATM   13  C5  UNL     1      26.206   0.930  54.065  1.00  0.00    -0.042 A 
HETATM   14  C2  UNL     1      25.257  -0.152  53.696  1.00  0.00     0.013 A 
HETATM   15  C4  UNL     1      27.294   0.078  54.616  1.00  0.00     0.304 C 
HETATM   16  C1  UNL     1      24.903  -0.885  54.998  1.00  0.00     0.022 C 
HETATM   17  C3  UNL     1      26.196  -1.018  52.873  1.00  0.00     0.283 C 
HETATM   18  C21 UNL     1      24.036   0.250  52.994  1.00  0.00     0.072 A 
HETATM   19  N1  UNL     1      27.485  -0.892  53.550  1.00  0.00     0.088 N 
HETATM   20  H6  UNL     1      27.829  -1.793  53.909  1.00  0.00     0.316 HD
ENDBRANCH   8  10
ENDBRANCH   1   8
BRANCH   7  21
HETATM   21  N4  UNL     1      20.129   1.772  51.094  1.00  0.00    -0.362 N 
HETATM   22  H19 UNL     1      19.565   2.501  51.625  1.00  0.00     0.162 HD
BRANCH  21  23
HETATM   23  C15 UNL     1      19.710   0.387  51.181  1.00  0.00     0.162 C 
HETATM   24  C16 UNL     1      19.887  -0.031  52.598  1.00  0.00     0.001 C 
HETATM   25  C17 UNL     1      18.950  -0.713  53.249  1.00  0.00    -0.024 C 
HETATM   26  C18 UNL     1      17.659  -1.111  52.614  1.00  0.00     0.056 C 
HETATM   27  C19 UNL     1      17.416  -0.398  51.351  1.00  0.00     0.011 C 
HETATM   28  C20 UNL     1      18.329   0.276  50.700  1.00  0.00     0.066 C 
BRANCH  28  29
HETATM   29  O1  UNL     1      18.107   0.955  49.500  1.00  0.00    -0.363 OA
HETATM   30  H26 UNL     1      18.456   1.904  49.331  1.00  0.00     0.217 HD
ENDBRANCH  28  29
ENDBRANCH  21  23
ENDBRANCH   7  21
TORSDOF 5
ENDMDL
MODEL 6
REMARK VINA RESULT:      -8.6      1.949      2.561
REMARK  5 active torsions:
REMARK  status: ('A' for Active; 'I' for Inactive)
REMARK    1  A    between atoms: C8_9  and  N2_10 
REMARK    2  A    between atoms: N2_10  and  C9_11 
REMARK    3  A    between atoms: C14_17  and  N4_18 
REMARK    4  A    between atoms: N4_18  and  C15_19 
REMARK    5  A    between atoms: C20_24  and  O1_25 
ROOT
HETATM    1  C9  UNL     1      24.061   1.793  52.564  1.00  0.00     0.090 A 
HETATM    2  C10 UNL     1      24.559   2.975  53.382  1.00  0.00     0.047 C 
HETATM    3  C11 UNL     1      22.609   1.646  52.839  1.00  0.00     0.067 A 
HETATM    4  C12 UNL     1      22.328   0.299  53.383  1.00  0.00    -0.005 A 
HETATM    5  C13 UNL     1      22.991  -0.803  53.691  1.00  0.00     0.115 A 
HETATM    6  N3  UNL     1      24.394  -0.607  53.404  1.00  0.00    -0.245 NA
HETATM    7  C14 UNL     1      24.779   0.549  52.917  1.00  0.00     0.128 A 
ENDROOT
BRANCH   1   8
HETATM    8  N2  UNL     1      24.375   2.099  51.192  1.00  0.00    -0.377 N 
HETATM    9  H11 UNL     1      25.138   1.621  50.657  1.00  0.00     0.160 HD
BRANCH   8  10
HETATM   10  C8  UNL     1      23.913   2.972  50.173  1.00  0.00     0.007 A 
HETATM   11  C7  UNL     1      24.612   4.083  49.882  1.00  0.00     0.025 A 
HETATM   12  C6  UNL     1      24.227   5.041  48.856  1.00  0.00     0.007 A 
HETATM   13  C5  UNL     1      23.137   4.763  48.197  1.00  0.00    -0.042 A 
HETATM   14  C2  UNL     1      22.274   3.570  48.396  1.00  0.00     0.013 A 
HETATM   15  C4  UNL     1      22.341   5.425  47.128  1.00  0.00     0.304 C 
HETATM   16  C1  UNL     1      22.248   2.821  47.056  1.00  0.00     0.022 C 
HETATM   17  C3  UNL     1      20.943   4.275  48.602  1.00  0.00     0.283 C 
HETATM   18  C21 UNL     1      22.646   2.657  49.479  1.00  0.00     0.072 A 
HETATM   19  N1  UNL     1      21.007   5.428  47.707  1.00  0.00     0.088 N 
HETATM   20  H6  UNL     1      20.276   5.404  46.983  1.00  0.00     0.316 HD
ENDBRANCH   8  10
ENDBRANCH   1   8
BRANCH   7  21
HETATM   21  N4  UNL     1      26.187   0.588  52.685  1.00  0.00    -0.362 N 
HETATM   22  H19 UNL     1      26.569   1.039  51.801  1.00  0.00     0.162 HD
BRANCH  21  23
HETATM   23  C15 UNL     1      27.134   0.026  53.629  1.00  0.00     0.162 C 
HETATM   24  C16 UNL     1      27.592  -1.270  53.062  1.00  0.00     0.001 C 
HETATM   25  C17 UNL     1      28.877  -1.612  53.049  1.00  0.00    -0.024 C 
HETATM   26  C18 UNL     1      29.949  -0.731  53.598  1.00  0.00     0.056 C 
HETATM   27  C19 UNL     1      29.475   0.640  53.835  1.00  0.00     0.011 C 
HETATM   28  C20 UNL     1      28.215   0.991  53.852  1.00  0.00     0.066 C 
BRANCH  28  29
HETATM   29  O1  UNL     1      27.757   2.291  54.076  1.00  0.00    -0.363 OA
HETATM   30  H26 UNL     1      28.231   2.941  54.710  1.00  0.00     0.217 HD
ENDBRANCH  28  29
ENDBRANCH  21  23
ENDBRANCH   7  21
TORSDOF 5
ENDMDL
MODEL 7
REMARK VINA RESULT:      -8.4      1.930      2.814
REMARK  5 active torsions:
REMARK  status: ('A' for Active; 'I' for Inactive)
REMARK    1  A    between atoms: C8_9  and  N2_10 
REMARK    2  A    between atoms: N2_10  and  C9_11 
REMARK    3  A    between atoms: C14_17  and  N4_18 
REMARK    4  A    between atoms: N4_18  and  C15_19 
REMARK    5  A    between atoms: C20_24  and  O1_25 
ROOT
HETATM    1  C9  UNL     1      23.497   3.861  50.929  1.00  0.00     0.090 A 
HETATM    2  C10 UNL     1      22.952   4.651  52.109  1.00  0.00     0.047 C 
HETATM    3  C11 UNL     1      22.722   4.265  49.729  1.00  0.00     0.067 A 
HETATM    4  C12 UNL     1      22.065   3.085  49.126  1.00  0.00    -0.005 A 
HETATM    5  C13 UNL     1      21.972   1.783  49.344  1.00  0.00     0.115 A 
HETATM    6  N3  UNL     1      22.744   1.444  50.518  1.00  0.00    -0.245 NA
HETATM    7  C14 UNL     1      23.377   2.403  51.151  1.00  0.00     0.128 A 
ENDROOT
BRANCH   1   8
HETATM    8  N2  UNL     1      24.903   4.171  50.858  1.00  0.00    -0.377 N 
HETATM    9  H11 UNL     1      25.601   3.841  51.565  1.00  0.00     0.160 HD
BRANCH   8  10
HETATM   10  C8  UNL     1      25.782   4.891  50.006  1.00  0.00     0.007 A 
HETATM   11  C7  UNL     1      26.825   4.259  49.442  1.00  0.00     0.025 A 
HETATM   12  C6  UNL     1      27.782   4.901  48.554  1.00  0.00     0.007 A 
HETATM   13  C5  UNL     1      27.573   6.166  48.310  1.00  0.00    -0.042 A 
HETATM   14  C2  UNL     1      26.458   6.988  48.847  1.00  0.00     0.013 A 
HETATM   15  C4  UNL     1      28.266   7.229  47.534  1.00  0.00     0.304 C 
HETATM   16  C1  UNL     1      25.677   7.511  47.633  1.00  0.00     0.022 C 
HETATM   17  C3  UNL     1      27.272   8.124  49.446  1.00  0.00     0.283 C 
HETATM   18  C21 UNL     1      25.549   6.334  49.790  1.00  0.00     0.072 A 
HETATM   19  N1  UNL     1      28.392   8.288  48.522  1.00  0.00     0.088 N 
HETATM   20  H6  UNL     1      28.405   9.220  48.085  1.00  0.00     0.316 HD
ENDBRANCH   8  10
ENDBRANCH   1   8
BRANCH   7  21
HETATM   21  N4  UNL     1      24.093   1.912  52.285  1.00  0.00    -0.362 N 
HETATM   22  H19 UNL     1      24.031   2.423  53.216  1.00  0.00     0.162 HD
BRANCH  21  23
HETATM   23  C15 UNL     1      24.917   0.721  52.213  1.00  0.00     0.162 C 
HETATM   24  C16 UNL     1      26.307   1.173  51.934  1.00  0.00     0.001 C 
HETATM   25  C17 UNL     1      27.348   0.682  52.598  1.00  0.00    -0.024 C 
HETATM   26  C18 UNL     1      27.206  -0.352  53.665  1.00  0.00     0.056 C 
HETATM   27  C19 UNL     1      25.813  -0.507  54.108  1.00  0.00     0.011 C 
HETATM   28  C20 UNL     1      24.779  -0.030  53.464  1.00  0.00     0.066 C 
BRANCH  28  29
HETATM   29  O1  UNL     1      23.453  -0.173  53.878  1.00  0.00    -0.363 OA
HETATM   30  H26 UNL     1      22.967  -1.076  53.871  1.00  0.00     0.217 HD
ENDBRANCH  28  29
ENDBRANCH  21  23
ENDBRANCH   7  21
TORSDOF 5
ENDMDL
MODEL 8
REMARK VINA RESULT:      -8.4      1.970      6.178
REMARK  5 active torsions:
REMARK  status: ('A' for Active; 'I' for Inactive)
REMARK    1  A    between atoms: C8_9  and  N2_10 
REMARK    2  A    between atoms: N2_10  and  C9_11 
REMARK    3  A    between atoms: C14_17  and  N4_18 
REMARK    4  A    between atoms: N4_18  and  C15_19 
REMARK    5  A    between atoms: C20_24  and  O1_25 
ROOT
HETATM    1  C9  UNL     1      23.284   3.109  51.563  1.00  0.00     0.090 A 
HETATM    2  C10 UNL     1      23.460   2.137  50.406  1.00  0.00     0.047 C 
HETATM    3  C11 UNL     1      21.841   3.123  51.914  1.00  0.00     0.067 A 
HETATM    4  C12 UNL     1      21.300   4.494  51.792  1.00  0.00    -0.005 A 
HETATM    5  C13 UNL     1      21.728   5.703  51.465  1.00  0.00     0.115 A 
HETATM    6  N3  UNL     1      23.134   5.633  51.135  1.00  0.00    -0.245 NA
HETATM    7  C14 UNL     1      23.737   4.470  51.202  1.00  0.00     0.128 A 
ENDROOT
BRANCH   1   8
HETATM    8  N2  UNL     1      24.145   2.634  52.616  1.00  0.00    -0.377 N 
HETATM    9  H11 UNL     1      23.999   2.867  53.626  1.00  0.00     0.160 HD
BRANCH   8  10
HETATM   10  C8  UNL     1      25.305   1.825  52.746  1.00  0.00     0.007 A 
HETATM   11  C7  UNL     1      25.485   0.784  51.916  1.00  0.00     0.025 A 
HETATM   12  C6  UNL     1      26.638  -0.103  51.963  1.00  0.00     0.007 A 
HETATM   13  C5  UNL     1      27.530   0.170  52.875  1.00  0.00    -0.042 A 
HETATM   14  C2  UNL     1      27.473   1.292  53.847  1.00  0.00     0.013 A 
HETATM   15  C4  UNL     1      28.807  -0.442  53.330  1.00  0.00     0.304 C 
HETATM   16  C1  UNL     1      28.722   2.149  53.597  1.00  0.00     0.022 C 
HETATM   17  C3  UNL     1      27.658   0.499  55.131  1.00  0.00     0.283 C 
HETATM   18  C21 UNL     1      26.272   2.128  53.822  1.00  0.00     0.072 A 
HETATM   19  N1  UNL     1      28.585  -0.568  54.762  1.00  0.00     0.088 N 
HETATM   20  H6  UNL     1      29.466  -0.523  55.292  1.00  0.00     0.316 HD
ENDBRANCH   8  10
ENDBRANCH   1   8
BRANCH   7  21
HETATM   21  N4  UNL     1      25.117   4.564  50.848  1.00  0.00    -0.362 N 
HETATM   22  H19 UNL     1      25.868   4.387  51.581  1.00  0.00     0.162 HD
BRANCH  21  23
HETATM   23  C15 UNL     1      25.542   4.897  49.503  1.00  0.00     0.162 C 
HETATM   24  C16 UNL     1      25.623   6.380  49.429  1.00  0.00     0.001 C 
HETATM   25  C17 UNL     1      26.661   6.997  48.872  1.00  0.00    -0.024 C 
HETATM   26  C18 UNL     1      27.815   6.256  48.282  1.00  0.00     0.056 C 
HETATM   27  C19 UNL     1      27.826   4.839  48.674  1.00  0.00     0.011 C 
HETATM   28  C20 UNL     1      26.812   4.220  49.222  1.00  0.00     0.066 C 
BRANCH  28  29
HETATM   29  O1  UNL     1      26.814   2.874  49.598  1.00  0.00    -0.363 OA
HETATM   30  H26 UNL     1      25.999   2.266  49.475  1.00  0.00     0.217 HD
ENDBRANCH  28  29
ENDBRANCH  21  23
ENDBRANCH   7  21
TORSDOF 5
ENDMDL
MODEL 9
REMARK VINA RESULT:      -8.3      6.144      9.792
REMARK  5 active torsions:
REMARK  status: ('A' for Active; 'I' for Inactive)
REMARK    1  A    between atoms: C8_9  and  N2_10 
REMARK    2  A    between atoms: N2_10  and  C9_11 
REMARK    3  A    between atoms: C14_17  and  N4_18 
REMARK    4  A    between atoms: N4_18  and  C15_19 
REMARK    5  A    between atoms: C20_24  and  O1_25 
ROOT
HETATM    1  C9  UNL     1      31.268   9.025  48.448  1.00  0.00     0.090 A 
HETATM    2  C10 UNL     1      32.055   8.471  49.627  1.00  0.00     0.047 C 
HETATM    3  C11 UNL     1      32.050  10.156  47.886  1.00  0.00     0.067 A 
HETATM    4  C12 UNL     1      31.245  11.396  47.915  1.00  0.00    -0.005 A 
HETATM    5  C13 UNL     1      30.038  11.786  48.293  1.00  0.00     0.115 A 
HETATM    6  N3  UNL     1      29.321  10.651  48.829  1.00  0.00    -0.245 NA
HETATM    7  C14 UNL     1      29.925   9.486  48.862  1.00  0.00     0.128 A 
ENDROOT
BRANCH   1   8
HETATM    8  N2  UNL     1      31.084   7.923  47.539  1.00  0.00    -0.377 N 
HETATM    9  H11 UNL     1      30.360   7.916  46.784  1.00  0.00     0.160 HD
BRANCH   8  10
HETATM   10  C8  UNL     1      31.658   6.646  47.300  1.00  0.00     0.007 A 
HETATM   11  C7  UNL     1      30.959   5.537  47.598  1.00  0.00     0.025 A 
HETATM   12  C6  UNL     1      31.452   4.185  47.389  1.00  0.00     0.007 A 
HETATM   13  C5  UNL     1      32.645   4.087  46.872  1.00  0.00    -0.042 A 
HETATM   14  C2  UNL     1      33.524   5.218  46.478  1.00  0.00     0.013 A 
HETATM   15  C4  UNL     1      33.565   2.971  46.522  1.00  0.00     0.304 C 
HETATM   16  C1  UNL     1      33.797   5.056  44.975  1.00  0.00     0.022 C 
HETATM   17  C3  UNL     1      34.769   4.830  47.258  1.00  0.00     0.283 C 
HETATM   18  C21 UNL     1      33.031   6.567  46.760  1.00  0.00     0.072 A 
HETATM   19  N1  UNL     1      34.790   3.370  47.197  1.00  0.00     0.088 N 
HETATM   20  H6  UNL     1      35.627   3.010  46.717  1.00  0.00     0.316 HD
ENDBRANCH   8  10
ENDBRANCH   1   8
BRANCH   7  21
HETATM   21  N4  UNL     1      29.091   8.468  49.416  1.00  0.00    -0.362 N 
HETATM   22  H19 UNL     1      29.463   7.834  50.185  1.00  0.00     0.162 HD
BRANCH  21  23
HETATM   23  C15 UNL     1      27.730   8.262  48.960  1.00  0.00     0.162 C 
HETATM   24  C16 UNL     1      27.672   6.896  48.373  1.00  0.00     0.001 C 
HETATM   25  C17 UNL     1      26.680   6.057  48.653  1.00  0.00    -0.024 C 
HETATM   26  C18 UNL     1      25.556   6.416  49.568  1.00  0.00     0.056 C 
HETATM   27  C19 UNL     1      25.842   7.627  50.352  1.00  0.00     0.011 C 
HETATM   28  C20 UNL     1      26.814   8.461  50.088  1.00  0.00     0.066 C 
BRANCH  28  29
HETATM   29  O1  UNL     1      27.092   9.614  50.827  1.00  0.00    -0.363 OA
HETATM   30  H26 UNL     1      26.445  10.407  50.876  1.00  0.00     0.217 HD
ENDBRANCH  28  29
ENDBRANCH  21  23
ENDBRANCH   7  21
TORSDOF 5
ENDMDL
