MODEL 1
REMARK VINA RESULT:      -7.9      0.000      0.000
REMARK  5 active torsions:
REMARK  status: ('A' for Active; 'I' for Inactive)
REMARK    1  A    between atoms: C8_8  and  S1_9 
REMARK    2  A    between atoms: S1_9  and  N1_11 
REMARK    3  A    between atoms: N1_11  and  C9_12 
REMARK    4  A    between atoms: C9_12  and  C10_13 
REMARK    5  A    between atoms: C10_13  and  C11_14 
ROOT
HETATM    1  N1  UNL     1      25.416   2.901  53.170  1.00  0.00    -0.238 NA
HETATM    2  H12 UNL     1      25.718   2.624  54.114  1.00  0.00     0.137 HD
ENDROOT
BRANCH   1   3
HETATM    3  S1  UNL     1      26.167   1.891  51.992  1.00  0.00     0.121 S 
HETATM    4  O1  UNL     1      27.205   2.632  51.165  1.00  0.00    -0.236 OA
BRANCH   3   5
HETATM    5  C8  UNL     1      26.890   0.489  52.834  1.00  0.00     0.028 C 
HETATM    6  C2  UNL     1      27.450   0.753  54.159  1.00  0.00     0.047 C 
HETATM    7  C1  UNL     1      26.451   0.319  55.210  1.00  0.00     0.020 C 
HETATM    8  C3  UNL     1      28.719   0.044  54.433  1.00  0.00    -0.021 C 
HETATM    9  C4  UNL     1      29.344  -1.020  53.929  1.00  0.00    -0.030 C 
HETATM   10  C5  UNL     1      28.891  -1.888  52.828  1.00  0.00     0.030 C 
HETATM   11  C6  UNL     1      27.390  -1.947  52.689  1.00  0.00     0.032 C 
HETATM   12  C7  UNL     1      26.851  -0.668  52.176  1.00  0.00    -0.008 C 
ENDBRANCH   3   5
ENDBRANCH   1   3
BRANCH   1  13
HETATM   13  C9  UNL     1      23.975   2.958  53.035  1.00  0.00     0.106 C 
BRANCH  13  14
HETATM   14  C10 UNL     1      23.485   1.898  52.109  1.00  0.00     0.054 C 
BRANCH  14  15
HETATM   15  C11 UNL     1      22.688   0.866  52.777  1.00  0.00    -0.057 A 
HETATM   16  C12 UNL     1      23.333  -0.251  53.270  1.00  0.00     0.010 A 
HETATM   17  C13 UNL     1      22.499  -1.184  53.891  1.00  0.00     0.043 A 
HETATM   18  C14 UNL     1      21.138  -1.065  54.036  1.00  0.00     0.116 A 
HETATM   19  F1  UNL     1      20.404  -2.013  54.650  1.00  0.00    -0.206 F 
HETATM   20  C15 UNL     1      20.535   0.070  53.528  1.00  0.00     0.043 A 
HETATM   21  C16 UNL     1      21.329   1.024  52.901  1.00  0.00     0.010 A 
ENDBRANCH  14  15
ENDBRANCH  13  14
ENDBRANCH   1  13
TORSDOF 5
ENDMDL
MODEL 2
REMARK VINA RESULT:      -7.7      2.567      6.024
REMARK  5 active torsions:
REMARK  status: ('A' for Active; 'I' for Inactive)
REMARK    1  A    between atoms: C8_8  and  S1_9 
REMARK    2  A    between atoms: S1_9  and  N1_11 
REMARK    3  A    between atoms: N1_11  and  C9_12 
REMARK    4  A    between atoms: C9_12  and  C10_13 
REMARK    5  A    between atoms: C10_13  and  C11_14 
ROOT
HETATM    1  N1  UNL     1      25.228   2.641  51.283  1.00  0.00    -0.238 NA
HETATM    2  H12 UNL     1      24.762   1.926  50.706  1.00  0.00     0.137 HD
ENDROOT
BRANCH   1   3
HETATM    3  S1  UNL     1      24.403   2.813  52.786  1.00  0.00     0.121 S 
HETATM    4  O1  UNL     1      23.704   4.156  52.918  1.00  0.00    -0.236 OA
BRANCH   3   5
HETATM    5  C8  UNL     1      23.244   1.461  52.949  1.00  0.00     0.028 C 
HETATM    6  C2  UNL     1      21.920   1.675  52.365  1.00  0.00     0.047 C 
HETATM    7  C1  UNL     1      21.862   0.993  51.016  1.00  0.00     0.020 C 
HETATM    8  C3  UNL     1      20.805   1.145  53.180  1.00  0.00    -0.021 C 
HETATM    9  C4  UNL     1      20.682   0.243  54.155  1.00  0.00    -0.030 C 
HETATM   10  C5  UNL     1      21.749  -0.571  54.763  1.00  0.00     0.030 C 
HETATM   11  C6  UNL     1      22.902  -0.844  53.829  1.00  0.00     0.032 C 
HETATM   12  C7  UNL     1      23.694   0.383  53.586  1.00  0.00    -0.008 C 
ENDBRANCH   3   5
ENDBRANCH   1   3
BRANCH   1  13
HETATM   13  C9  UNL     1      26.648   2.399  51.438  1.00  0.00     0.106 C 
BRANCH  13  14
HETATM   14  C10 UNL     1      26.983   2.087  52.856  1.00  0.00     0.054 C 
BRANCH  14  15
HETATM   15  C11 UNL     1      27.651   0.793  53.025  1.00  0.00    -0.057 A 
HETATM   16  C12 UNL     1      26.980  -0.350  52.639  1.00  0.00     0.010 A 
HETATM   17  C13 UNL     1      27.688  -1.539  52.833  1.00  0.00     0.043 A 
HETATM   18  C14 UNL     1      28.952  -1.637  53.362  1.00  0.00     0.116 A 
HETATM   19  F1  UNL     1      29.566  -2.825  53.517  1.00  0.00    -0.206 F 
HETATM   20  C15 UNL     1      29.585  -0.466  53.734  1.00  0.00     0.043 A 
HETATM   21  C16 UNL     1      28.916   0.740  53.557  1.00  0.00     0.010 A 
ENDBRANCH  14  15
ENDBRANCH  13  14
ENDBRANCH   1  13
TORSDOF 5
ENDMDL
MODEL 3
REMARK VINA RESULT:      -7.2      2.682      5.755
REMARK  5 active torsions:
REMARK  status: ('A' for Active; 'I' for Inactive)
REMARK    1  A    between atoms: C8_8  and  S1_9 
REMARK    2  A    between atoms: S1_9  and  N1_11 
REMARK    3  A    between atoms: N1_11  and  C9_12 
REMARK    4  A    between atoms: C9_12  and  C10_13 
REMARK    5  A    between atoms: C10_13  and  C11_14 
ROOT
HETATM    1  N1  UNL     1      24.137   2.821  50.848  1.00  0.00    -0.238 NA
HETATM    2  H12 UNL     1      24.108   1.848  50.513  1.00  0.00     0.137 HD
ENDROOT
BRANCH   1   3
HETATM    3  S1  UNL     1      23.304   2.950  52.352  1.00  0.00     0.121 S 
HETATM    4  O1  UNL     1      22.187   3.979  52.313  1.00  0.00    -0.236 OA
BRANCH   3   5
HETATM    5  C8  UNL     1      22.679   1.332  52.788  1.00  0.00     0.028 C 
HETATM    6  C2  UNL     1      21.258   1.101  52.529  1.00  0.00     0.047 C 
HETATM    7  C1  UNL     1      21.113   0.330  51.234  1.00  0.00     0.020 C 
HETATM    8  C3  UNL     1      20.567   0.328  53.585  1.00  0.00    -0.021 C 
HETATM    9  C4  UNL     1      20.944  -0.493  54.566  1.00  0.00    -0.030 C 
HETATM   10  C5  UNL     1      22.314  -0.907  54.912  1.00  0.00     0.030 C 
HETATM   11  C6  UNL     1      23.260  -0.897  53.736  1.00  0.00     0.032 C 
HETATM   12  C7  UNL     1      23.565   0.487  53.308  1.00  0.00    -0.008 C 
ENDBRANCH   3   5
ENDBRANCH   1   3
BRANCH   1  13
HETATM   13  C9  UNL     1      25.481   3.359  50.895  1.00  0.00     0.106 C 
BRANCH  13  14
HETATM   14  C10 UNL     1      26.488   2.302  50.597  1.00  0.00     0.054 C 
BRANCH  14  15
HETATM   15  C11 UNL     1      26.980   1.615  51.795  1.00  0.00    -0.057 A 
HETATM   16  C12 UNL     1      26.712   0.269  51.941  1.00  0.00     0.010 A 
HETATM   17  C13 UNL     1      27.216  -0.307  53.110  1.00  0.00     0.043 A 
HETATM   18  C14 UNL     1      27.930   0.353  54.080  1.00  0.00     0.116 A 
HETATM   19  F1  UNL     1      28.382  -0.276  55.181  1.00  0.00    -0.206 F 
HETATM   20  C15 UNL     1      28.174   1.701  53.892  1.00  0.00     0.043 A 
HETATM   21  C16 UNL     1      27.690   2.313  52.741  1.00  0.00     0.010 A 
ENDBRANCH  14  15
ENDBRANCH  13  14
ENDBRANCH   1  13
TORSDOF 5
ENDMDL
MODEL 4
REMARK VINA RESULT:      -7.0      2.646      5.538
REMARK  5 active torsions:
REMARK  status: ('A' for Active; 'I' for Inactive)
REMARK    1  A    between atoms: C8_8  and  S1_9 
REMARK    2  A    between atoms: S1_9  and  N1_11 
REMARK    3  A    between atoms: N1_11  and  C9_12 
REMARK    4  A    between atoms: C9_12  and  C10_13 
REMARK    5  A    between atoms: C10_13  and  C11_14 
ROOT
HETATM    1  N1  UNL     1      22.834   3.530  51.996  1.00  0.00    -0.238 NA
HETATM    2  H12 UNL     1      22.582   4.467  51.652  1.00  0.00     0.137 HD
ENDROOT
BRANCH   1   3
HETATM    3  S1  UNL     1      21.977   2.328  51.106  1.00  0.00     0.121 S 
HETATM    4  O1  UNL     1      22.718   1.889  49.854  1.00  0.00    -0.236 OA
BRANCH   3   5
HETATM    5  C8  UNL     1      21.662   0.943  52.192  1.00  0.00     0.028 C 
HETATM    6  C2  UNL     1      20.431   1.010  52.980  1.00  0.00     0.047 C 
HETATM    7  C1  UNL     1      19.370   0.167  52.306  1.00  0.00     0.020 C 
HETATM    8  C3  UNL     1      20.573   0.520  54.368  1.00  0.00    -0.021 C 
HETATM    9  C4  UNL     1      21.434  -0.262  55.020  1.00  0.00    -0.030 C 
HETATM   10  C5  UNL     1      22.625  -0.935  54.473  1.00  0.00     0.030 C 
HETATM   11  C6  UNL     1      22.512  -1.254  53.002  1.00  0.00     0.032 C 
HETATM   12  C7  UNL     1      22.577  -0.023  52.183  1.00  0.00    -0.008 C 
ENDBRANCH   3   5
ENDBRANCH   1   3
BRANCH   1  13
HETATM   13  C9  UNL     1      24.266   3.307  52.020  1.00  0.00     0.106 C 
BRANCH  13  14
HETATM   14  C10 UNL     1      24.700   2.784  53.346  1.00  0.00     0.054 C 
BRANCH  14  15
HETATM   15  C11 UNL     1      25.590   1.623  53.250  1.00  0.00    -0.057 A 
HETATM   16  C12 UNL     1      26.121   1.101  54.412  1.00  0.00     0.010 A 
HETATM   17  C13 UNL     1      26.958  -0.003  54.229  1.00  0.00     0.043 A 
HETATM   18  C14 UNL     1      27.272  -0.575  53.021  1.00  0.00     0.116 A 
HETATM   19  F1  UNL     1      28.090  -1.640  52.931  1.00  0.00    -0.206 F 
HETATM   20  C15 UNL     1      26.717  -0.018  51.884  1.00  0.00     0.043 A 
HETATM   21  C16 UNL     1      25.878   1.082  52.021  1.00  0.00     0.010 A 
ENDBRANCH  14  15
ENDBRANCH  13  14
ENDBRANCH   1  13
TORSDOF 5
ENDMDL
MODEL 5
REMARK VINA RESULT:      -6.9      5.031      7.397
REMARK  5 active torsions:
REMARK  status: ('A' for Active; 'I' for Inactive)
REMARK    1  A    between atoms: C8_8  and  S1_9 
REMARK    2  A    between atoms: S1_9  and  N1_11 
REMARK    3  A    between atoms: N1_11  and  C9_12 
REMARK    4  A    between atoms: C9_12  and  C10_13 
REMARK    5  A    between atoms: C10_13  and  C11_14 
ROOT
HETATM    1  N1  UNL     1      25.531   3.135  51.831  1.00  0.00    -0.238 NA
HETATM    2  H12 UNL     1      24.571   3.331  51.514  1.00  0.00     0.137 HD
ENDROOT
BRANCH   1   3
HETATM    3  S1  UNL     1      25.539   1.753  52.861  1.00  0.00     0.121 S 
HETATM    4  O1  UNL     1      25.914   2.096  54.294  1.00  0.00    -0.236 OA
BRANCH   3   5
HETATM    5  C8  UNL     1      23.928   0.981  52.780  1.00  0.00     0.028 C 
HETATM    6  C2  UNL     1      22.867   1.775  52.160  1.00  0.00     0.047 C 
HETATM    7  C1  UNL     1      22.680   1.315  50.730  1.00  0.00     0.020 C 
HETATM    8  C3  UNL     1      21.555   1.665  52.836  1.00  0.00    -0.021 C 
HETATM    9  C4  UNL     1      20.984   0.798  53.674  1.00  0.00    -0.030 C 
HETATM   10  C5  UNL     1      21.570  -0.437  54.223  1.00  0.00     0.030 C 
HETATM   11  C6  UNL     1      22.609  -1.060  53.324  1.00  0.00     0.032 C 
HETATM   12  C7  UNL     1      23.844  -0.245  53.289  1.00  0.00    -0.008 C 
ENDBRANCH   3   5
ENDBRANCH   1   3
BRANCH   1  13
HETATM   13  C9  UNL     1      26.474   3.034  50.736  1.00  0.00     0.106 C 
BRANCH  13  14
HETATM   14  C10 UNL     1      25.891   3.587  49.480  1.00  0.00     0.054 C 
BRANCH  14  15
HETATM   15  C11 UNL     1      26.526   4.836  49.046  1.00  0.00    -0.057 A 
HETATM   16  C12 UNL     1      27.831   4.792  48.599  1.00  0.00     0.010 A 
HETATM   17  C13 UNL     1      28.358   6.024  48.205  1.00  0.00     0.043 A 
HETATM   18  C14 UNL     1      27.689   7.224  48.234  1.00  0.00     0.116 A 
HETATM   19  F1  UNL     1      28.270   8.371  47.836  1.00  0.00    -0.206 F 
HETATM   20  C15 UNL     1      26.384   7.219  48.689  1.00  0.00     0.043 A 
HETATM   21  C16 UNL     1      25.820   6.013  49.091  1.00  0.00     0.010 A 
ENDBRANCH  14  15
ENDBRANCH  13  14
ENDBRANCH   1  13
TORSDOF 5
ENDMDL
MODEL 6
REMARK VINA RESULT:      -6.8      3.170      4.188
REMARK  5 active torsions:
REMARK  status: ('A' for Active; 'I' for Inactive)
REMARK    1  A    between atoms: C8_8  and  S1_9 
REMARK    2  A    between atoms: S1_9  and  N1_11 
REMARK    3  A    between atoms: N1_11  and  C9_12 
REMARK    4  A    between atoms: C9_12  and  C10_13 
REMARK    5  A    between atoms: C10_13  and  C11_14 
ROOT
HETATM    1  N1  UNL     1      23.724  -0.934  53.458  1.00  0.00    -0.238 NA
HETATM    2  H12 UNL     1      24.252  -1.117  52.594  1.00  0.00     0.137 HD
ENDROOT
BRANCH   1   3
HETATM    3  S1  UNL     1      24.785  -0.344  54.682  1.00  0.00     0.121 S 
HETATM    4  O1  UNL     1      25.083  -1.387  55.746  1.00  0.00    -0.236 OA
BRANCH   3   5
HETATM    5  C8  UNL     1      26.286   0.229  53.896  1.00  0.00     0.028 C 
HETATM    6  C2  UNL     1      27.080  -0.790  53.210  1.00  0.00     0.047 C 
HETATM    7  C1  UNL     1      26.791  -0.722  51.726  1.00  0.00     0.020 C 
HETATM    8  C3  UNL     1      28.541  -0.638  53.385  1.00  0.00    -0.021 C 
HETATM    9  C4  UNL     1      29.362   0.352  53.738  1.00  0.00    -0.030 C 
HETATM   10  C5  UNL     1      28.996   1.734  54.094  1.00  0.00     0.030 C 
HETATM   11  C6  UNL     1      27.725   2.208  53.434  1.00  0.00     0.032 C 
HETATM   12  C7  UNL     1      26.541   1.530  54.008  1.00  0.00    -0.008 C 
ENDBRANCH   3   5
ENDBRANCH   1   3
BRANCH   1  13
HETATM   13  C9  UNL     1      22.573  -0.080  53.242  1.00  0.00     0.106 C 
BRANCH  13  14
HETATM   14  C10 UNL     1      22.997   1.305  52.891  1.00  0.00     0.054 C 
BRANCH  14  15
HETATM   15  C11 UNL     1      22.860   1.610  51.463  1.00  0.00    -0.057 A 
HETATM   16  C12 UNL     1      21.852   0.993  50.751  1.00  0.00     0.010 A 
HETATM   17  C13 UNL     1      21.792   1.339  49.399  1.00  0.00     0.043 A 
HETATM   18  C14 UNL     1      22.637   2.215  48.762  1.00  0.00     0.116 A 
HETATM   19  F1  UNL     1      22.512   2.496  47.451  1.00  0.00    -0.206 F 
HETATM   20  C15 UNL     1      23.632   2.809  49.515  1.00  0.00     0.043 A 
HETATM   21  C16 UNL     1      23.727   2.492  50.866  1.00  0.00     0.010 A 
ENDBRANCH  14  15
ENDBRANCH  13  14
ENDBRANCH   1  13
TORSDOF 5
ENDMDL
MODEL 7
REMARK VINA RESULT:      -6.8      4.025      5.970
REMARK  5 active torsions:
REMARK  status: ('A' for Active; 'I' for Inactive)
REMARK    1  A    between atoms: C8_8  and  S1_9 
REMARK    2  A    between atoms: S1_9  and  N1_11 
REMARK    3  A    between atoms: N1_11  and  C9_12 
REMARK    4  A    between atoms: C9_12  and  C10_13 
REMARK    5  A    between atoms: C10_13  and  C11_14 
ROOT
HETATM    1  N1  UNL     1      22.098   2.428  50.759  1.00  0.00    -0.238 NA
HETATM    2  H12 UNL     1      22.056   3.258  51.367  1.00  0.00     0.137 HD
ENDROOT
BRANCH   1   3
HETATM    3  S1  UNL     1      22.852   2.834  49.263  1.00  0.00     0.121 S 
HETATM    4  O1  UNL     1      21.921   3.585  48.325  1.00  0.00    -0.236 OA
BRANCH   3   5
HETATM    5  C8  UNL     1      24.324   3.786  49.615  1.00  0.00     0.028 C 
HETATM    6  C2  UNL     1      24.133   5.227  49.775  1.00  0.00     0.047 C 
HETATM    7  C1  UNL     1      24.091   5.556  51.252  1.00  0.00     0.020 C 
HETATM    8  C3  UNL     1      25.201   6.051  49.167  1.00  0.00    -0.021 C 
HETATM    9  C4  UNL     1      26.460   5.845  48.780  1.00  0.00    -0.030 C 
HETATM   10  C5  UNL     1      27.228   4.590  48.859  1.00  0.00     0.030 C 
HETATM   11  C6  UNL     1      26.785   3.684  49.982  1.00  0.00     0.032 C 
HETATM   12  C7  UNL     1      25.458   3.094  49.699  1.00  0.00    -0.008 C 
ENDBRANCH   3   5
ENDBRANCH   1   3
BRANCH   1  13
HETATM   13  C9  UNL     1      22.705   1.285  51.411  1.00  0.00     0.106 C 
BRANCH  13  14
HETATM   14  C10 UNL     1      23.281   1.669  52.730  1.00  0.00     0.054 C 
BRANCH  14  15
HETATM   15  C11 UNL     1      24.732   1.475  52.808  1.00  0.00    -0.057 A 
HETATM   16  C12 UNL     1      25.282   0.359  52.211  1.00  0.00     0.010 A 
HETATM   17  C13 UNL     1      26.670   0.252  52.333  1.00  0.00     0.043 A 
HETATM   18  C14 UNL     1      27.485   1.147  52.981  1.00  0.00     0.116 A 
HETATM   19  F1  UNL     1      28.817   0.970  53.053  1.00  0.00    -0.206 F 
HETATM   20  C15 UNL     1      26.890   2.250  53.564  1.00  0.00     0.043 A 
HETATM   21  C16 UNL     1      25.511   2.396  53.467  1.00  0.00     0.010 A 
ENDBRANCH  14  15
ENDBRANCH  13  14
ENDBRANCH   1  13
TORSDOF 5
ENDMDL
MODEL 8
REMARK VINA RESULT:      -6.8      3.843      6.727
REMARK  5 active torsions:
REMARK  status: ('A' for Active; 'I' for Inactive)
REMARK    1  A    between atoms: C8_8  and  S1_9 
REMARK    2  A    between atoms: S1_9  and  N1_11 
REMARK    3  A    between atoms: N1_11  and  C9_12 
REMARK    4  A    between atoms: C9_12  and  C10_13 
REMARK    5  A    between atoms: C10_13  and  C11_14 
ROOT
HETATM    1  N1  UNL     1      23.908   1.059  51.884  1.00  0.00    -0.238 NA
HETATM    2  H12 UNL     1      23.016   0.569  51.731  1.00  0.00     0.137 HD
ENDROOT
BRANCH   1   3
HETATM    3  S1  UNL     1      23.623   2.745  52.104  1.00  0.00     0.121 S 
HETATM    4  O1  UNL     1      24.407   3.321  53.272  1.00  0.00    -0.236 OA
BRANCH   3   5
HETATM    5  C8  UNL     1      24.023   3.586  50.578  1.00  0.00     0.028 C 
HETATM    6  C2  UNL     1      25.387   4.101  50.467  1.00  0.00     0.047 C 
HETATM    7  C1  UNL     1      26.212   3.135  49.644  1.00  0.00     0.020 C 
HETATM    8  C3  UNL     1      25.483   5.428  49.820  1.00  0.00    -0.021 C 
HETATM    9  C4  UNL     1      24.703   6.158  49.021  1.00  0.00    -0.030 C 
HETATM   10  C5  UNL     1      23.371   5.803  48.501  1.00  0.00     0.030 C 
HETATM   11  C6  UNL     1      23.159   4.316  48.359  1.00  0.00     0.032 C 
HETATM   12  C7  UNL     1      23.041   3.665  49.683  1.00  0.00    -0.008 C 
ENDBRANCH   3   5
ENDBRANCH   1   3
BRANCH   1  13
HETATM   13  C9  UNL     1      24.696   0.471  52.949  1.00  0.00     0.106 C 
BRANCH  13  14
HETATM   14  C10 UNL     1      26.030   0.037  52.446  1.00  0.00     0.054 C 
BRANCH  14  15
HETATM   15  C11 UNL     1      27.150   0.669  53.151  1.00  0.00    -0.057 A 
HETATM   16  C12 UNL     1      27.841  -0.070  54.088  1.00  0.00     0.010 A 
HETATM   17  C13 UNL     1      28.892   0.608  54.711  1.00  0.00     0.043 A 
HETATM   18  C14 UNL     1      29.263   1.906  54.462  1.00  0.00     0.116 A 
HETATM   19  F1  UNL     1      30.291   2.488  55.108  1.00  0.00    -0.206 F 
HETATM   20  C15 UNL     1      28.542   2.608  53.515  1.00  0.00     0.043 A 
HETATM   21  C16 UNL     1      27.487   1.971  52.870  1.00  0.00     0.010 A 
ENDBRANCH  14  15
ENDBRANCH  13  14
ENDBRANCH   1  13
TORSDOF 5
ENDMDL
MODEL 9
REMARK VINA RESULT:      -6.7      3.202      6.630
REMARK  5 active torsions:
REMARK  status: ('A' for Active; 'I' for Inactive)
REMARK    1  A    between atoms: C8_8  and  S1_9 
REMARK    2  A    between atoms: S1_9  and  N1_11 
REMARK    3  A    between atoms: N1_11  and  C9_12 
REMARK    4  A    between atoms: C9_12  and  C10_13 
REMARK    5  A    between atoms: C10_13  and  C11_14 
ROOT
HETATM    1  N1  UNL     1      25.415   3.587  51.206  1.00  0.00    -0.238 NA
HETATM    2  H12 UNL     1      25.074   3.726  50.245  1.00  0.00     0.137 HD
ENDROOT
BRANCH   1   3
HETATM    3  S1  UNL     1      24.090   3.255  52.258  1.00  0.00     0.121 S 
HETATM    4  O1  UNL     1      23.752   4.431  53.159  1.00  0.00    -0.236 OA
BRANCH   3   5
HETATM    5  C8  UNL     1      22.685   2.779  51.259  1.00  0.00     0.028 C 
HETATM    6  C2  UNL     1      21.433   2.550  51.980  1.00  0.00     0.047 C 
HETATM    7  C1  UNL     1      20.559   3.779  51.851  1.00  0.00     0.020 C 
HETATM    8  C3  UNL     1      20.652   1.396  51.484  1.00  0.00    -0.021 C 
HETATM    9  C4  UNL     1      20.611   0.685  50.356  1.00  0.00    -0.030 C 
HETATM   10  C5  UNL     1      21.431   0.875  49.148  1.00  0.00     0.030 C 
HETATM   11  C6  UNL     1      21.887   2.300  48.949  1.00  0.00     0.032 C 
HETATM   12  C7  UNL     1      22.908   2.679  49.951  1.00  0.00    -0.008 C 
ENDBRANCH   3   5
ENDBRANCH   1   3
BRANCH   1  13
HETATM   13  C9  UNL     1      26.469   2.596  51.289  1.00  0.00     0.106 C 
BRANCH  13  14
HETATM   14  C10 UNL     1      26.071   1.469  52.178  1.00  0.00     0.054 C 
BRANCH  14  15
HETATM   15  C11 UNL     1      27.210   0.698  52.685  1.00  0.00    -0.057 A 
HETATM   16  C12 UNL     1      27.158  -0.680  52.616  1.00  0.00     0.010 A 
HETATM   17  C13 UNL     1      28.284  -1.335  53.120  1.00  0.00     0.043 A 
HETATM   18  C14 UNL     1      29.390  -0.722  53.657  1.00  0.00     0.116 A 
HETATM   19  F1  UNL     1      30.437  -1.429  54.123  1.00  0.00    -0.206 F 
HETATM   20  C15 UNL     1      29.398   0.659  53.705  1.00  0.00     0.043 A 
HETATM   21  C16 UNL     1      28.297   1.351  53.214  1.00  0.00     0.010 A 
ENDBRANCH  14  15
ENDBRANCH  13  14
ENDBRANCH   1  13
TORSDOF 5
ENDMDL
