MODEL 1
REMARK VINA RESULT:      -9.2      0.000      0.000
REMARK  5 active torsions:
REMARK  status: ('A' for Active; 'I' for Inactive)
REMARK    1  A    between atoms: C5_7  and  O2_8 
REMARK    2  A    between atoms: O2_8  and  C6_9 
REMARK    3  A    between atoms: C7_10  and  N2_11 
REMARK    4  A    between atoms: N2_11  and  C8_12 
REMARK    5  A    between atoms: C12_16  and  C13_17 
ROOT
HETATM    1  C6  UNL     1      26.396   2.526  50.667  1.00  0.00     0.159 C 
HETATM    2  C7  UNL     1      25.326   3.326  50.539  1.00  0.00     0.113 C 
ENDROOT
BRANCH   2   3
HETATM    3  N2  UNL     1      24.477   3.247  49.397  1.00  0.00    -0.364 N 
HETATM    4  H6  UNL     1      24.812   3.809  48.568  1.00  0.00     0.165 HD
BRANCH   3   5
HETATM    5  C8  UNL     1      23.334   2.429  49.580  1.00  0.00     0.032 A 
HETATM    6  C9  UNL     1      22.544   2.376  48.434  1.00  0.00     0.029 A 
HETATM    7  C10 UNL     1      21.385   1.626  48.463  1.00  0.00     0.003 A 
HETATM    8  C11 UNL     1      21.058   0.965  49.621  1.00  0.00     0.012 A 
HETATM    9  C12 UNL     1      21.875   1.055  50.719  1.00  0.00    -0.024 A 
HETATM   10  C19 UNL     1      23.035   1.778  50.754  1.00  0.00     0.041 A 
BRANCH   9  11
HETATM   11  C13 UNL     1      21.448   0.336  51.909  1.00  0.00    -0.026 A 
HETATM   12  C14 UNL     1      20.117   0.177  52.155  1.00  0.00     0.012 A 
HETATM   13  C15 UNL     1      19.737  -0.501  53.278  1.00  0.00     0.001 A 
HETATM   14  C16 UNL     1      20.713  -1.008  54.131  1.00  0.00     0.000 A 
HETATM   15  C17 UNL     1      22.060  -0.834  53.863  1.00  0.00     0.001 A 
HETATM   16  C18 UNL     1      22.436  -0.152  52.734  1.00  0.00     0.012 A 
ENDBRANCH   9  11
ENDBRANCH   3   5
ENDBRANCH   2   3
BRANCH   1  17
HETATM   17  O2  UNL     1      27.209   2.652  51.826  1.00  0.00    -0.324 OA
BRANCH  17  18
HETATM   18  C5  UNL     1      27.471   1.375  52.388  1.00  0.00     0.068 C 
HETATM   19  C4  UNL     1      26.348   0.592  52.303  1.00  0.00     0.034 C 
HETATM   20  C3  UNL     1      25.991  -0.738  52.915  1.00  0.00     0.134 C 
HETATM   21  N1  UNL     1      25.720  -0.636  54.342  1.00  0.00    -0.287 NA
HETATM   22  C22 UNL     1      26.944  -1.838  52.538  1.00  0.00     0.051 C 
HETATM   23  C2  UNL     1      26.538  -0.149  55.271  1.00  0.00     0.185 C 
HETATM   24  C1  UNL     1      27.953   0.267  54.947  1.00  0.00     0.261 C 
HETATM   25  O1  UNL     1      28.756   0.989  55.573  1.00  0.00    -0.267 OA
HETATM   26  N3  UNL     1      28.395  -0.292  53.681  1.00  0.00    -0.341 N 
HETATM   27  C20 UNL     1      28.825   0.947  52.996  1.00  0.00     0.190 C 
HETATM   28  C21 UNL     1      28.347  -1.627  53.073  1.00  0.00     0.129 C 
ENDBRANCH  17  18
ENDBRANCH   1  17
TORSDOF 5
ENDMDL
MODEL 2
REMARK VINA RESULT:      -8.6      4.268      7.795
REMARK  5 active torsions:
REMARK  status: ('A' for Active; 'I' for Inactive)
REMARK    1  A    between atoms: C5_7  and  O2_8 
REMARK    2  A    between atoms: O2_8  and  C6_9 
REMARK    3  A    between atoms: C7_10  and  N2_11 
REMARK    4  A    between atoms: N2_11  and  C8_12 
REMARK    5  A    between atoms: C12_16  and  C13_17 
ROOT
HETATM    1  C6  UNL     1      26.434   4.603  49.430  1.00  0.00     0.159 C 
HETATM    2  C7  UNL     1      26.245   3.407  50.007  1.00  0.00     0.113 C 
ENDROOT
BRANCH   2   3
HETATM    3  N2  UNL     1      25.044   3.109  50.714  1.00  0.00    -0.364 N 
HETATM    4  H6  UNL     1      24.249   3.776  50.518  1.00  0.00     0.165 HD
BRANCH   3   5
HETATM    5  C8  UNL     1      25.132   1.970  51.554  1.00  0.00     0.032 A 
HETATM    6  C9  UNL     1      23.925   1.703  52.196  1.00  0.00     0.029 A 
HETATM    7  C10 UNL     1      23.859   0.629  53.060  1.00  0.00     0.003 A 
HETATM    8  C11 UNL     1      24.985  -0.132  53.252  1.00  0.00     0.012 A 
HETATM    9  C12 UNL     1      26.147   0.180  52.592  1.00  0.00    -0.024 A 
HETATM   10  C19 UNL     1      26.277   1.228  51.724  1.00  0.00     0.041 A 
BRANCH   9  11
HETATM   11  C13 UNL     1      27.297  -0.668  52.864  1.00  0.00    -0.026 A 
HETATM   12  C14 UNL     1      27.214  -2.007  52.629  1.00  0.00     0.012 A 
HETATM   13  C15 UNL     1      28.305  -2.785  52.891  1.00  0.00     0.001 A 
HETATM   14  C16 UNL     1      29.463  -2.192  53.385  1.00  0.00     0.000 A 
HETATM   15  C17 UNL     1      29.526  -0.828  53.617  1.00  0.00     0.001 A 
HETATM   16  C18 UNL     1      28.427  -0.051  53.353  1.00  0.00     0.012 A 
ENDBRANCH   9  11
ENDBRANCH   3   5
ENDBRANCH   2   3
BRANCH   1  17
HETATM   17  O2  UNL     1      27.654   4.845  48.742  1.00  0.00    -0.324 OA
BRANCH  17  18
HETATM   18  C5  UNL     1      27.694   6.181  48.261  1.00  0.00     0.068 C 
HETATM   19  C4  UNL     1      28.911   6.428  47.680  1.00  0.00     0.034 C 
HETATM   20  C3  UNL     1      29.571   7.699  47.210  1.00  0.00     0.134 C 
HETATM   21  N1  UNL     1      30.015   8.534  48.317  1.00  0.00    -0.287 NA
HETATM   22  C22 UNL     1      28.777   8.425  46.160  1.00  0.00     0.051 C 
HETATM   23  C2  UNL     1      29.262   8.999  49.310  1.00  0.00     0.185 C 
HETATM   24  C1  UNL     1      27.766   8.797  49.337  1.00  0.00     0.261 C 
HETATM   25  O1  UNL     1      26.946   8.889  50.274  1.00  0.00    -0.267 OA
HETATM   26  N3  UNL     1      27.255   8.429  48.028  1.00  0.00    -0.341 N 
HETATM   27  C20 UNL     1      26.530   7.189  48.380  1.00  0.00     0.190 C 
HETATM   28  C21 UNL     1      27.445   8.946  46.667  1.00  0.00     0.129 C 
ENDBRANCH  17  18
ENDBRANCH   1  17
TORSDOF 5
ENDMDL
MODEL 3
REMARK VINA RESULT:      -8.5      4.621      7.842
REMARK  5 active torsions:
REMARK  status: ('A' for Active; 'I' for Inactive)
REMARK    1  A    between atoms: C5_7  and  O2_8 
REMARK    2  A    between atoms: O2_8  and  C6_9 
REMARK    3  A    between atoms: C7_10  and  N2_11 
REMARK    4  A    between atoms: N2_11  and  C8_12 
REMARK    5  A    between atoms: C12_16  and  C13_17 
ROOT
HETATM    1  C6  UNL     1      27.145   4.628  49.023  1.00  0.00     0.159 C 
HETATM    2  C7  UNL     1      26.731   3.479  49.578  1.00  0.00     0.113 C 
ENDROOT
BRANCH   2   3
HETATM    3  N2  UNL     1      25.527   3.417  50.338  1.00  0.00    -0.364 N 
HETATM    4  H6  UNL     1      24.844   4.195  50.131  1.00  0.00     0.165 HD
BRANCH   3   5
HETATM    5  C8  UNL     1      25.464   2.322  51.235  1.00  0.00     0.032 A 
HETATM    6  C9  UNL     1      24.226   2.239  51.868  1.00  0.00     0.029 A 
HETATM    7  C10 UNL     1      24.016   1.227  52.784  1.00  0.00     0.003 A 
HETATM    8  C11 UNL     1      25.038   0.345  53.035  1.00  0.00     0.012 A 
HETATM    9  C12 UNL     1      26.237   0.478  52.382  1.00  0.00    -0.024 A 
HETATM   10  C19 UNL     1      26.506   1.455  51.464  1.00  0.00     0.041 A 
BRANCH   9  11
HETATM   11  C13 UNL     1      27.270  -0.489  52.717  1.00  0.00    -0.026 A 
HETATM   12  C14 UNL     1      27.040  -1.816  52.509  1.00  0.00     0.012 A 
HETATM   13  C15 UNL     1      28.023  -2.708  52.831  1.00  0.00     0.001 A 
HETATM   14  C16 UNL     1      29.224  -2.238  53.357  1.00  0.00     0.000 A 
HETATM   15  C17 UNL     1      29.437  -0.885  53.560  1.00  0.00     0.001 A 
HETATM   16  C18 UNL     1      28.446   0.006  53.236  1.00  0.00     0.012 A 
ENDBRANCH   9  11
ENDBRANCH   3   5
ENDBRANCH   2   3
BRANCH   1  17
HETATM   17  O2  UNL     1      28.356   4.631  48.278  1.00  0.00    -0.324 OA
BRANCH  17  18
HETATM   18  C5  UNL     1      28.972   5.910  48.341  1.00  0.00     0.068 C 
HETATM   19  C4  UNL     1      28.024   6.889  48.186  1.00  0.00     0.034 C 
HETATM   20  C3  UNL     1      28.130   8.375  47.957  1.00  0.00     0.134 C 
HETATM   21  N1  UNL     1      28.575   8.696  46.608  1.00  0.00    -0.287 NA
HETATM   22  C22 UNL     1      28.877   9.090  49.048  1.00  0.00     0.051 C 
HETATM   23  C2  UNL     1      29.692   8.277  46.021  1.00  0.00     0.185 C 
HETATM   24  C1  UNL     1      30.729   7.471  46.767  1.00  0.00     0.261 C 
HETATM   25  O1  UNL     1      31.666   6.759  46.349  1.00  0.00    -0.267 OA
HETATM   26  N3  UNL     1      30.553   7.578  48.204  1.00  0.00    -0.341 N 
HETATM   27  C20 UNL     1      30.483   6.143  48.556  1.00  0.00     0.190 C 
HETATM   28  C21 UNL     1      30.339   8.693  49.135  1.00  0.00     0.129 C 
ENDBRANCH  17  18
ENDBRANCH   1  17
TORSDOF 5
ENDMDL
MODEL 4
REMARK VINA RESULT:      -8.2      2.685      6.098
REMARK  5 active torsions:
REMARK  status: ('A' for Active; 'I' for Inactive)
REMARK    1  A    between atoms: C5_7  and  O2_8 
REMARK    2  A    between atoms: O2_8  and  C6_9 
REMARK    3  A    between atoms: C7_10  and  N2_11 
REMARK    4  A    between atoms: N2_11  and  C8_12 
REMARK    5  A    between atoms: C12_16  and  C13_17 
ROOT
HETATM    1  C6  UNL     1      25.920   4.546  50.077  1.00  0.00     0.159 C 
HETATM    2  C7  UNL     1      25.963   3.245  50.402  1.00  0.00     0.113 C 
ENDROOT
BRANCH   2   3
HETATM    3  N2  UNL     1      26.663   2.795  51.559  1.00  0.00    -0.364 N 
HETATM    4  H6  UNL     1      27.472   3.412  51.842  1.00  0.00     0.165 HD
BRANCH   3   5
HETATM    5  C8  UNL     1      26.148   1.601  52.121  1.00  0.00     0.032 A 
HETATM    6  C9  UNL     1      27.146   0.653  52.335  1.00  0.00     0.029 A 
HETATM    7  C10 UNL     1      26.795  -0.571  52.867  1.00  0.00     0.003 A 
HETATM    8  C11 UNL     1      25.475  -0.806  53.163  1.00  0.00     0.012 A 
HETATM    9  C12 UNL     1      24.535   0.166  52.929  1.00  0.00    -0.024 A 
HETATM   10  C19 UNL     1      24.818   1.397  52.407  1.00  0.00     0.041 A 
BRANCH   9  11
HETATM   11  C13 UNL     1      23.158  -0.170  53.257  1.00  0.00    -0.026 A 
HETATM   12  C14 UNL     1      22.156   0.219  52.420  1.00  0.00     0.012 A 
HETATM   13  C15 UNL     1      20.870  -0.105  52.746  1.00  0.00     0.001 A 
HETATM   14  C16 UNL     1      20.623  -0.820  53.915  1.00  0.00     0.000 A 
HETATM   15  C17 UNL     1      21.657  -1.204  54.752  1.00  0.00     0.001 A 
HETATM   16  C18 UNL     1      22.946  -0.875  54.420  1.00  0.00     0.012 A 
ENDBRANCH   9  11
ENDBRANCH   3   5
ENDBRANCH   2   3
BRANCH   1  17
HETATM   17  O2  UNL     1      25.210   4.936  48.909  1.00  0.00    -0.324 OA
BRANCH  17  18
HETATM   18  C5  UNL     1      23.820   5.040  49.187  1.00  0.00     0.068 C 
HETATM   19  C4  UNL     1      23.622   5.882  50.251  1.00  0.00     0.034 C 
HETATM   20  C3  UNL     1      22.409   6.183  51.094  1.00  0.00     0.134 C 
HETATM   21  N1  UNL     1      22.075   5.089  51.994  1.00  0.00    -0.287 NA
HETATM   22  C22 UNL     1      21.250   6.711  50.295  1.00  0.00     0.051 C 
HETATM   23  C2  UNL     1      21.830   3.828  51.652  1.00  0.00     0.185 C 
HETATM   24  C1  UNL     1      21.756   3.395  50.206  1.00  0.00     0.261 C 
HETATM   25  O1  UNL     1      21.827   2.262  49.688  1.00  0.00    -0.267 OA
HETATM   26  N3  UNL     1      21.578   4.532  49.320  1.00  0.00    -0.341 N 
HETATM   27  C20 UNL     1      22.713   4.310  48.397  1.00  0.00     0.190 C 
HETATM   28  C21 UNL     1      20.690   5.701  49.310  1.00  0.00     0.129 C 
ENDBRANCH  17  18
ENDBRANCH   1  17
TORSDOF 5
ENDMDL
MODEL 5
REMARK VINA RESULT:      -8.2      3.415      6.211
REMARK  5 active torsions:
REMARK  status: ('A' for Active; 'I' for Inactive)
REMARK    1  A    between atoms: C5_7  and  O2_8 
REMARK    2  A    between atoms: O2_8  and  C6_9 
REMARK    3  A    between atoms: C7_10  and  N2_11 
REMARK    4  A    between atoms: N2_11  and  C8_12 
REMARK    5  A    between atoms: C12_16  and  C13_17 
ROOT
HETATM    1  C6  UNL     1      24.216   3.685  52.325  1.00  0.00     0.159 C 
HETATM    2  C7  UNL     1      23.308   4.668  52.228  1.00  0.00     0.113 C 
ENDROOT
BRANCH   2   3
HETATM    3  N2  UNL     1      23.701   6.016  51.986  1.00  0.00    -0.364 N 
HETATM    4  H6  UNL     1      23.635   6.644  52.833  1.00  0.00     0.165 HD
BRANCH   3   5
HETATM    5  C8  UNL     1      24.108   6.273  50.653  1.00  0.00     0.032 A 
HETATM    6  C9  UNL     1      23.021   6.477  49.807  1.00  0.00     0.029 A 
HETATM    7  C10 UNL     1      23.259   6.726  48.471  1.00  0.00     0.003 A 
HETATM    8  C11 UNL     1      24.558   6.761  48.029  1.00  0.00     0.012 A 
HETATM    9  C12 UNL     1      25.589   6.551  48.910  1.00  0.00    -0.024 A 
HETATM   10  C19 UNL     1      25.420   6.302  50.243  1.00  0.00     0.041 A 
BRANCH   9  11
HETATM   11  C13 UNL     1      26.934   6.591  48.357  1.00  0.00    -0.026 A 
HETATM   12  C14 UNL     1      27.323   7.664  47.613  1.00  0.00     0.012 A 
HETATM   13  C15 UNL     1      28.589   7.681  47.103  1.00  0.00     0.001 A 
HETATM   14  C16 UNL     1      29.441   6.610  47.358  1.00  0.00     0.000 A 
HETATM   15  C17 UNL     1      29.026   5.529  48.116  1.00  0.00     0.001 A 
HETATM   16  C18 UNL     1      27.752   5.516  48.625  1.00  0.00     0.012 A 
ENDBRANCH   9  11
ENDBRANCH   3   5
ENDBRANCH   2   3
BRANCH   1  17
HETATM   17  O2  UNL     1      23.767   2.359  52.569  1.00  0.00    -0.324 OA
BRANCH  17  18
HETATM   18  C5  UNL     1      24.870   1.469  52.648  1.00  0.00     0.068 C 
HETATM   19  C4  UNL     1      24.484   0.305  53.261  1.00  0.00     0.034 C 
HETATM   20  C3  UNL     1      25.266  -0.870  53.791  1.00  0.00     0.134 C 
HETATM   21  N1  UNL     1      25.981  -0.549  55.019  1.00  0.00    -0.287 NA
HETATM   22  C22 UNL     1      26.101  -1.548  52.741  1.00  0.00     0.051 C 
HETATM   23  C2  UNL     1      26.864   0.431  55.189  1.00  0.00     0.185 C 
HETATM   24  C1  UNL     1      27.329   1.292  54.038  1.00  0.00     0.261 C 
HETATM   25  O1  UNL     1      27.899   2.402  54.027  1.00  0.00    -0.267 OA
HETATM   26  N3  UNL     1      27.029   0.676  52.758  1.00  0.00    -0.341 N 
HETATM   27  C20 UNL     1      26.286   1.781  52.114  1.00  0.00     0.190 C 
HETATM   28  C21 UNL     1      27.210  -0.669  52.195  1.00  0.00     0.129 C 
ENDBRANCH  17  18
ENDBRANCH   1  17
TORSDOF 5
ENDMDL
MODEL 6
REMARK VINA RESULT:      -8.2      2.705      6.497
REMARK  5 active torsions:
REMARK  status: ('A' for Active; 'I' for Inactive)
REMARK    1  A    between atoms: C5_7  and  O2_8 
REMARK    2  A    between atoms: O2_8  and  C6_9 
REMARK    3  A    between atoms: C7_10  and  N2_11 
REMARK    4  A    between atoms: N2_11  and  C8_12 
REMARK    5  A    between atoms: C12_16  and  C13_17 
ROOT
HETATM    1  C6  UNL     1      20.076   2.398  50.979  1.00  0.00     0.159 C 
HETATM    2  C7  UNL     1      20.297   1.830  52.174  1.00  0.00     0.113 C 
ENDROOT
BRANCH   2   3
HETATM    3  N2  UNL     1      20.405   0.416  52.312  1.00  0.00    -0.364 N 
HETATM    4  H6  UNL     1      19.628  -0.125  51.842  1.00  0.00     0.165 HD
BRANCH   3   5
HETATM    5  C8  UNL     1      21.533  -0.011  53.054  1.00  0.00     0.032 A 
HETATM    6  C9  UNL     1      21.174  -0.827  54.125  1.00  0.00     0.029 A 
HETATM    7  C10 UNL     1      22.168  -1.311  54.951  1.00  0.00     0.003 A 
HETATM    8  C11 UNL     1      23.470  -0.969  54.685  1.00  0.00     0.012 A 
HETATM    9  C12 UNL     1      23.764  -0.161  53.616  1.00  0.00    -0.024 A 
HETATM   10  C19 UNL     1      22.828   0.349  52.760  1.00  0.00     0.041 A 
BRANCH   9  11
HETATM   11  C13 UNL     1      25.167   0.165  53.413  1.00  0.00    -0.026 A 
HETATM   12  C14 UNL     1      25.620   1.407  53.738  1.00  0.00     0.012 A 
HETATM   13  C15 UNL     1      26.941   1.694  53.540  1.00  0.00     0.001 A 
HETATM   14  C16 UNL     1      27.780   0.713  53.016  1.00  0.00     0.000 A 
HETATM   15  C17 UNL     1      27.298  -0.543  52.692  1.00  0.00     0.001 A 
HETATM   16  C18 UNL     1      25.970  -0.825  52.893  1.00  0.00     0.012 A 
ENDBRANCH   9  11
ENDBRANCH   3   5
ENDBRANCH   2   3
BRANCH   1  17
HETATM   17  O2  UNL     1      19.974   3.814  50.903  1.00  0.00    -0.324 OA
BRANCH  17  18
HETATM   18  C5  UNL     1      21.248   4.388  50.648  1.00  0.00     0.068 C 
HETATM   19  C4  UNL     1      21.743   3.911  49.462  1.00  0.00     0.034 C 
HETATM   20  C3  UNL     1      23.103   4.005  48.819  1.00  0.00     0.134 C 
HETATM   21  N1  UNL     1      24.087   3.161  49.482  1.00  0.00    -0.287 NA
HETATM   22  C22 UNL     1      23.551   5.421  48.585  1.00  0.00     0.051 C 
HETATM   23  C2  UNL     1      24.420   3.192  50.769  1.00  0.00     0.185 C 
HETATM   24  C1  UNL     1      23.867   4.238  51.709  1.00  0.00     0.261 C 
HETATM   25  O1  UNL     1      23.819   4.271  52.956  1.00  0.00    -0.267 OA
HETATM   26  N3  UNL     1      23.307   5.364  50.982  1.00  0.00    -0.341 N 
HETATM   27  C20 UNL     1      21.954   5.399  51.578  1.00  0.00     0.190 C 
HETATM   28  C21 UNL     1      23.769   6.201  49.868  1.00  0.00     0.129 C 
ENDBRANCH  17  18
ENDBRANCH   1  17
TORSDOF 5
ENDMDL
MODEL 7
REMARK VINA RESULT:      -8.2      3.382      7.634
REMARK  5 active torsions:
REMARK  status: ('A' for Active; 'I' for Inactive)
REMARK    1  A    between atoms: C5_7  and  O2_8 
REMARK    2  A    between atoms: O2_8  and  C6_9 
REMARK    3  A    between atoms: C7_10  and  N2_11 
REMARK    4  A    between atoms: N2_11  and  C8_12 
REMARK    5  A    between atoms: C12_16  and  C13_17 
ROOT
HETATM    1  C6  UNL     1      21.448   0.030  54.230  1.00  0.00     0.159 C 
HETATM    2  C7  UNL     1      22.423  -0.761  53.761  1.00  0.00     0.113 C 
ENDROOT
BRANCH   2   3
HETATM    3  N2  UNL     1      23.750  -0.684  54.275  1.00  0.00    -0.364 N 
HETATM    4  H6  UNL     1      23.852  -1.044  55.263  1.00  0.00     0.165 HD
BRANCH   3   5
HETATM    5  C8  UNL     1      24.693  -0.139  53.370  1.00  0.00     0.032 A 
HETATM    6  C9  UNL     1      25.822  -0.945  53.244  1.00  0.00     0.029 A 
HETATM    7  C10 UNL     1      26.838  -0.537  52.404  1.00  0.00     0.003 A 
HETATM    8  C11 UNL     1      26.696   0.648  51.727  1.00  0.00     0.012 A 
HETATM    9  C12 UNL     1      25.561   1.402  51.891  1.00  0.00    -0.024 A 
HETATM   10  C19 UNL     1      24.520   1.053  52.705  1.00  0.00     0.041 A 
BRANCH   9  11
HETATM   11  C13 UNL     1      25.497   2.651  51.148  1.00  0.00    -0.026 A 
HETATM   12  C14 UNL     1      24.497   3.538  51.412  1.00  0.00     0.012 A 
HETATM   13  C15 UNL     1      24.454   4.704  50.703  1.00  0.00     0.001 A 
HETATM   14  C16 UNL     1      25.428   4.953  49.740  1.00  0.00     0.000 A 
HETATM   15  C17 UNL     1      26.436   4.037  49.487  1.00  0.00     0.001 A 
HETATM   16  C18 UNL     1      26.473   2.867  50.202  1.00  0.00     0.012 A 
ENDBRANCH   9  11
ENDBRANCH   3   5
ENDBRANCH   2   3
BRANCH   1  17
HETATM   17  O2  UNL     1      20.144  -0.088  53.676  1.00  0.00    -0.324 OA
BRANCH  17  18
HETATM   18  C5  UNL     1      20.026   0.718  52.512  1.00  0.00     0.068 C 
HETATM   19  C4  UNL     1      20.342   2.017  52.815  1.00  0.00     0.034 C 
HETATM   20  C3  UNL     1      20.185   3.304  52.045  1.00  0.00     0.134 C 
HETATM   21  N1  UNL     1      18.797   3.738  51.970  1.00  0.00    -0.287 NA
HETATM   22  C22 UNL     1      20.910   3.298  50.728  1.00  0.00     0.051 C 
HETATM   23  C2  UNL     1      17.773   3.038  51.492  1.00  0.00     0.185 C 
HETATM   24  C1  UNL     1      17.966   1.692  50.835  1.00  0.00     0.261 C 
HETATM   25  O1  UNL     1      17.152   0.777  50.594  1.00  0.00    -0.267 OA
HETATM   26  N3  UNL     1      19.350   1.482  50.448  1.00  0.00    -0.341 N 
HETATM   27  C20 UNL     1      19.607   0.191  51.123  1.00  0.00     0.190 C 
HETATM   28  C21 UNL     1      20.354   2.287  49.742  1.00  0.00     0.129 C 
ENDBRANCH  17  18
ENDBRANCH   1  17
TORSDOF 5
ENDMDL
MODEL 8
REMARK VINA RESULT:      -8.1      2.797      6.295
REMARK  5 active torsions:
REMARK  status: ('A' for Active; 'I' for Inactive)
REMARK    1  A    between atoms: C5_7  and  O2_8 
REMARK    2  A    between atoms: O2_8  and  C6_9 
REMARK    3  A    between atoms: C7_10  and  N2_11 
REMARK    4  A    between atoms: N2_11  and  C8_12 
REMARK    5  A    between atoms: C12_16  and  C13_17 
ROOT
HETATM    1  C6  UNL     1      25.982   4.242  49.978  1.00  0.00     0.159 C 
HETATM    2  C7  UNL     1      25.821   2.939  50.253  1.00  0.00     0.113 C 
ENDROOT
BRANCH   2   3
HETATM    3  N2  UNL     1      26.754   2.234  51.069  1.00  0.00    -0.364 N 
HETATM    4  H6  UNL     1      27.760   2.520  50.921  1.00  0.00     0.165 HD
BRANCH   3   5
HETATM    5  C8  UNL     1      26.164   1.276  51.930  1.00  0.00     0.032 A 
HETATM    6  C9  UNL     1      27.101   0.370  52.420  1.00  0.00     0.029 A 
HETATM    7  C10 UNL     1      26.672  -0.634  53.264  1.00  0.00     0.003 A 
HETATM    8  C11 UNL     1      25.339  -0.700  53.587  1.00  0.00     0.012 A 
HETATM    9  C12 UNL     1      24.462   0.221  53.072  1.00  0.00    -0.024 A 
HETATM   10  C19 UNL     1      24.822   1.239  52.234  1.00  0.00     0.041 A 
BRANCH   9  11
HETATM   11  C13 UNL     1      23.066   0.071  53.452  1.00  0.00    -0.026 A 
HETATM   12  C14 UNL     1      22.688  -0.994  54.212  1.00  0.00     0.012 A 
HETATM   13  C15 UNL     1      21.372  -1.116  54.557  1.00  0.00     0.001 A 
HETATM   14  C16 UNL     1      20.462  -0.155  54.126  1.00  0.00     0.000 A 
HETATM   15  C17 UNL     1      20.868   0.920  53.354  1.00  0.00     0.001 A 
HETATM   16  C18 UNL     1      22.190   1.037  53.010  1.00  0.00     0.012 A 
ENDBRANCH   9  11
ENDBRANCH   3   5
ENDBRANCH   2   3
BRANCH   1  17
HETATM   17  O2  UNL     1      25.022   4.891  49.156  1.00  0.00    -0.324 OA
BRANCH  17  18
HETATM   18  C5  UNL     1      23.745   4.872  49.777  1.00  0.00     0.068 C 
HETATM   19  C4  UNL     1      22.866   4.154  49.007  1.00  0.00     0.034 C 
HETATM   20  C3  UNL     1      21.369   3.990  49.064  1.00  0.00     0.134 C 
HETATM   21  N1  UNL     1      20.664   5.185  48.620  1.00  0.00    -0.287 NA
HETATM   22  C22 UNL     1      20.883   3.428  50.371  1.00  0.00     0.051 C 
HETATM   23  C2  UNL     1      20.796   6.412  49.114  1.00  0.00     0.185 C 
HETATM   24  C1  UNL     1      21.651   6.694  50.327  1.00  0.00     0.261 C 
HETATM   25  O1  UNL     1      22.127   7.764  50.760  1.00  0.00    -0.267 OA
HETATM   26  N3  UNL     1      21.938   5.479  51.069  1.00  0.00    -0.341 N 
HETATM   27  C20 UNL     1      23.415   5.559  51.120  1.00  0.00     0.190 C 
HETATM   28  C21 UNL     1      21.130   4.352  51.550  1.00  0.00     0.129 C 
ENDBRANCH  17  18
ENDBRANCH   1  17
TORSDOF 5
ENDMDL
MODEL 9
REMARK VINA RESULT:      -8.1      2.821      7.276
REMARK  5 active torsions:
REMARK  status: ('A' for Active; 'I' for Inactive)
REMARK    1  A    between atoms: C5_7  and  O2_8 
REMARK    2  A    between atoms: O2_8  and  C6_9 
REMARK    3  A    between atoms: C7_10  and  N2_11 
REMARK    4  A    between atoms: N2_11  and  C8_12 
REMARK    5  A    between atoms: C12_16  and  C13_17 
ROOT
HETATM    1  C6  UNL     1      21.289   0.166  51.142  1.00  0.00     0.159 C 
HETATM    2  C7  UNL     1      21.444   0.183  52.474  1.00  0.00     0.113 C 
ENDROOT
BRANCH   2   3
HETATM    3  N2  UNL     1      22.524  -0.503  53.102  1.00  0.00    -0.364 N 
HETATM    4  H6  UNL     1      22.275  -1.465  53.461  1.00  0.00     0.165 HD
BRANCH   3   5
HETATM    5  C8  UNL     1      23.737   0.228  53.133  1.00  0.00     0.032 A 
HETATM    6  C9  UNL     1      23.521   1.600  53.030  1.00  0.00     0.029 A 
HETATM    7  C10 UNL     1      24.612   2.445  53.033  1.00  0.00     0.003 A 
HETATM    8  C11 UNL     1      25.868   1.898  53.135  1.00  0.00     0.012 A 
HETATM    9  C12 UNL     1      26.019   0.538  53.233  1.00  0.00    -0.024 A 
HETATM   10  C19 UNL     1      24.981  -0.351  53.238  1.00  0.00     0.041 A 
BRANCH   9  11
HETATM   11  C13 UNL     1      27.383   0.041  53.323  1.00  0.00    -0.026 A 
HETATM   12  C14 UNL     1      28.383   0.888  53.694  1.00  0.00     0.012 A 
HETATM   13  C15 UNL     1      29.657   0.401  53.772  1.00  0.00     0.001 A 
HETATM   14  C16 UNL     1      29.894  -0.938  53.473  1.00  0.00     0.000 A 
HETATM   15  C17 UNL     1      28.863  -1.782  53.097  1.00  0.00     0.001 A 
HETATM   16  C18 UNL     1      27.586  -1.287  53.020  1.00  0.00     0.012 A 
ENDBRANCH   9  11
ENDBRANCH   3   5
ENDBRANCH   2   3
BRANCH   1  17
HETATM   17  O2  UNL     1      20.191   0.866  50.572  1.00  0.00    -0.324 OA
BRANCH  17  18
HETATM   18  C5  UNL     1      20.651   1.982  49.824  1.00  0.00     0.068 C 
HETATM   19  C4  UNL     1      21.629   1.582  48.948  1.00  0.00     0.034 C 
HETATM   20  C3  UNL     1      22.595   2.354  48.087  1.00  0.00     0.134 C 
HETATM   21  N1  UNL     1      23.655   2.978  48.867  1.00  0.00    -0.287 NA
HETATM   22  C22 UNL     1      21.915   3.272  47.110  1.00  0.00     0.051 C 
HETATM   23  C2  UNL     1      23.499   3.824  49.881  1.00  0.00     0.185 C 
HETATM   24  C1  UNL     1      22.139   4.345  50.281  1.00  0.00     0.261 C 
HETATM   25  O1  UNL     1      21.751   4.890  51.335  1.00  0.00    -0.267 OA
HETATM   26  N3  UNL     1      21.162   4.147  49.225  1.00  0.00    -0.341 N 
HETATM   27  C20 UNL     1      20.117   3.422  49.983  1.00  0.00     0.190 C 
HETATM   28  C21 UNL     1      21.145   4.395  47.778  1.00  0.00     0.129 C 
ENDBRANCH  17  18
ENDBRANCH   1  17
TORSDOF 5
ENDMDL
