MODEL 1
REMARK VINA RESULT:      -7.8      0.000      0.000
REMARK  5 active torsions:
REMARK  status: ('A' for Active; 'I' for Inactive)
REMARK    1  A    between atoms: C2_2  and  O1_3 
REMARK    2  A    between atoms: O1_3  and  C3_4 
REMARK    3  A    between atoms: C4_5  and  C5_6 
REMARK    4  A    between atoms: C9_11  and  N1_12 
REMARK    5  A    between atoms: N1_12  and  C10_13 
ROOT
HETATM    1  C3  UNL     1      19.582   0.468  52.684  1.00  0.00     0.086 A 
HETATM    2  C4  UNL     1      19.287  -0.810  53.360  1.00  0.00    -0.047 A 
HETATM    3  C7  UNL     1      20.230  -1.544  53.927  1.00  0.00     0.146 A 
HETATM    4  O2  UNL     1      21.550  -1.122  53.901  1.00  0.00    -0.316 OA
HETATM    5  C8  UNL     1      21.976   0.064  53.298  1.00  0.00     0.146 A 
HETATM    6  C9  UNL     1      23.335   0.409  53.322  1.00  0.00     0.165 A 
HETATM    7  N2  UNL     1      23.659   1.563  52.721  1.00  0.00    -0.221 NA
HETATM    8  C17 UNL     1      22.697   2.296  52.151  1.00  0.00     0.235 A 
HETATM    9  N3  UNL     1      21.378   1.965  52.125  1.00  0.00    -0.243 NA
HETATM   10  C18 UNL     1      21.004   0.823  52.712  1.00  0.00     0.083 A 
ENDROOT
BRANCH   6  11
HETATM   11  N1  UNL     1      24.240  -0.450  53.954  1.00  0.00    -0.339 N 
HETATM   12  H11 UNL     1      23.835  -1.176  54.620  1.00  0.00     0.167 HD
BRANCH  11  13
HETATM   13  C10 UNL     1      25.633  -0.506  53.844  1.00  0.00     0.033 A 
HETATM   14  C11 UNL     1      26.345  -1.258  52.935  1.00  0.00     0.030 A 
HETATM   15  C12 UNL     1      27.714  -1.330  52.807  1.00  0.00     0.009 A 
HETATM   16  C13 UNL     1      28.474  -0.573  53.675  1.00  0.00    -0.062 A 
HETATM   17  C14 UNL     1      29.942  -0.568  53.635  1.00  0.00     0.048 C 
HETATM   18  C15 UNL     1      27.836   0.206  54.615  1.00  0.00     0.009 A 
HETATM   19  C16 UNL     1      26.463   0.218  54.672  1.00  0.00     0.030 A 
ENDBRANCH  11  13
ENDBRANCH   6  11
BRANCH   1  20
HETATM   20  O1  UNL     1      19.104   0.453  51.353  1.00  0.00     0.000 OA
BRANCH  20  21
HETATM   21  C2  UNL     1      18.178   1.378  50.881  1.00  0.00    -0.011 C 
HETATM   22  C1  UNL     1      17.868   0.336  50.102  1.00  0.00     0.011 C 
ENDBRANCH  20  21
ENDBRANCH   1  20
BRANCH   2  23
HETATM   23  C5  UNL     1      17.883  -1.281  53.401  1.00  0.00     0.032 C 
HETATM   24  C6  UNL     1      17.870  -2.766  53.674  1.00  0.00     0.010 C 
ENDBRANCH   2  23
TORSDOF 5
ENDMDL
MODEL 2
REMARK VINA RESULT:      -7.5      5.378      8.311
REMARK  5 active torsions:
REMARK  status: ('A' for Active; 'I' for Inactive)
REMARK    1  A    between atoms: C2_2  and  O1_3 
REMARK    2  A    between atoms: O1_3  and  C3_4 
REMARK    3  A    between atoms: C4_5  and  C5_6 
REMARK    4  A    between atoms: C9_11  and  N1_12 
REMARK    5  A    between atoms: N1_12  and  C10_13 
ROOT
HETATM    1  C3  UNL     1      25.951   6.593  49.296  1.00  0.00     0.086 A 
HETATM    2  C4  UNL     1      27.063   5.815  48.716  1.00  0.00    -0.047 A 
HETATM    3  C7  UNL     1      27.207   4.518  48.931  1.00  0.00     0.146 A 
HETATM    4  O2  UNL     1      26.296   3.839  49.725  1.00  0.00    -0.316 OA
HETATM    5  C8  UNL     1      25.196   4.444  50.339  1.00  0.00     0.146 A 
HETATM    6  C9  UNL     1      24.328   3.675  51.125  1.00  0.00     0.165 A 
HETATM    7  N2  UNL     1      23.298   4.332  51.678  1.00  0.00    -0.221 NA
HETATM    8  C17 UNL     1      23.163   5.643  51.454  1.00  0.00     0.235 A 
HETATM    9  N3  UNL     1      24.004   6.394  50.691  1.00  0.00    -0.243 NA
HETATM   10  C18 UNL     1      25.046   5.783  50.118  1.00  0.00     0.083 A 
ENDROOT
BRANCH   6  11
HETATM   11  N1  UNL     1      24.584   2.309  51.279  1.00  0.00    -0.339 N 
HETATM   12  H11 UNL     1      25.462   1.925  50.812  1.00  0.00     0.167 HD
BRANCH  11  13
HETATM   13  C10 UNL     1      23.849   1.340  51.970  1.00  0.00     0.033 A 
HETATM   14  C11 UNL     1      22.562   0.940  51.681  1.00  0.00     0.030 A 
HETATM   15  C12 UNL     1      21.818  -0.009  52.345  1.00  0.00     0.009 A 
HETATM   16  C13 UNL     1      22.408  -0.641  53.420  1.00  0.00    -0.062 A 
HETATM   17  C14 UNL     1      21.714  -1.669  54.205  1.00  0.00     0.048 C 
HETATM   18  C15 UNL     1      23.693  -0.296  53.774  1.00  0.00     0.009 A 
HETATM   19  C16 UNL     1      24.365   0.664  53.054  1.00  0.00     0.030 A 
ENDBRANCH  11  13
ENDBRANCH   6  11
BRANCH   1  20
HETATM   20  O1  UNL     1      26.442   7.692  50.040  1.00  0.00     0.000 OA
BRANCH  20  21
HETATM   21  C2  UNL     1      26.115   9.009  49.731  1.00  0.00    -0.011 C 
HETATM   22  C1  UNL     1      27.301   9.205  50.317  1.00  0.00     0.011 C 
ENDBRANCH  20  21
ENDBRANCH   1  20
BRANCH   2  23
HETATM   23  C5  UNL     1      28.049   6.520  47.863  1.00  0.00     0.032 C 
HETATM   24  C6  UNL     1      29.407   5.887  48.055  1.00  0.00     0.010 C 
ENDBRANCH   2  23
TORSDOF 5
ENDMDL
MODEL 3
REMARK VINA RESULT:      -7.5      4.922      7.046
REMARK  5 active torsions:
REMARK  status: ('A' for Active; 'I' for Inactive)
REMARK    1  A    between atoms: C2_2  and  O1_3 
REMARK    2  A    between atoms: O1_3  and  C3_4 
REMARK    3  A    between atoms: C4_5  and  C5_6 
REMARK    4  A    between atoms: C9_11  and  N1_12 
REMARK    5  A    between atoms: N1_12  and  C10_13 
ROOT
HETATM    1  C3  UNL     1      25.306   1.532  53.367  1.00  0.00     0.086 A 
HETATM    2  C4  UNL     1      26.366   0.742  52.711  1.00  0.00    -0.047 A 
HETATM    3  C7  UNL     1      26.841   1.050  51.516  1.00  0.00     0.146 A 
HETATM    4  O2  UNL     1      26.346   2.150  50.833  1.00  0.00    -0.316 OA
HETATM    5  C8  UNL     1      25.344   2.988  51.329  1.00  0.00     0.146 A 
HETATM    6  C9  UNL     1      24.906   4.079  50.565  1.00  0.00     0.165 A 
HETATM    7  N2  UNL     1      23.943   4.832  51.115  1.00  0.00    -0.221 NA
HETATM    8  C17 UNL     1      23.470   4.510  52.323  1.00  0.00     0.235 A 
HETATM    9  N3  UNL     1      23.891   3.452  53.068  1.00  0.00    -0.243 NA
HETATM   10  C18 UNL     1      24.852   2.671  52.562  1.00  0.00     0.083 A 
ENDROOT
BRANCH   6  11
HETATM   11  N1  UNL     1      25.486   4.304  49.313  1.00  0.00    -0.339 N 
HETATM   12  H11 UNL     1      25.110   3.735  48.495  1.00  0.00     0.167 HD
BRANCH  11  13
HETATM   13  C10 UNL     1      26.512   5.185  48.957  1.00  0.00     0.033 A 
HETATM   14  C11 UNL     1      26.414   6.558  48.887  1.00  0.00     0.030 A 
HETATM   15  C12 UNL     1      27.409   7.445  48.539  1.00  0.00     0.009 A 
HETATM   16  C13 UNL     1      28.645   6.922  48.224  1.00  0.00    -0.062 A 
HETATM   17  C14 UNL     1      29.782   7.768  47.838  1.00  0.00     0.048 C 
HETATM   18  C15 UNL     1      28.824   5.557  48.269  1.00  0.00     0.009 A 
HETATM   19  C16 UNL     1      27.775   4.743  48.627  1.00  0.00     0.030 A 
ENDBRANCH  11  13
ENDBRANCH   6  11
BRANCH   1  20
HETATM   20  O1  UNL     1      24.211   0.708  53.718  1.00  0.00     0.000 OA
BRANCH  20  21
HETATM   21  C2  UNL     1      23.355   0.158  52.770  1.00  0.00    -0.011 C 
HETATM   22  C1  UNL     1      22.981  -0.548  53.843  1.00  0.00     0.011 C 
ENDBRANCH  20  21
ENDBRANCH   1  20
BRANCH   2  23
HETATM   23  C5  UNL     1      26.911  -0.438  53.422  1.00  0.00     0.032 C 
HETATM   24  C6  UNL     1      26.746  -1.659  52.549  1.00  0.00     0.010 C 
ENDBRANCH   2  23
TORSDOF 5
ENDMDL
MODEL 4
REMARK VINA RESULT:      -7.4      2.586      4.704
REMARK  5 active torsions:
REMARK  status: ('A' for Active; 'I' for Inactive)
REMARK    1  A    between atoms: C2_2  and  O1_3 
REMARK    2  A    between atoms: O1_3  and  C3_4 
REMARK    3  A    between atoms: C4_5  and  C5_6 
REMARK    4  A    between atoms: C9_11  and  N1_12 
REMARK    5  A    between atoms: N1_12  and  C10_13 
ROOT
HETATM    1  C3  UNL     1      23.306   2.629  50.067  1.00  0.00     0.086 A 
HETATM    2  C4  UNL     1      24.621   3.255  50.299  1.00  0.00    -0.047 A 
HETATM    3  C7  UNL     1      25.417   2.882  51.287  1.00  0.00     0.146 A 
HETATM    4  O2  UNL     1      25.029   1.869  52.150  1.00  0.00    -0.316 OA
HETATM    5  C8  UNL     1      23.813   1.187  52.052  1.00  0.00     0.146 A 
HETATM    6  C9  UNL     1      23.506   0.176  52.972  1.00  0.00     0.165 A 
HETATM    7  N2  UNL     1      22.320  -0.428  52.807  1.00  0.00    -0.221 NA
HETATM    8  C17 UNL     1      21.523  -0.042  51.805  1.00  0.00     0.235 A 
HETATM    9  N3  UNL     1      21.817   0.939  50.910  1.00  0.00    -0.243 NA
HETATM   10  C18 UNL     1      22.990   1.572  51.033  1.00  0.00     0.083 A 
ENDROOT
BRANCH   6  11
HETATM   11  N1  UNL     1      24.430  -0.130  53.976  1.00  0.00    -0.339 N 
HETATM   12  H11 UNL     1      24.056  -0.215  54.970  1.00  0.00     0.167 HD
BRANCH  11  13
HETATM   13  C10 UNL     1      25.809  -0.347  53.876  1.00  0.00     0.033 A 
HETATM   14  C11 UNL     1      26.430  -1.223  53.013  1.00  0.00     0.030 A 
HETATM   15  C12 UNL     1      27.783  -1.454  52.896  1.00  0.00     0.009 A 
HETATM   16  C13 UNL     1      28.624  -0.740  53.724  1.00  0.00    -0.062 A 
HETATM   17  C14 UNL     1      30.083  -0.901  53.691  1.00  0.00     0.048 C 
HETATM   18  C15 UNL     1      28.079   0.156  54.616  1.00  0.00     0.009 A 
HETATM   19  C16 UNL     1      26.715   0.325  54.666  1.00  0.00     0.030 A 
ENDBRANCH  11  13
ENDBRANCH   6  11
BRANCH   1  20
HETATM   20  O1  UNL     1      22.281   3.604  50.052  1.00  0.00     0.000 OA
BRANCH  20  21
HETATM   21  C2  UNL     1      21.947   4.355  51.174  1.00  0.00    -0.011 C 
HETATM   22  C1  UNL     1      21.228   5.003  50.250  1.00  0.00     0.011 C 
ENDBRANCH  20  21
ENDBRANCH   1  20
BRANCH   2  23
HETATM   23  C5  UNL     1      25.058   4.339  49.389  1.00  0.00     0.032 C 
HETATM   24  C6  UNL     1      26.559   4.275  49.233  1.00  0.00     0.010 C 
ENDBRANCH   2  23
TORSDOF 5
ENDMDL
MODEL 5
REMARK VINA RESULT:      -7.4      3.141      6.941
REMARK  5 active torsions:
REMARK  status: ('A' for Active; 'I' for Inactive)
REMARK    1  A    between atoms: C2_2  and  O1_3 
REMARK    2  A    between atoms: O1_3  and  C3_4 
REMARK    3  A    between atoms: C4_5  and  C5_6 
REMARK    4  A    between atoms: C9_11  and  N1_12 
REMARK    5  A    between atoms: N1_12  and  C10_13 
ROOT
HETATM    1  C3  UNL     1      25.929  -0.321  54.215  1.00  0.00     0.086 A 
HETATM    2  C4  UNL     1      27.004   0.688  54.283  1.00  0.00    -0.047 A 
HETATM    3  C7  UNL     1      26.857   1.912  53.804  1.00  0.00     0.146 A 
HETATM    4  O2  UNL     1      25.662   2.289  53.212  1.00  0.00    -0.316 OA
HETATM    5  C8  UNL     1      24.559   1.441  53.077  1.00  0.00     0.146 A 
HETATM    6  C9  UNL     1      23.390   1.911  52.463  1.00  0.00     0.165 A 
HETATM    7  N2  UNL     1      22.380   1.035  52.374  1.00  0.00    -0.221 NA
HETATM    8  C17 UNL     1      22.540  -0.200  52.861  1.00  0.00     0.235 A 
HETATM    9  N3  UNL     1      23.673  -0.661  53.458  1.00  0.00    -0.243 NA
HETATM   10  C18 UNL     1      24.709   0.177  53.571  1.00  0.00     0.083 A 
ENDROOT
BRANCH   6  11
HETATM   11  N1  UNL     1      23.355   3.229  51.995  1.00  0.00    -0.339 N 
HETATM   12  H11 UNL     1      22.556   3.844  52.341  1.00  0.00     0.167 HD
BRANCH  11  13
HETATM   13  C10 UNL     1      24.227   3.883  51.119  1.00  0.00     0.033 A 
HETATM   14  C11 UNL     1      25.007   3.283  50.154  1.00  0.00     0.030 A 
HETATM   15  C12 UNL     1      25.873   3.905  49.282  1.00  0.00     0.009 A 
HETATM   16  C13 UNL     1      25.984   5.277  49.367  1.00  0.00    -0.062 A 
HETATM   17  C14 UNL     1      26.874   6.049  48.490  1.00  0.00     0.048 C 
HETATM   18  C15 UNL     1      25.237   5.951  50.307  1.00  0.00     0.009 A 
HETATM   19  C16 UNL     1      24.397   5.250  51.140  1.00  0.00     0.030 A 
ENDBRANCH  11  13
ENDBRANCH   6  11
BRANCH   1  20
HETATM   20  O1  UNL     1      26.383  -1.495  53.570  1.00  0.00     0.000 OA
BRANCH  20  21
HETATM   21  C2  UNL     1      26.724  -1.523  52.221  1.00  0.00    -0.011 C 
HETATM   22  C1  UNL     1      27.466  -2.546  52.660  1.00  0.00     0.011 C 
ENDBRANCH  20  21
ENDBRANCH   1  20
BRANCH   2  23
HETATM   23  C5  UNL     1      28.291   0.308  54.912  1.00  0.00     0.032 C 
HETATM   24  C6  UNL     1      29.403   0.493  53.908  1.00  0.00     0.010 C 
ENDBRANCH   2  23
TORSDOF 5
ENDMDL
MODEL 6
REMARK VINA RESULT:      -7.3      2.031      7.695
REMARK  5 active torsions:
REMARK  status: ('A' for Active; 'I' for Inactive)
REMARK    1  A    between atoms: C2_2  and  O1_3 
REMARK    2  A    between atoms: O1_3  and  C3_4 
REMARK    3  A    between atoms: C4_5  and  C5_6 
REMARK    4  A    between atoms: C9_11  and  N1_12 
REMARK    5  A    between atoms: N1_12  and  C10_13 
ROOT
HETATM    1  C3  UNL     1      25.404   0.323  53.147  1.00  0.00     0.086 A 
HETATM    2  C4  UNL     1      25.392   1.405  52.145  1.00  0.00    -0.047 A 
HETATM    3  C7  UNL     1      24.278   2.012  51.772  1.00  0.00     0.146 A 
HETATM    4  O2  UNL     1      23.063   1.639  52.326  1.00  0.00    -0.316 OA
HETATM    5  C8  UNL     1      22.922   0.631  53.284  1.00  0.00     0.146 A 
HETATM    6  C9  UNL     1      21.651   0.323  53.788  1.00  0.00     0.165 A 
HETATM    7  N2  UNL     1      21.603  -0.656  54.703  1.00  0.00    -0.221 NA
HETATM    8  C17 UNL     1      22.736  -1.262  55.072  1.00  0.00     0.235 A 
HETATM    9  N3  UNL     1      23.972  -0.966  54.586  1.00  0.00    -0.243 NA
HETATM   10  C18 UNL     1      24.071   0.004  53.670  1.00  0.00     0.083 A 
ENDROOT
BRANCH   6  11
HETATM   11  N1  UNL     1      20.544   1.035  53.315  1.00  0.00    -0.339 N 
HETATM   12  H11 UNL     1      20.414   2.028  53.681  1.00  0.00     0.167 HD
BRANCH  11  13
HETATM   13  C10 UNL     1      19.553   0.638  52.412  1.00  0.00     0.033 A 
HETATM   14  C11 UNL     1      18.572  -0.302  52.646  1.00  0.00     0.030 A 
HETATM   15  C12 UNL     1      17.587  -0.709  51.774  1.00  0.00     0.009 A 
HETATM   16  C13 UNL     1      17.562  -0.124  50.526  1.00  0.00    -0.062 A 
HETATM   17  C14 UNL     1      16.560  -0.477  49.512  1.00  0.00     0.048 C 
HETATM   18  C15 UNL     1      18.510   0.825  50.214  1.00  0.00     0.009 A 
HETATM   19  C16 UNL     1      19.458   1.173  51.146  1.00  0.00     0.030 A 
ENDBRANCH  11  13
ENDBRANCH   6  11
BRANCH   1  20
HETATM   20  O1  UNL     1      26.018  -0.839  52.624  1.00  0.00     0.000 OA
BRANCH  20  21
HETATM   21  C2  UNL     1      27.249  -1.304  53.079  1.00  0.00    -0.011 C 
HETATM   22  C1  UNL     1      26.906  -2.323  52.284  1.00  0.00     0.011 C 
ENDBRANCH  20  21
ENDBRANCH   1  20
BRANCH   2  23
HETATM   23  C5  UNL     1      26.679   1.822  51.539  1.00  0.00     0.032 C 
HETATM   24  C6  UNL     1      27.611   2.282  52.635  1.00  0.00     0.010 C 
ENDBRANCH   2  23
TORSDOF 5
ENDMDL
MODEL 7
REMARK VINA RESULT:      -7.2      2.172      7.712
REMARK  5 active torsions:
REMARK  status: ('A' for Active; 'I' for Inactive)
REMARK    1  A    between atoms: C2_2  and  O1_3 
REMARK    2  A    between atoms: O1_3  and  C3_4 
REMARK    3  A    between atoms: C4_5  and  C5_6 
REMARK    4  A    between atoms: C9_11  and  N1_12 
REMARK    5  A    between atoms: N1_12  and  C10_13 
ROOT
HETATM    1  C3  UNL     1      22.936   0.383  52.792  1.00  0.00     0.086 A 
HETATM    2  C4  UNL     1      23.330  -0.454  53.942  1.00  0.00    -0.047 A 
HETATM    3  C7  UNL     1      22.454  -1.165  54.632  1.00  0.00     0.146 A 
HETATM    4  O2  UNL     1      21.112  -1.144  54.285  1.00  0.00    -0.316 OA
HETATM    5  C8  UNL     1      20.595  -0.399  53.221  1.00  0.00     0.146 A 
HETATM    6  C9  UNL     1      19.222  -0.439  52.945  1.00  0.00     0.165 A 
HETATM    7  N2  UNL     1      18.809   0.304  51.908  1.00  0.00    -0.221 NA
HETATM    8  C17 UNL     1      19.704   1.019  51.219  1.00  0.00     0.235 A 
HETATM    9  N3  UNL     1      21.037   1.062  51.483  1.00  0.00    -0.243 NA
HETATM   10  C18 UNL     1      21.498   0.337  52.509  1.00  0.00     0.083 A 
ENDROOT
BRANCH   6  11
HETATM   11  N1  UNL     1      18.393  -1.230  53.747  1.00  0.00    -0.339 N 
HETATM   12  H11 UNL     1      18.474  -1.102  54.802  1.00  0.00     0.167 HD
BRANCH  11  13
HETATM   13  C10 UNL     1      17.449  -2.191  53.370  1.00  0.00     0.033 A 
HETATM   14  C11 UNL     1      16.312  -1.961  52.626  1.00  0.00     0.030 A 
HETATM   15  C12 UNL     1      15.369  -2.889  52.242  1.00  0.00     0.009 A 
HETATM   16  C13 UNL     1      15.567  -4.196  52.636  1.00  0.00    -0.062 A 
HETATM   17  C14 UNL     1      14.630  -5.272  52.288  1.00  0.00     0.048 C 
HETATM   18  C15 UNL     1      16.680  -4.507  53.384  1.00  0.00     0.009 A 
HETATM   19  C16 UNL     1      17.573  -3.517  53.723  1.00  0.00     0.030 A 
ENDBRANCH  11  13
ENDBRANCH   6  11
BRANCH   1  20
HETATM   20  O1  UNL     1      23.359   1.720  52.976  1.00  0.00     0.000 OA
BRANCH  20  21
HETATM   21  C2  UNL     1      24.174   2.379  52.061  1.00  0.00    -0.011 C 
HETATM   22  C1  UNL     1      24.374   3.153  53.134  1.00  0.00     0.011 C 
ENDBRANCH  20  21
ENDBRANCH   1  20
BRANCH   2  23
HETATM   23  C5  UNL     1      24.759  -0.493  54.332  1.00  0.00     0.032 C 
HETATM   24  C6  UNL     1      25.586  -0.877  53.128  1.00  0.00     0.010 C 
ENDBRANCH   2  23
TORSDOF 5
ENDMDL
MODEL 8
REMARK VINA RESULT:      -7.1      2.996      7.436
REMARK  5 active torsions:
REMARK  status: ('A' for Active; 'I' for Inactive)
REMARK    1  A    between atoms: C2_2  and  O1_3 
REMARK    2  A    between atoms: O1_3  and  C3_4 
REMARK    3  A    between atoms: C4_5  and  C5_6 
REMARK    4  A    between atoms: C9_11  and  N1_12 
REMARK    5  A    between atoms: N1_12  and  C10_13 
ROOT
HETATM    1  C3  UNL     1      26.117  -0.085  54.184  1.00  0.00     0.086 A 
HETATM    2  C4  UNL     1      26.992   1.043  53.812  1.00  0.00    -0.047 A 
HETATM    3  C7  UNL     1      26.551   2.085  53.127  1.00  0.00     0.146 A 
HETATM    4  O2  UNL     1      25.224   2.146  52.731  1.00  0.00    -0.316 OA
HETATM    5  C8  UNL     1      24.282   1.152  53.011  1.00  0.00     0.146 A 
HETATM    6  C9  UNL     1      22.960   1.301  52.569  1.00  0.00     0.165 A 
HETATM    7  N2  UNL     1      22.121   0.303  52.881  1.00  0.00    -0.221 NA
HETATM    8  C17 UNL     1      22.578  -0.745  53.573  1.00  0.00     0.235 A 
HETATM    9  N3  UNL     1      23.860  -0.894  54.004  1.00  0.00    -0.243 NA
HETATM   10  C18 UNL     1      24.736   0.076  53.718  1.00  0.00     0.083 A 
ENDROOT
BRANCH   6  11
HETATM   11  N1  UNL     1      22.612   2.450  51.852  1.00  0.00    -0.339 N 
HETATM   12  H11 UNL     1      22.419   3.334  52.415  1.00  0.00     0.167 HD
BRANCH  11  13
HETATM   13  C10 UNL     1      22.473   2.625  50.471  1.00  0.00     0.033 A 
HETATM   14  C11 UNL     1      22.093   1.658  49.566  1.00  0.00     0.030 A 
HETATM   15  C12 UNL     1      21.950   1.805  48.204  1.00  0.00     0.009 A 
HETATM   16  C13 UNL     1      22.208   3.050  47.669  1.00  0.00    -0.062 A 
HETATM   17  C14 UNL     1      22.089   3.328  46.232  1.00  0.00     0.048 C 
HETATM   18  C15 UNL     1      22.594   4.071  48.509  1.00  0.00     0.009 A 
HETATM   19  C16 UNL     1      22.712   3.836  49.858  1.00  0.00     0.030 A 
ENDBRANCH  11  13
ENDBRANCH   6  11
BRANCH   1  20
HETATM   20  O1  UNL     1      26.653  -1.310  53.721  1.00  0.00     0.000 OA
BRANCH  20  21
HETATM   21  C2  UNL     1      26.699  -1.643  52.371  1.00  0.00    -0.011 C 
HETATM   22  C1  UNL     1      27.644  -2.468  52.837  1.00  0.00     0.011 C 
ENDBRANCH  20  21
ENDBRANCH   1  20
BRANCH   2  23
HETATM   23  C5  UNL     1      28.415   1.000  54.225  1.00  0.00     0.032 C 
HETATM   24  C6  UNL     1      29.062   2.325  53.896  1.00  0.00     0.010 C 
ENDBRANCH   2  23
TORSDOF 5
ENDMDL
MODEL 9
REMARK VINA RESULT:      -7.0      3.550      6.126
REMARK  5 active torsions:
REMARK  status: ('A' for Active; 'I' for Inactive)
REMARK    1  A    between atoms: C2_2  and  O1_3 
REMARK    2  A    between atoms: O1_3  and  C3_4 
REMARK    3  A    between atoms: C4_5  and  C5_6 
REMARK    4  A    between atoms: C9_11  and  N1_12 
REMARK    5  A    between atoms: N1_12  and  C10_13 
ROOT
HETATM    1  C3  UNL     1      23.470   0.538  53.589  1.00  0.00     0.086 A 
HETATM    2  C4  UNL     1      24.883   0.183  53.357  1.00  0.00    -0.047 A 
HETATM    3  C7  UNL     1      25.542   0.571  52.278  1.00  0.00     0.146 A 
HETATM    4  O2  UNL     1      24.909   1.341  51.315  1.00  0.00    -0.316 OA
HETATM    5  C8  UNL     1      23.576   1.752  51.400  1.00  0.00     0.146 A 
HETATM    6  C9  UNL     1      23.021   2.530  50.375  1.00  0.00     0.165 A 
HETATM    7  N2  UNL     1      21.737   2.882  50.535  1.00  0.00    -0.221 NA
HETATM    8  C17 UNL     1      21.080   2.483  51.629  1.00  0.00     0.235 A 
HETATM    9  N3  UNL     1      21.616   1.728  52.626  1.00  0.00    -0.243 NA
HETATM   10  C18 UNL     1      22.894   1.351  52.513  1.00  0.00     0.083 A 
ENDROOT
BRANCH   6  11
HETATM   11  N1  UNL     1      23.820   2.879  49.281  1.00  0.00    -0.339 N 
HETATM   12  H11 UNL     1      23.751   2.262  48.415  1.00  0.00     0.167 HD
BRANCH  11  13
HETATM   13  C10 UNL     1      24.720   3.940  49.143  1.00  0.00     0.033 A 
HETATM   14  C11 UNL     1      26.091   3.858  49.245  1.00  0.00     0.030 A 
HETATM   15  C12 UNL     1      26.997   4.887  49.113  1.00  0.00     0.009 A 
HETATM   16  C13 UNL     1      26.496   6.145  48.850  1.00  0.00    -0.062 A 
HETATM   17  C14 UNL     1      27.363   7.319  48.689  1.00  0.00     0.048 C 
HETATM   18  C15 UNL     1      25.134   6.310  48.734  1.00  0.00     0.009 A 
HETATM   19  C16 UNL     1      24.301   5.226  48.880  1.00  0.00     0.030 A 
ENDBRANCH  11  13
ENDBRANCH   6  11
BRANCH   1  20
HETATM   20  O1  UNL     1      22.689  -0.622  53.801  1.00  0.00     0.000 OA
BRANCH  20  21
HETATM   21  C2  UNL     1      22.070  -0.895  55.017  1.00  0.00    -0.011 C 
HETATM   22  C1  UNL     1      21.294  -1.621  54.205  1.00  0.00     0.011 C 
ENDBRANCH  20  21
ENDBRANCH   1  20
BRANCH   2  23
HETATM   23  C5  UNL     1      25.581  -0.639  54.373  1.00  0.00     0.032 C 
HETATM   24  C6  UNL     1      26.747   0.147  54.924  1.00  0.00     0.010 C 
ENDBRANCH   2  23
TORSDOF 5
ENDMDL
