MODEL 1
REMARK VINA RESULT:      -8.2      0.000      0.000
REMARK  2 active torsions:
REMARK  status: ('A' for Active; 'I' for Inactive)
REMARK    1  A    between atoms: C9_10  and  O2_11 
REMARK    2  A    between atoms: C11_13  and  C12_14 
ROOT
HETATM    1  C12 UNL     1      28.802   0.534  54.442  1.00  0.00     0.134 C 
HETATM    2  C13 UNL     1      29.174  -0.843  54.006  1.00  0.00     0.237 C 
HETATM    3  O3  UNL     1      29.369  -1.964  53.569  1.00  0.00    -0.306 OA
ENDROOT
BRANCH   1   4
HETATM    4  C11 UNL     1      27.566   0.998  53.757  1.00  0.00     0.056 A 
HETATM    5  C10 UNL     1      27.629   1.964  52.858  1.00  0.00     0.070 A 
HETATM    6  C9  UNL     1      26.343   2.320  52.266  1.00  0.00     0.080 A 
HETATM    7  C8  UNL     1      25.163   1.781  52.543  1.00  0.00     0.054 A 
HETATM    8  C7  UNL     1      24.152   2.432  51.724  1.00  0.00     0.161 C 
HETATM    9  C14 UNL     1      25.109   0.708  53.568  1.00  0.00     0.193 A 
HETATM   10  C6  UNL     1      23.405   2.203  50.431  1.00  0.00     0.087 C 
HETATM   11  O1  UNL     1      23.869   3.495  52.342  1.00  0.00    -0.292 OA
HETATM   12  C5  UNL     1      22.106   1.490  50.687  1.00  0.00     0.035 C 
HETATM   13  C4  UNL     1      21.298   2.299  51.604  1.00  0.00    -0.024 C 
HETATM   14  C3  UNL     1      20.943   1.858  52.790  1.00  0.00     0.029 C 
HETATM   15  C2  UNL     1      21.188   0.610  53.500  1.00  0.00     0.052 C 
HETATM   16  C1  UNL     1      20.800   0.208  54.705  1.00  0.00     0.071 C 
HETATM   17  O5  UNL     1      21.774  -0.653  53.521  1.00  0.00    -0.327 OA
HETATM   18  C16 UNL     1      23.158  -0.727  53.252  1.00  0.00     0.141 C 
HETATM   19  C15 UNL     1      24.450  -0.527  53.122  1.00  0.00     0.035 C 
HETATM   20  O4  UNL     1      26.367   0.401  54.086  1.00  0.00    -0.341 OA
BRANCH   6  21
HETATM   21  O2  UNL     1      26.186   3.311  51.297  1.00  0.00    -0.360 OA
HETATM   22  H9  UNL     1      26.641   3.281  50.404  1.00  0.00     0.217 HD
ENDBRANCH   6  21
ENDBRANCH   1   4
TORSDOF 2
ENDMDL
MODEL 2
REMARK VINA RESULT:      -8.1      1.708      3.746
REMARK  2 active torsions:
REMARK  status: ('A' for Active; 'I' for Inactive)
REMARK    1  A    between atoms: C9_10  and  O2_11 
REMARK    2  A    between atoms: C11_13  and  C12_14 
ROOT
HETATM    1  C12 UNL     1      28.053  -0.091  54.269  1.00  0.00     0.134 C 
HETATM    2  C13 UNL     1      28.526   1.323  54.238  1.00  0.00     0.237 C 
HETATM    3  O3  UNL     1      28.782   2.514  54.201  1.00  0.00    -0.306 OA
ENDROOT
BRANCH   1   4
HETATM    4  C11 UNL     1      26.572  -0.165  54.152  1.00  0.00     0.056 A 
HETATM    5  C10 UNL     1      25.871  -0.853  55.035  1.00  0.00     0.070 A 
HETATM    6  C9  UNL     1      24.431  -0.842  54.801  1.00  0.00     0.080 A 
HETATM    7  C8  UNL     1      23.789  -0.225  53.817  1.00  0.00     0.054 A 
HETATM    8  C7  UNL     1      22.363  -0.474  53.965  1.00  0.00     0.161 C 
HETATM    9  C14 UNL     1      24.595   0.532  52.826  1.00  0.00     0.193 A 
HETATM   10  C6  UNL     1      21.137   0.201  54.530  1.00  0.00     0.087 C 
HETATM   11  O1  UNL     1      22.177  -1.609  53.444  1.00  0.00    -0.292 OA
HETATM   12  C5  UNL     1      20.437   1.007  53.470  1.00  0.00     0.035 C 
HETATM   13  C4  UNL     1      20.064   0.113  52.369  1.00  0.00    -0.024 C 
HETATM   14  C3  UNL     1      20.542   0.271  51.155  1.00  0.00     0.029 C 
HETATM   15  C2  UNL     1      21.465   1.233  50.568  1.00  0.00     0.052 C 
HETATM   16  C1  UNL     1      21.915   1.353  49.324  1.00  0.00     0.071 C 
HETATM   17  O5  UNL     1      22.291   2.342  50.729  1.00  0.00    -0.327 OA
HETATM   18  C16 UNL     1      23.269   2.275  51.746  1.00  0.00     0.141 C 
HETATM   19  C15 UNL     1      24.172   1.926  52.633  1.00  0.00     0.035 C 
HETATM   20  O4  UNL     1      25.960   0.497  53.109  1.00  0.00    -0.341 OA
BRANCH   6  21
HETATM   21  O2  UNL     1      23.509  -1.503  55.613  1.00  0.00    -0.360 OA
HETATM   22  H9  UNL     1      22.902  -1.026  56.253  1.00  0.00     0.217 HD
ENDBRANCH   6  21
ENDBRANCH   1   4
TORSDOF 2
ENDMDL
MODEL 3
REMARK VINA RESULT:      -8.1      2.091      6.168
REMARK  2 active torsions:
REMARK  status: ('A' for Active; 'I' for Inactive)
REMARK    1  A    between atoms: C9_10  and  O2_11 
REMARK    2  A    between atoms: C11_13  and  C12_14 
ROOT
HETATM    1  C12 UNL     1      19.077  -1.638  53.828  1.00  0.00     0.134 C 
HETATM    2  C13 UNL     1      17.857  -1.183  53.098  1.00  0.00     0.237 C 
HETATM    3  O3  UNL     1      16.940  -0.717  52.445  1.00  0.00    -0.306 OA
ENDROOT
BRANCH   1   4
HETATM    4  C11 UNL     1      20.253  -0.793  53.486  1.00  0.00     0.056 A 
HETATM    5  C10 UNL     1      20.077   0.429  53.018  1.00  0.00     0.070 A 
HETATM    6  C9  UNL     1      21.315   1.145  52.725  1.00  0.00     0.080 A 
HETATM    7  C8  UNL     1      22.553   0.693  52.880  1.00  0.00     0.054 A 
HETATM    8  C7  UNL     1      23.482   1.733  52.469  1.00  0.00     0.161 C 
HETATM    9  C14 UNL     1      22.730  -0.690  53.394  1.00  0.00     0.193 A 
HETATM   10  C6  UNL     1      24.326   2.822  53.088  1.00  0.00     0.087 C 
HETATM   11  O1  UNL     1      23.548   1.631  51.213  1.00  0.00    -0.292 OA
HETATM   12  C5  UNL     1      25.711   2.318  53.386  1.00  0.00     0.035 C 
HETATM   13  C4  UNL     1      26.320   1.849  52.137  1.00  0.00    -0.024 C 
HETATM   14  C3  UNL     1      26.679   0.596  51.968  1.00  0.00     0.029 C 
HETATM   15  C2  UNL     1      26.609  -0.581  52.822  1.00  0.00     0.052 C 
HETATM   16  C1  UNL     1      26.994  -1.835  52.604  1.00  0.00     0.071 C 
HETATM   17  O5  UNL     1      26.244  -1.150  54.039  1.00  0.00    -0.327 OA
HETATM   18  C16 UNL     1      24.908  -0.969  54.461  1.00  0.00     0.141 C 
HETATM   19  C15 UNL     1      23.611  -0.796  54.565  1.00  0.00     0.035 C 
HETATM   20  O4  UNL     1      21.515  -1.317  53.669  1.00  0.00    -0.341 OA
BRANCH   6  21
HETATM   21  O2  UNL     1      21.356   2.446  52.224  1.00  0.00    -0.360 OA
HETATM   22  H9  UNL     1      20.583   3.083  52.287  1.00  0.00     0.217 HD
ENDBRANCH   6  21
ENDBRANCH   1   4
TORSDOF 2
ENDMDL
MODEL 4
REMARK VINA RESULT:      -7.4      2.392      5.552
REMARK  2 active torsions:
REMARK  status: ('A' for Active; 'I' for Inactive)
REMARK    1  A    between atoms: C9_10  and  O2_11 
REMARK    2  A    between atoms: C11_13  and  C12_14 
ROOT
HETATM    1  C12 UNL     1      23.151   5.188  48.257  1.00  0.00     0.134 C 
HETATM    2  C13 UNL     1      23.854   6.471  47.964  1.00  0.00     0.237 C 
HETATM    3  O3  UNL     1      24.526   7.476  47.810  1.00  0.00    -0.306 OA
ENDROOT
BRANCH   1   4
HETATM    4  C11 UNL     1      23.913   4.369  49.236  1.00  0.00     0.056 A 
HETATM    5  C10 UNL     1      25.224   4.502  49.333  1.00  0.00     0.070 A 
HETATM    6  C9  UNL     1      25.844   3.637  50.332  1.00  0.00     0.080 A 
HETATM    7  C8  UNL     1      25.231   2.763  51.120  1.00  0.00     0.054 A 
HETATM    8  C7  UNL     1      26.227   2.120  51.963  1.00  0.00     0.161 C 
HETATM    9  C14 UNL     1      23.759   2.618  50.987  1.00  0.00     0.193 A 
HETATM   10  C6  UNL     1      26.794   2.239  53.358  1.00  0.00     0.087 C 
HETATM   11  O1  UNL     1      26.717   1.205  51.245  1.00  0.00    -0.292 OA
HETATM   12  C5  UNL     1      26.052   1.344  54.312  1.00  0.00     0.035 C 
HETATM   13  C4  UNL     1      26.154  -0.039  53.837  1.00  0.00    -0.024 C 
HETATM   14  C3  UNL     1      25.094  -0.734  53.491  1.00  0.00     0.029 C 
HETATM   15  C2  UNL     1      23.670  -0.426  53.460  1.00  0.00     0.052 C 
HETATM   16  C1  UNL     1      22.630  -1.172  53.104  1.00  0.00     0.071 C 
HETATM   17  O5  UNL     1      22.646   0.492  53.674  1.00  0.00    -0.327 OA
HETATM   18  C16 UNL     1      22.762   1.748  53.039  1.00  0.00     0.141 C 
HETATM   19  C15 UNL     1      23.016   2.764  52.246  1.00  0.00     0.035 C 
HETATM   20  O4  UNL     1      23.222   3.477  50.029  1.00  0.00    -0.341 OA
BRANCH   6  21
HETATM   21  O2  UNL     1      27.214   3.619  50.596  1.00  0.00    -0.360 OA
HETATM   22  H9  UNL     1      27.785   4.444  50.587  1.00  0.00     0.217 HD
ENDBRANCH   6  21
ENDBRANCH   1   4
TORSDOF 2
ENDMDL
MODEL 5
REMARK VINA RESULT:      -7.3      2.026      4.369
REMARK  2 active torsions:
REMARK  status: ('A' for Active; 'I' for Inactive)
REMARK    1  A    between atoms: C9_10  and  O2_11 
REMARK    2  A    between atoms: C11_13  and  C12_14 
ROOT
HETATM    1  C12 UNL     1      26.775   2.789  50.923  1.00  0.00     0.134 C 
HETATM    2  C13 UNL     1      26.250   3.791  49.951  1.00  0.00     0.237 C 
HETATM    3  O3  UNL     1      25.696   4.566  49.191  1.00  0.00    -0.306 OA
ENDROOT
BRANCH   1   4
HETATM    4  C11 UNL     1      25.667   2.029  51.563  1.00  0.00     0.056 A 
HETATM    5  C10 UNL     1      25.937   1.030  52.383  1.00  0.00     0.070 A 
HETATM    6  C9  UNL     1      24.758   0.373  52.938  1.00  0.00     0.080 A 
HETATM    7  C8  UNL     1      23.489   0.679  52.700  1.00  0.00     0.054 A 
HETATM    8  C7  UNL     1      22.642  -0.227  53.460  1.00  0.00     0.161 C 
HETATM    9  C14 UNL     1      23.206   1.796  51.764  1.00  0.00     0.193 A 
HETATM   10  C6  UNL     1      21.880  -0.257  54.763  1.00  0.00     0.087 C 
HETATM   11  O1  UNL     1      22.575  -1.274  52.758  1.00  0.00    -0.292 OA
HETATM   12  C5  UNL     1      20.459   0.192  54.559  1.00  0.00     0.035 C 
HETATM   13  C4  UNL     1      19.823  -0.690  53.577  1.00  0.00    -0.024 C 
HETATM   14  C3  UNL     1      19.371  -0.239  52.428  1.00  0.00     0.029 C 
HETATM   15  C2  UNL     1      19.349   1.085  51.821  1.00  0.00     0.052 C 
HETATM   16  C1  UNL     1      18.872   1.493  50.649  1.00  0.00     0.071 C 
HETATM   17  O5  UNL     1      19.663   2.438  51.903  1.00  0.00    -0.327 OA
HETATM   18  C16 UNL     1      21.007   2.772  52.183  1.00  0.00     0.141 C 
HETATM   19  C15 UNL     1      22.314   2.831  52.303  1.00  0.00     0.035 C 
HETATM   20  O4  UNL     1      24.368   2.393  51.277  1.00  0.00    -0.341 OA
BRANCH   6  21
HETATM   21  O2  UNL     1      24.817  -0.702  53.825  1.00  0.00    -0.360 OA
HETATM   22  H9  UNL     1      25.678  -1.134  54.106  1.00  0.00     0.217 HD
ENDBRANCH   6  21
ENDBRANCH   1   4
TORSDOF 2
ENDMDL
MODEL 6
REMARK VINA RESULT:      -7.3      1.741      3.812
REMARK  2 active torsions:
REMARK  status: ('A' for Active; 'I' for Inactive)
REMARK    1  A    between atoms: C9_10  and  O2_11 
REMARK    2  A    between atoms: C11_13  and  C12_14 
ROOT
HETATM    1  C12 UNL     1      27.459   0.212  54.183  1.00  0.00     0.134 C 
HETATM    2  C13 UNL     1      28.337   1.268  53.600  1.00  0.00     0.237 C 
HETATM    3  O3  UNL     1      28.943   2.181  53.066  1.00  0.00    -0.306 OA
ENDROOT
BRANCH   1   4
HETATM    4  C11 UNL     1      26.046   0.394  53.757  1.00  0.00     0.056 A 
HETATM    5  C10 UNL     1      25.153  -0.548  54.004  1.00  0.00     0.070 A 
HETATM    6  C9  UNL     1      23.807  -0.240  53.532  1.00  0.00     0.080 A 
HETATM    7  C8  UNL     1      23.417   0.860  52.899  1.00  0.00     0.054 A 
HETATM    8  C7  UNL     1      21.995   0.752  52.615  1.00  0.00     0.161 C 
HETATM    9  C14 UNL     1      24.438   1.901  52.617  1.00  0.00     0.193 A 
HETATM   10  C6  UNL     1      20.675   1.206  53.192  1.00  0.00     0.087 C 
HETATM   11  O1  UNL     1      21.926   0.060  51.561  1.00  0.00    -0.292 OA
HETATM   12  C5  UNL     1      20.248   2.512  52.582  1.00  0.00     0.035 C 
HETATM   13  C4  UNL     1      20.135   2.339  51.131  1.00  0.00    -0.024 C 
HETATM   14  C3  UNL     1      20.884   3.017  50.290  1.00  0.00     0.029 C 
HETATM   15  C2  UNL     1      21.926   4.018  50.474  1.00  0.00     0.052 C 
HETATM   16  C1  UNL     1      22.656   4.683  49.583  1.00  0.00     0.071 C 
HETATM   17  O5  UNL     1      22.701   4.786  51.338  1.00  0.00    -0.327 OA
HETATM   18  C16 UNL     1      23.414   4.101  52.347  1.00  0.00     0.141 C 
HETATM   19  C15 UNL     1      24.082   3.246  53.087  1.00  0.00     0.035 C 
HETATM   20  O4  UNL     1      25.699   1.557  53.103  1.00  0.00    -0.341 OA
BRANCH   6  21
HETATM   21  O2  UNL     1      22.716  -1.095  53.691  1.00  0.00    -0.360 OA
HETATM   22  H9  UNL     1      22.407  -1.727  52.977  1.00  0.00     0.217 HD
ENDBRANCH   6  21
ENDBRANCH   1   4
TORSDOF 2
ENDMDL
MODEL 7
REMARK VINA RESULT:      -7.1      3.077      7.501
REMARK  2 active torsions:
REMARK  status: ('A' for Active; 'I' for Inactive)
REMARK    1  A    between atoms: C9_10  and  O2_11 
REMARK    2  A    between atoms: C11_13  and  C12_14 
ROOT
HETATM    1  C12 UNL     1      16.598  -0.663  51.544  1.00  0.00     0.134 C 
HETATM    2  C13 UNL     1      15.603  -0.153  52.532  1.00  0.00     0.237 C 
HETATM    3  O3  UNL     1      14.897   0.294  53.418  1.00  0.00    -0.306 OA
ENDROOT
BRANCH   1   4
HETATM    4  C11 UNL     1      17.987  -0.520  52.057  1.00  0.00     0.056 A 
HETATM    5  C10 UNL     1      18.375  -1.205  53.118  1.00  0.00     0.070 A 
HETATM    6  C9  UNL     1      19.760  -0.969  53.513  1.00  0.00     0.080 A 
HETATM    7  C8  UNL     1      20.629  -0.158  52.924  1.00  0.00     0.054 A 
HETATM    8  C7  UNL     1      21.892  -0.230  53.642  1.00  0.00     0.161 C 
HETATM    9  C14 UNL     1      20.170   0.615  51.742  1.00  0.00     0.193 A 
HETATM   10  C6  UNL     1      23.225  -0.931  53.543  1.00  0.00     0.087 C 
HETATM   11  O1  UNL     1      21.751   0.550  54.624  1.00  0.00    -0.292 OA
HETATM   12  C5  UNL     1      24.213  -0.091  52.782  1.00  0.00     0.035 C 
HETATM   13  C4  UNL     1      24.365   1.195  53.468  1.00  0.00    -0.024 C 
HETATM   14  C3  UNL     1      24.046   2.332  52.890  1.00  0.00     0.029 C 
HETATM   15  C2  UNL     1      23.512   2.662  51.576  1.00  0.00     0.052 C 
HETATM   16  C1  UNL     1      23.209   3.838  51.035  1.00  0.00     0.071 C 
HETATM   17  O5  UNL     1      23.063   2.233  50.330  1.00  0.00    -0.327 OA
HETATM   18  C16 UNL     1      22.045   1.254  50.314  1.00  0.00     0.141 C 
HETATM   19  C15 UNL     1      21.018   0.470  50.552  1.00  0.00     0.035 C 
HETATM   20  O4  UNL     1      18.846   0.339  51.404  1.00  0.00    -0.341 OA
BRANCH   6  21
HETATM   21  O2  UNL     1      20.370  -1.591  54.602  1.00  0.00    -0.360 OA
HETATM   22  H9  UNL     1      21.167  -1.208  55.076  1.00  0.00     0.217 HD
ENDBRANCH   6  21
ENDBRANCH   1   4
TORSDOF 2
ENDMDL
MODEL 8
REMARK VINA RESULT:      -6.9      2.187      4.561
REMARK  2 active torsions:
REMARK  status: ('A' for Active; 'I' for Inactive)
REMARK    1  A    between atoms: C9_10  and  O2_11 
REMARK    2  A    between atoms: C11_13  and  C12_14 
ROOT
HETATM    1  C12 UNL     1      26.792   3.976  49.581  1.00  0.00     0.134 C 
HETATM    2  C13 UNL     1      26.269   5.333  49.248  1.00  0.00     0.237 C 
HETATM    3  O3  UNL     1      25.726   6.403  49.036  1.00  0.00    -0.306 OA
ENDROOT
BRANCH   1   4
HETATM    4  C11 UNL     1      25.767   3.164  50.289  1.00  0.00     0.056 A 
HETATM    5  C10 UNL     1      24.491   3.284  49.971  1.00  0.00     0.070 A 
HETATM    6  C9  UNL     1      23.595   2.430  50.744  1.00  0.00     0.080 A 
HETATM    7  C8  UNL     1      23.936   1.578  51.702  1.00  0.00     0.054 A 
HETATM    8  C7  UNL     1      22.732   0.934  52.202  1.00  0.00     0.161 C 
HETATM    9  C14 UNL     1      25.374   1.467  52.056  1.00  0.00     0.193 A 
HETATM   10  C6  UNL     1      21.958  -0.349  52.013  1.00  0.00     0.087 C 
HETATM   11  O1  UNL     1      22.248   1.752  53.032  1.00  0.00    -0.292 OA
HETATM   12  C5  UNL     1      22.394  -1.386  53.011  1.00  0.00     0.035 C 
HETATM   13  C4  UNL     1      22.182  -0.858  54.362  1.00  0.00    -0.024 C 
HETATM   14  C3  UNL     1      23.177  -0.673  55.199  1.00  0.00     0.029 C 
HETATM   15  C2  UNL     1      24.614  -0.890  55.098  1.00  0.00     0.052 C 
HETATM   16  C1  UNL     1      25.585  -0.690  55.983  1.00  0.00     0.071 C 
HETATM   17  O5  UNL     1      25.706  -1.301  54.338  1.00  0.00    -0.327 OA
HETATM   18  C16 UNL     1      25.876  -0.695  53.073  1.00  0.00     0.141 C 
HETATM   19  C15 UNL     1      25.905   0.098  52.027  1.00  0.00     0.035 C 
HETATM   20  O4  UNL     1      26.181   2.294  51.276  1.00  0.00    -0.341 OA
BRANCH   6  21
HETATM   21  O2  UNL     1      22.211   2.400  50.568  1.00  0.00    -0.360 OA
HETATM   22  H9  UNL     1      21.592   1.901  51.179  1.00  0.00     0.217 HD
ENDBRANCH   6  21
ENDBRANCH   1   4
TORSDOF 2
ENDMDL
MODEL 9
REMARK VINA RESULT:      -6.9      2.292      5.086
REMARK  2 active torsions:
REMARK  status: ('A' for Active; 'I' for Inactive)
REMARK    1  A    between atoms: C9_10  and  O2_11 
REMARK    2  A    between atoms: C11_13  and  C12_14 
ROOT
HETATM    1  C12 UNL     1      26.265   5.582  48.860  1.00  0.00     0.134 C 
HETATM    2  C13 UNL     1      27.690   5.247  48.575  1.00  0.00     0.237 C 
HETATM    3  O3  UNL     1      28.837   4.865  48.422  1.00  0.00    -0.306 OA
ENDROOT
BRANCH   1   4
HETATM    4  C11 UNL     1      25.654   4.589  49.784  1.00  0.00     0.056 A 
HETATM    5  C10 UNL     1      24.350   4.596  49.996  1.00  0.00     0.070 A 
HETATM    6  C9  UNL     1      23.886   3.569  50.923  1.00  0.00     0.080 A 
HETATM    7  C8  UNL     1      24.630   2.665  51.548  1.00  0.00     0.054 A 
HETATM    8  C7  UNL     1      23.762   1.839  52.373  1.00  0.00     0.161 C 
HETATM    9  C14 UNL     1      26.095   2.682  51.308  1.00  0.00     0.193 A 
HETATM   10  C6  UNL     1      23.059   0.503  52.313  1.00  0.00     0.087 C 
HETATM   11  O1  UNL     1      23.591   2.505  53.431  1.00  0.00    -0.292 OA
HETATM   12  C5  UNL     1      23.918  -0.576  52.913  1.00  0.00     0.035 C 
HETATM   13  C4  UNL     1      24.219  -0.221  54.302  1.00  0.00    -0.024 C 
HETATM   14  C3  UNL     1      25.449  -0.014  54.715  1.00  0.00     0.029 C 
HETATM   15  C2  UNL     1      26.742  -0.054  54.044  1.00  0.00     0.052 C 
HETATM   16  C1  UNL     1      27.968   0.161  54.511  1.00  0.00     0.071 C 
HETATM   17  O5  UNL     1      27.472  -0.255  52.876  1.00  0.00    -0.327 OA
HETATM   18  C16 UNL     1      27.093   0.496  51.741  1.00  0.00     0.141 C 
HETATM   19  C15 UNL     1      26.659   1.393  50.886  1.00  0.00     0.035 C 
HETATM   20  O4  UNL     1      26.477   3.673  50.405  1.00  0.00    -0.341 OA
BRANCH   6  21
HETATM   21  O2  UNL     1      22.549   3.400  51.285  1.00  0.00    -0.360 OA
HETATM   22  H9  UNL     1      22.224   3.471  52.231  1.00  0.00     0.217 HD
ENDBRANCH   6  21
ENDBRANCH   1   4
TORSDOF 2
ENDMDL
