MODEL 1
REMARK VINA RESULT:      -9.5      0.000      0.000
REMARK  1 active torsions:
REMARK  status: ('A' for Active; 'I' for Inactive)
REMARK    1  A    between atoms: C5_6  and  N1_7 
ROOT
HETATM    1  N1  UNL     1      24.760   0.660  53.422  1.00  0.00    -0.286 N 
HETATM    2  C6  UNL     1      24.111  -0.535  53.847  1.00  0.00     0.130 C 
HETATM    3  C7  UNL     1      22.810  -0.914  53.798  1.00  0.00     0.134 C 
HETATM    4  N2  UNL     1      21.711  -0.129  53.267  1.00  0.00    -0.275 NA
HETATM    5  C8  UNL     1      21.669   0.619  52.216  1.00  0.00     0.099 C 
HETATM    6  C9  UNL     1      22.599   1.000  51.166  1.00  0.00     0.073 C 
HETATM    7  C10 UNL     1      21.895   1.685  50.014  1.00  0.00     0.004 C 
HETATM    8  C11 UNL     1      21.408   1.844  48.786  1.00  0.00     0.112 C 
HETATM    9  N3  UNL     1      20.751   3.027  48.438  1.00  0.00    -0.276 NA
HETATM   10  C12 UNL     1      19.639   3.246  47.886  1.00  0.00     0.108 C 
HETATM   11  C13 UNL     1      19.456   4.743  47.767  1.00  0.00     0.160 C 
HETATM   12  N4  UNL     1      19.671   5.298  46.523  1.00  0.00    -0.417 N 
HETATM   13  C14 UNL     1      20.832   5.371  45.797  1.00  0.00     0.114 C 
HETATM   14  C15 UNL     1      22.013   6.172  46.205  1.00  0.00     0.019 C 
HETATM   15  C16 UNL     1      22.705   5.606  47.386  1.00  0.00     0.007 C 
HETATM   16  C17 UNL     1      23.953   6.375  47.832  1.00  0.00     0.047 C 
HETATM   17  C18 UNL     1      24.486   5.519  48.971  1.00  0.00     0.089 C 
HETATM   18  N5  UNL     1      23.524   5.296  49.788  1.00  0.00    -0.277 NA
HETATM   19  C19 UNL     1      23.794   4.500  50.942  1.00  0.00     0.113 C 
HETATM   20  C20 UNL     1      23.766   3.143  51.005  1.00  0.00     0.014 C 
HETATM   21  C21 UNL     1      23.852   1.713  51.525  1.00  0.00     0.114 C 
HETATM   22  N6  UNL     1      24.163   1.854  52.914  1.00  0.00    -0.224 NA
HETATM   23  H13 UNL     1      18.824   5.789  46.112  1.00  0.00     0.153 HD
HETATM   24  H26 UNL     1      23.375   2.128  53.528  1.00  0.00     0.147 HD
ENDROOT
BRANCH   1  25
HETATM   25  C5  UNL     1      26.167   0.767  53.465  1.00  0.00     0.052 A 
HETATM   26  C4  UNL     1      26.727   2.024  53.542  1.00  0.00     0.031 A 
HETATM   27  C3  UNL     1      28.083   2.232  53.582  1.00  0.00     0.004 A 
HETATM   28  C2  UNL     1      28.972   1.197  53.549  1.00  0.00     0.024 A 
HETATM   29  C1  UNL     1      28.461  -0.078  53.474  1.00  0.00     0.036 A 
HETATM   30 CL1  UNL     1      29.532  -1.461  53.428  1.00  0.00    -0.084 Cl
HETATM   31  C22 UNL     1      27.095  -0.243  53.435  1.00  0.00     0.054 A 
ENDBRANCH   1  25
TORSDOF 1
ENDMDL
MODEL 2
REMARK VINA RESULT:      -9.4      1.682      2.154
REMARK  1 active torsions:
REMARK  status: ('A' for Active; 'I' for Inactive)
REMARK    1  A    between atoms: C5_6  and  N1_7 
ROOT
HETATM    1  N1  UNL     1      25.034  -0.155  54.391  1.00  0.00    -0.286 N 
HETATM    2  C6  UNL     1      24.484  -1.219  55.163  1.00  0.00     0.130 C 
HETATM    3  C7  UNL     1      23.201  -1.531  55.472  1.00  0.00     0.134 C 
HETATM    4  N2  UNL     1      22.020  -0.797  55.060  1.00  0.00    -0.275 NA
HETATM    5  C8  UNL     1      21.750  -0.248  53.923  1.00  0.00     0.099 C 
HETATM    6  C9  UNL     1      22.423  -0.111  52.642  1.00  0.00     0.073 C 
HETATM    7  C10 UNL     1      21.486   0.393  51.566  1.00  0.00     0.004 C 
HETATM    8  C11 UNL     1      20.735   0.355  50.467  1.00  0.00     0.112 C 
HETATM    9  N3  UNL     1      20.030   1.491  50.059  1.00  0.00    -0.276 NA
HETATM   10  C12 UNL     1      18.825   1.666  49.733  1.00  0.00     0.108 C 
HETATM   11  C13 UNL     1      18.637   3.125  49.381  1.00  0.00     0.160 C 
HETATM   12  N4  UNL     1      18.571   3.436  48.039  1.00  0.00    -0.417 N 
HETATM   13  C14 UNL     1      19.540   3.317  47.075  1.00  0.00     0.114 C 
HETATM   14  C15 UNL     1      20.791   4.115  47.058  1.00  0.00     0.019 C 
HETATM   15  C16 UNL     1      21.725   3.733  48.142  1.00  0.00     0.007 C 
HETATM   16  C17 UNL     1      23.051   4.502  48.152  1.00  0.00     0.047 C 
HETATM   17  C18 UNL     1      23.817   3.837  49.284  1.00  0.00     0.089 C 
HETATM   18  N5  UNL     1      23.062   3.814  50.320  1.00  0.00    -0.277 NA
HETATM   19  C19 UNL     1      23.576   3.224  51.513  1.00  0.00     0.113 C 
HETATM   20  C20 UNL     1      23.548   1.904  51.832  1.00  0.00     0.014 C 
HETATM   21  C21 UNL     1      23.733   0.588  52.578  1.00  0.00     0.114 C 
HETATM   22  N6  UNL     1      24.351   0.959  53.813  1.00  0.00    -0.224 NA
HETATM   23  H13 UNL     1      17.660   3.890  47.741  1.00  0.00     0.153 HD
HETATM   24  H26 UNL     1      23.725   1.379  54.523  1.00  0.00     0.147 HD
ENDROOT
BRANCH   1  25
HETATM   25  C5  UNL     1      26.415  -0.117  54.104  1.00  0.00     0.052 A 
HETATM   26  C4  UNL     1      26.967  -1.163  53.396  1.00  0.00     0.031 A 
HETATM   27  C3  UNL     1      28.300  -1.220  53.073  1.00  0.00     0.004 A 
HETATM   28  C2  UNL     1      29.172  -0.235  53.436  1.00  0.00     0.024 A 
HETATM   29  C1  UNL     1      28.669   0.831  54.144  1.00  0.00     0.036 A 
HETATM   30 CL1  UNL     1      29.719   2.138  54.647  1.00  0.00    -0.084 Cl
HETATM   31  C22 UNL     1      27.326   0.850  54.447  1.00  0.00     0.054 A 
ENDBRANCH   1  25
TORSDOF 1
ENDMDL
MODEL 3
REMARK VINA RESULT:      -9.3      0.938      1.298
REMARK  1 active torsions:
REMARK  status: ('A' for Active; 'I' for Inactive)
REMARK    1  A    between atoms: C5_6  and  N1_7 
ROOT
HETATM    1  N1  UNL     1      24.394   0.226  53.382  1.00  0.00    -0.286 N 
HETATM    2  C6  UNL     1      23.596  -0.894  53.752  1.00  0.00     0.130 C 
HETATM    3  C7  UNL     1      22.255  -1.089  53.715  1.00  0.00     0.134 C 
HETATM    4  N2  UNL     1      21.264  -0.132  53.263  1.00  0.00    -0.275 NA
HETATM    5  C8  UNL     1      21.305   0.680  52.259  1.00  0.00     0.099 C 
HETATM    6  C9  UNL     1      22.258   0.997  51.209  1.00  0.00     0.073 C 
HETATM    7  C10 UNL     1      21.634   1.842  50.120  1.00  0.00     0.004 C 
HETATM    8  C11 UNL     1      21.150   2.143  48.917  1.00  0.00     0.112 C 
HETATM    9  N3  UNL     1      20.654   3.424  48.659  1.00  0.00    -0.276 NA
HETATM   10  C12 UNL     1      19.572   3.826  48.151  1.00  0.00     0.108 C 
HETATM   11  C13 UNL     1      19.594   5.338  48.128  1.00  0.00     0.160 C 
HETATM   12  N4  UNL     1      19.859   5.937  46.914  1.00  0.00    -0.417 N 
HETATM   13  C14 UNL     1      21.006   5.897  46.162  1.00  0.00     0.114 C 
HETATM   14  C15 UNL     1      22.292   6.504  46.586  1.00  0.00     0.019 C 
HETATM   15  C16 UNL     1      22.922   5.776  47.712  1.00  0.00     0.007 C 
HETATM   16  C17 UNL     1      24.272   6.340  48.169  1.00  0.00     0.047 C 
HETATM   17  C18 UNL     1      24.705   5.349  49.239  1.00  0.00     0.089 C 
HETATM   18  N5  UNL     1      23.737   5.207  50.067  1.00  0.00    -0.277 NA
HETATM   19  C19 UNL     1      23.916   4.310  51.163  1.00  0.00     0.113 C 
HETATM   20  C20 UNL     1      23.704   2.969  51.145  1.00  0.00     0.014 C 
HETATM   21  C21 UNL     1      23.604   1.510  51.577  1.00  0.00     0.114 C 
HETATM   22  N6  UNL     1      23.956   1.520  52.962  1.00  0.00    -0.224 NA
HETATM   23  H13 UNL     1      19.080   6.562  46.556  1.00  0.00     0.153 HD
HETATM   24  H26 UNL     1      23.225   1.859  53.613  1.00  0.00     0.147 HD
ENDROOT
BRANCH   1  25
HETATM   25  C5  UNL     1      25.803   0.139  53.393  1.00  0.00     0.052 A 
HETATM   26  C4  UNL     1      26.389  -1.062  53.056  1.00  0.00     0.031 A 
HETATM   27  C3  UNL     1      27.749  -1.248  53.045  1.00  0.00     0.004 A 
HETATM   28  C2  UNL     1      28.616  -0.246  53.368  1.00  0.00     0.024 A 
HETATM   29  C1  UNL     1      28.079   0.973  53.712  1.00  0.00     0.036 A 
HETATM   30 CL1  UNL     1      29.122   2.312  54.139  1.00  0.00    -0.084 Cl
HETATM   31  C22 UNL     1      26.710   1.118  53.711  1.00  0.00     0.054 A 
ENDBRANCH   1  25
TORSDOF 1
ENDMDL
MODEL 4
REMARK VINA RESULT:      -9.0      3.860      5.377
REMARK  1 active torsions:
REMARK  status: ('A' for Active; 'I' for Inactive)
REMARK    1  A    between atoms: C5_6  and  N1_7 
ROOT
HETATM    1  N1  UNL     1      23.543   0.748  53.194  1.00  0.00    -0.286 N 
HETATM    2  C6  UNL     1      23.913  -0.462  53.850  1.00  0.00     0.130 C 
HETATM    3  C7  UNL     1      23.204  -1.304  54.642  1.00  0.00     0.134 C 
HETATM    4  N2  UNL     1      21.815  -1.148  55.028  1.00  0.00    -0.275 NA
HETATM    5  C8  UNL     1      20.807  -0.750  54.325  1.00  0.00     0.099 C 
HETATM    6  C9  UNL     1      20.595  -0.313  52.955  1.00  0.00     0.073 C 
HETATM    7  C10 UNL     1      19.123  -0.247  52.609  1.00  0.00     0.004 C 
HETATM    8  C11 UNL     1      17.978  -0.587  52.022  1.00  0.00     0.112 C 
HETATM    9  N3  UNL     1      16.812   0.137  52.284  1.00  0.00    -0.276 NA
HETATM   10  C12 UNL     1      15.650  -0.222  52.621  1.00  0.00     0.108 C 
HETATM   11  C13 UNL     1      14.796   1.018  52.765  1.00  0.00     0.160 C 
HETATM   12  N4  UNL     1      13.921   1.293  51.734  1.00  0.00    -0.417 N 
HETATM   13  C14 UNL     1      14.196   1.621  50.431  1.00  0.00     0.114 C 
HETATM   14  C15 UNL     1      14.861   2.882  50.020  1.00  0.00     0.019 C 
HETATM   15  C16 UNL     1      16.291   2.924  50.405  1.00  0.00     0.007 C 
HETATM   16  C17 UNL     1      17.037   4.192  49.974  1.00  0.00     0.047 C 
HETATM   17  C18 UNL     1      18.466   3.905  50.410  1.00  0.00     0.089 C 
HETATM   18  N5  UNL     1      18.444   3.540  51.638  1.00  0.00    -0.277 NA
HETATM   19  C19 UNL     1      19.684   3.211  52.264  1.00  0.00     0.113 C 
HETATM   20  C20 UNL     1      20.305   2.003  52.227  1.00  0.00     0.014 C 
HETATM   21  C21 UNL     1      21.316   0.885  52.452  1.00  0.00     0.114 C 
HETATM   22  N6  UNL     1      22.312   1.465  53.298  1.00  0.00    -0.224 NA
HETATM   23  H13 UNL     1      12.900   1.311  52.022  1.00  0.00     0.153 HD
HETATM   24  H26 UNL     1      22.057   1.561  54.297  1.00  0.00     0.147 HD
ENDROOT
BRANCH   1  25
HETATM   25  C5  UNL     1      24.438   1.386  52.308  1.00  0.00     0.052 A 
HETATM   26  C4  UNL     1      25.773   1.048  52.367  1.00  0.00     0.031 A 
HETATM   27  C3  UNL     1      26.720   1.617  51.552  1.00  0.00     0.004 A 
HETATM   28  C2  UNL     1      26.396   2.562  50.623  1.00  0.00     0.024 A 
HETATM   29  C1  UNL     1      25.076   2.933  50.525  1.00  0.00     0.036 A 
HETATM   30 CL1  UNL     1      24.576   4.137  49.358  1.00  0.00    -0.084 Cl
HETATM   31  C22 UNL     1      24.157   2.338  51.361  1.00  0.00     0.054 A 
ENDBRANCH   1  25
TORSDOF 1
ENDMDL
MODEL 5
REMARK VINA RESULT:      -8.8      6.817     10.044
REMARK  1 active torsions:
REMARK  status: ('A' for Active; 'I' for Inactive)
REMARK    1  A    between atoms: C5_6  and  N1_7 
ROOT
HETATM    1  N1  UNL     1      26.286   6.889  49.147  1.00  0.00    -0.286 N 
HETATM    2  C6  UNL     1      25.508   8.077  49.033  1.00  0.00     0.130 C 
HETATM    3  C7  UNL     1      25.861   9.355  48.749  1.00  0.00     0.134 C 
HETATM    4  N2  UNL     1      27.205   9.831  48.482  1.00  0.00    -0.275 NA
HETATM    5  C8  UNL     1      28.151   9.279  47.797  1.00  0.00     0.099 C 
HETATM    6  C9  UNL     1      28.313   8.047  47.043  1.00  0.00     0.073 C 
HETATM    7  C10 UNL     1      29.566   8.070  46.194  1.00  0.00     0.004 C 
HETATM    8  C11 UNL     1      30.306   8.116  45.089  1.00  0.00     0.112 C 
HETATM    9  N3  UNL     1      31.700   8.081  45.174  1.00  0.00    -0.276 NA
HETATM   10  C12 UNL     1      32.597   8.809  44.670  1.00  0.00     0.108 C 
HETATM   11  C13 UNL     1      33.942   8.284  45.120  1.00  0.00     0.160 C 
HETATM   12  N4  UNL     1      34.660   7.547  44.203  1.00  0.00    -0.417 N 
HETATM   13  C14 UNL     1      34.360   6.330  43.646  1.00  0.00     0.114 C 
HETATM   14  C15 UNL     1      34.303   5.061  44.414  1.00  0.00     0.019 C 
HETATM   15  C16 UNL     1      33.144   5.004  45.335  1.00  0.00     0.007 C 
HETATM   16  C17 UNL     1      33.016   3.701  46.130  1.00  0.00     0.047 C 
HETATM   17  C18 UNL     1      31.712   3.896  46.889  1.00  0.00     0.089 C 
HETATM   18  N5  UNL     1      31.764   5.029  47.487  1.00  0.00    -0.277 NA
HETATM   19  C19 UNL     1      30.636   5.431  48.264  1.00  0.00     0.113 C 
HETATM   20  C20 UNL     1      29.526   6.063  47.800  1.00  0.00     0.014 C 
HETATM   21  C21 UNL     1      28.163   6.742  47.738  1.00  0.00     0.114 C 
HETATM   22  N6  UNL     1      27.707   6.758  49.093  1.00  0.00    -0.224 NA
HETATM   23  H13 UNL     1      35.604   7.962  43.952  1.00  0.00     0.153 HD
HETATM   24  H26 UNL     1      28.138   7.473  49.706  1.00  0.00     0.147 HD
ENDROOT
BRANCH   1  25
HETATM   25  C5  UNL     1      25.660   5.637  49.329  1.00  0.00     0.052 A 
HETATM   26  C4  UNL     1      24.394   5.455  48.815  1.00  0.00     0.031 A 
HETATM   27  C3  UNL     1      23.701   4.277  48.946  1.00  0.00     0.004 A 
HETATM   28  C2  UNL     1      24.228   3.201  49.600  1.00  0.00     0.024 A 
HETATM   29  C1  UNL     1      25.489   3.333  50.130  1.00  0.00     0.036 A 
HETATM   30 CL1  UNL     1      26.238   2.001  50.983  1.00  0.00    -0.084 Cl
HETATM   31  C22 UNL     1      26.150   4.531  49.977  1.00  0.00     0.054 A 
ENDBRANCH   1  25
TORSDOF 1
ENDMDL
MODEL 6
REMARK VINA RESULT:      -8.8      2.156      2.543
REMARK  1 active torsions:
REMARK  status: ('A' for Active; 'I' for Inactive)
REMARK    1  A    between atoms: C5_6  and  N1_7 
ROOT
HETATM    1  N1  UNL     1      23.792   0.819  53.082  1.00  0.00    -0.286 N 
HETATM    2  C6  UNL     1      22.879  -0.275  53.063  1.00  0.00     0.130 C 
HETATM    3  C7  UNL     1      21.529  -0.312  52.942  1.00  0.00     0.134 C 
HETATM    4  N2  UNL     1      20.651   0.833  52.797  1.00  0.00    -0.275 NA
HETATM    5  C8  UNL     1      20.815   1.910  52.104  1.00  0.00     0.099 C 
HETATM    6  C9  UNL     1      21.844   2.442  51.226  1.00  0.00     0.073 C 
HETATM    7  C10 UNL     1      21.352   3.645  50.449  1.00  0.00     0.004 C 
HETATM    8  C11 UNL     1      20.957   4.354  49.394  1.00  0.00     0.112 C 
HETATM    9  N3  UNL     1      20.592   5.695  49.546  1.00  0.00    -0.276 NA
HETATM   10  C12 UNL     1      19.577   6.343  49.172  1.00  0.00     0.108 C 
HETATM   11  C13 UNL     1      19.735   7.775  49.628  1.00  0.00     0.160 C 
HETATM   12  N4  UNL     1      20.113   8.694  48.671  1.00  0.00    -0.417 N 
HETATM   13  C14 UNL     1      21.287   8.777  47.967  1.00  0.00     0.114 C 
HETATM   14  C15 UNL     1      22.600   9.088  48.585  1.00  0.00     0.019 C 
HETATM   15  C16 UNL     1      23.106   7.984  49.434  1.00  0.00     0.007 C 
HETATM   16  C17 UNL     1      24.477   8.237  50.071  1.00  0.00     0.047 C 
HETATM   17  C18 UNL     1      24.765   6.923  50.780  1.00  0.00     0.089 C 
HETATM   18  N5  UNL     1      23.748   6.626  51.503  1.00  0.00    -0.277 NA
HETATM   19  C19 UNL     1      23.793   5.418  52.262  1.00  0.00     0.113 C 
HETATM   20  C20 UNL     1      23.462   4.178  51.816  1.00  0.00     0.014 C 
HETATM   21  C21 UNL     1      23.210   2.676  51.762  1.00  0.00     0.114 C 
HETATM   22  N6  UNL     1      23.493   2.216  53.085  1.00  0.00    -0.224 NA
HETATM   23  H13 UNL     1      19.412   9.475  48.516  1.00  0.00     0.153 HD
HETATM   24  H26 UNL     1      22.764   2.406  53.796  1.00  0.00     0.147 HD
ENDROOT
BRANCH   1  25
HETATM   25  C5  UNL     1      25.185   0.591  53.091  1.00  0.00     0.052 A 
HETATM   26  C4  UNL     1      25.641  -0.692  52.873  1.00  0.00     0.031 A 
HETATM   27  C3  UNL     1      26.975  -1.015  52.869  1.00  0.00     0.004 A 
HETATM   28  C2  UNL     1      27.944  -0.078  53.083  1.00  0.00     0.024 A 
HETATM   29  C1  UNL     1      27.539   1.217  53.305  1.00  0.00     0.036 A 
HETATM   30 CL1  UNL     1      28.717   2.480  53.588  1.00  0.00    -0.084 Cl
HETATM   31  C22 UNL     1      26.191   1.499  53.301  1.00  0.00     0.054 A 
ENDBRANCH   1  25
TORSDOF 1
ENDMDL
MODEL 7
REMARK VINA RESULT:      -8.7      2.946      5.083
REMARK  1 active torsions:
REMARK  status: ('A' for Active; 'I' for Inactive)
REMARK    1  A    between atoms: C5_6  and  N1_7 
ROOT
HETATM    1  N1  UNL     1      24.197   0.805  52.138  1.00  0.00    -0.286 N 
HETATM    2  C6  UNL     1      25.569   0.628  52.474  1.00  0.00     0.130 C 
HETATM    3  C7  UNL     1      26.693   1.207  51.985  1.00  0.00     0.134 C 
HETATM    4  N2  UNL     1      26.752   2.204  50.933  1.00  0.00    -0.275 NA
HETATM    5  C8  UNL     1      25.979   3.215  50.716  1.00  0.00     0.099 C 
HETATM    6  C9  UNL     1      24.801   3.786  51.349  1.00  0.00     0.073 C 
HETATM    7  C10 UNL     1      24.490   5.167  50.813  1.00  0.00     0.004 C 
HETATM    8  C11 UNL     1      24.373   6.493  50.816  1.00  0.00     0.112 C 
HETATM    9  N3  UNL     1      23.910   7.160  49.678  1.00  0.00    -0.276 NA
HETATM   10  C12 UNL     1      24.359   8.148  49.036  1.00  0.00     0.108 C 
HETATM   11  C13 UNL     1      23.425   8.424  47.879  1.00  0.00     0.160 C 
HETATM   12  N4  UNL     1      22.558   9.487  48.020  1.00  0.00    -0.417 N 
HETATM   13  C14 UNL     1      21.524   9.648  48.908  1.00  0.00     0.114 C 
HETATM   14  C15 UNL     1      20.291   8.822  48.898  1.00  0.00     0.019 C 
HETATM   15  C16 UNL     1      20.537   7.426  49.330  1.00  0.00     0.007 C 
HETATM   16  C17 UNL     1      19.290   6.535  49.372  1.00  0.00     0.047 C 
HETATM   17  C18 UNL     1      19.829   5.229  49.933  1.00  0.00     0.089 C 
HETATM   18  N5  UNL     1      20.857   4.891  49.244  1.00  0.00    -0.277 NA
HETATM   19  C19 UNL     1      21.537   3.687  49.599  1.00  0.00     0.113 C 
HETATM   20  C20 UNL     1      22.502   3.561  50.546  1.00  0.00     0.014 C 
HETATM   21  C21 UNL     1      23.566   2.968  51.462  1.00  0.00     0.114 C 
HETATM   22  N6  UNL     1      23.642   1.592  51.082  1.00  0.00    -0.224 NA
HETATM   23  H13 UNL     1      22.680  10.250  47.293  1.00  0.00     0.153 HD
HETATM   24  H26 UNL     1      24.155   1.393  50.205  1.00  0.00     0.147 HD
ENDROOT
BRANCH   1  25
HETATM   25  C5  UNL     1      23.186   0.169  52.891  1.00  0.00     0.052 A 
HETATM   26  C4  UNL     1      23.548  -0.508  54.035  1.00  0.00     0.031 A 
HETATM   27  C3  UNL     1      22.640  -1.163  54.830  1.00  0.00     0.004 A 
HETATM   28  C2  UNL     1      21.307  -1.185  54.534  1.00  0.00     0.024 A 
HETATM   29  C1  UNL     1      20.896  -0.522  53.401  1.00  0.00     0.036 A 
HETATM   30 CL1  UNL     1      19.206  -0.500  52.951  1.00  0.00    -0.084 Cl
HETATM   31  C22 UNL     1      21.839   0.122  52.632  1.00  0.00     0.054 A 
ENDBRANCH   1  25
TORSDOF 1
ENDMDL
MODEL 8
REMARK VINA RESULT:      -8.6      3.843      7.598
REMARK  1 active torsions:
REMARK  status: ('A' for Active; 'I' for Inactive)
REMARK    1  A    between atoms: C5_6  and  N1_7 
ROOT
HETATM    1  N1  UNL     1      27.114   7.623  47.941  1.00  0.00    -0.286 N 
HETATM    2  C6  UNL     1      26.303   8.654  47.387  1.00  0.00     0.130 C 
HETATM    3  C7  UNL     1      25.010   8.654  46.978  1.00  0.00     0.134 C 
HETATM    4  N2  UNL     1      24.102   7.523  47.014  1.00  0.00    -0.275 NA
HETATM    5  C8  UNL     1      23.951   6.619  47.924  1.00  0.00     0.099 C 
HETATM    6  C9  UNL     1      24.551   6.326  49.215  1.00  0.00     0.073 C 
HETATM    7  C10 UNL     1      23.758   5.287  49.979  1.00  0.00     0.004 C 
HETATM    8  C11 UNL     1      22.968   4.792  50.929  1.00  0.00     0.112 C 
HETATM    9  N3  UNL     1      22.639   3.433  50.931  1.00  0.00    -0.276 NA
HETATM   10  C12 UNL     1      21.535   2.830  51.019  1.00  0.00     0.108 C 
HETATM   11  C13 UNL     1      21.803   1.343  50.963  1.00  0.00     0.160 C 
HETATM   12  N4  UNL     1      21.756   0.658  52.159  1.00  0.00    -0.417 N 
HETATM   13  C14 UNL     1      22.572   0.775  53.256  1.00  0.00     0.114 C 
HETATM   14  C15 UNL     1      24.009   0.405  53.259  1.00  0.00     0.019 C 
HETATM   15  C16 UNL     1      24.839   1.333  52.456  1.00  0.00     0.007 C 
HETATM   16  C17 UNL     1      26.339   1.018  52.451  1.00  0.00     0.047 C 
HETATM   17  C18 UNL     1      26.922   2.171  51.648  1.00  0.00     0.089 C 
HETATM   18  N5  UNL     1      26.266   2.266  50.550  1.00  0.00    -0.277 NA
HETATM   19  C19 UNL     1      26.638   3.293  49.632  1.00  0.00     0.113 C 
HETATM   20  C20 UNL     1      26.208   4.582  49.653  1.00  0.00     0.014 C 
HETATM   21  C21 UNL     1      26.009   6.050  49.296  1.00  0.00     0.114 C 
HETATM   22  N6  UNL     1      26.789   6.242  48.114  1.00  0.00    -0.224 NA
HETATM   23  H13 UNL     1      21.021  -0.106  52.197  1.00  0.00     0.153 HD
HETATM   24  H26 UNL     1      26.377   5.877  47.236  1.00  0.00     0.147 HD
ENDROOT
BRANCH   1  25
HETATM   25  C5  UNL     1      28.414   7.907  48.411  1.00  0.00     0.052 A 
HETATM   26  C4  UNL     1      28.644   9.130  49.004  1.00  0.00     0.031 A 
HETATM   27  C3  UNL     1      29.874   9.503  49.487  1.00  0.00     0.004 A 
HETATM   28  C2  UNL     1      30.958   8.677  49.410  1.00  0.00     0.024 A 
HETATM   29  C1  UNL     1      30.779   7.444  48.828  1.00  0.00     0.036 A 
HETATM   30 CL1  UNL     1      32.117   6.325  48.691  1.00  0.00    -0.084 Cl
HETATM   31  C22 UNL     1      29.529   7.110  48.356  1.00  0.00     0.054 A 
ENDBRANCH   1  25
TORSDOF 1
ENDMDL
MODEL 9
REMARK VINA RESULT:      -8.5      2.604      3.290
REMARK  1 active torsions:
REMARK  status: ('A' for Active; 'I' for Inactive)
REMARK    1  A    between atoms: C5_6  and  N1_7 
ROOT
HETATM    1  N1  UNL     1      23.042   0.039  53.327  1.00  0.00    -0.286 N 
HETATM    2  C6  UNL     1      22.623  -1.241  53.791  1.00  0.00     0.130 C 
HETATM    3  C7  UNL     1      21.395  -1.722  54.105  1.00  0.00     0.134 C 
HETATM    4  N2  UNL     1      20.146  -0.987  54.036  1.00  0.00    -0.275 NA
HETATM    5  C8  UNL     1      19.735  -0.149  53.144  1.00  0.00     0.099 C 
HETATM    6  C9  UNL     1      20.262   0.406  51.908  1.00  0.00     0.073 C 
HETATM    7  C10 UNL     1      19.196   1.134  51.120  1.00  0.00     0.004 C 
HETATM    8  C11 UNL     1      18.336   1.366  50.130  1.00  0.00     0.112 C 
HETATM    9  N3  UNL     1      17.543   2.517  50.143  1.00  0.00    -0.276 NA
HETATM   10  C12 UNL     1      16.304   2.693  49.993  1.00  0.00     0.108 C 
HETATM   11  C13 UNL     1      16.018   4.173  50.111  1.00  0.00     0.160 C 
HETATM   12  N4  UNL     1      15.798   4.859  48.935  1.00  0.00    -0.417 N 
HETATM   13  C14 UNL     1      16.663   5.098  47.898  1.00  0.00     0.114 C 
HETATM   14  C15 UNL     1      17.870   5.953  48.009  1.00  0.00     0.019 C 
HETATM   15  C16 UNL     1      18.929   5.339  48.843  1.00  0.00     0.007 C 
HETATM   16  C17 UNL     1      20.214   6.165  48.965  1.00  0.00     0.047 C 
HETATM   17  C18 UNL     1      21.124   5.254  49.774  1.00  0.00     0.089 C 
HETATM   18  N5  UNL     1      20.484   4.875  50.819  1.00  0.00    -0.277 NA
HETATM   19  C19 UNL     1      21.146   3.999  51.731  1.00  0.00     0.113 C 
HETATM   20  C20 UNL     1      21.208   2.645  51.642  1.00  0.00     0.014 C 
HETATM   21  C21 UNL     1      21.527   1.185  51.941  1.00  0.00     0.114 C 
HETATM   22  N6  UNL     1      22.255   1.221  53.171  1.00  0.00    -0.224 NA
HETATM   23  H13 UNL     1      14.841   5.313  48.867  1.00  0.00     0.153 HD
HETATM   24  H26 UNL     1      21.690   1.369  54.027  1.00  0.00     0.147 HD
ENDROOT
BRANCH   1  25
HETATM   25  C5  UNL     1      24.383   0.259  52.943  1.00  0.00     0.052 A 
HETATM   26  C4  UNL     1      25.331  -0.674  53.305  1.00  0.00     0.031 A 
HETATM   27  C3  UNL     1      26.659  -0.545  52.985  1.00  0.00     0.004 A 
HETATM   28  C2  UNL     1      27.131   0.524  52.281  1.00  0.00     0.024 A 
HETATM   29  C1  UNL     1      26.223   1.483  51.897  1.00  0.00     0.036 A 
HETATM   30 CL1  UNL     1      26.744   2.886  50.990  1.00  0.00    -0.084 Cl
HETATM   31  C22 UNL     1      24.899   1.316  52.238  1.00  0.00     0.054 A 
ENDBRANCH   1  25
TORSDOF 1
ENDMDL
