MODEL 1
REMARK VINA RESULT:      -8.9      0.000      0.000
REMARK  0 active torsions:
REMARK  status: ('A' for Active; 'I' for Inactive)
ROOT
HETATM    1  F1  UNL     1      21.941   4.712  52.884  1.00  0.00    -0.172 F 
HETATM    2  C1  UNL     1      23.197   4.175  52.489  1.00  0.00     0.418 C 
HETATM    3  F2  UNL     1      24.010   4.510  53.566  1.00  0.00    -0.172 F 
HETATM    4  N1  UNL     1      23.082   2.794  52.282  1.00  0.00    -0.297 N 
HETATM    5  C2  UNL     1      23.863   1.826  52.313  1.00  0.00     0.052 A 
HETATM    6  C3  UNL     1      25.176   1.258  52.506  1.00  0.00    -0.008 A 
HETATM    7  C4  UNL     1      25.397  -0.090  52.419  1.00  0.00     0.032 A 
HETATM    8  C5  UNL     1      26.662  -0.578  52.593  1.00  0.00     0.117 A 
HETATM    9  N2  UNL     1      27.681   0.253  52.845  1.00  0.00    -0.273 NA
HETATM   10  C6  UNL     1      27.491   1.575  52.934  1.00  0.00     0.117 A 
HETATM   11  C7  UNL     1      26.231   2.084  52.763  1.00  0.00     0.032 A 
HETATM   12  C8  UNL     1      22.615   1.260  51.935  1.00  0.00     0.182 A 
HETATM   13  C9  UNL     1      21.691   0.403  51.588  1.00  0.00     0.121 C 
HETATM   14  N3  UNL     1      20.343   0.399  51.270  1.00  0.00    -0.274 NA
HETATM   15  C10 UNL     1      19.770   1.049  50.287  1.00  0.00     0.127 C 
HETATM   16  C11 UNL     1      20.882   1.766  49.619  1.00  0.00    -0.016 A 
HETATM   17  C12 UNL     1      21.585   1.302  48.524  1.00  0.00     0.013 A 
HETATM   18  C13 UNL     1      22.655   1.977  47.930  1.00  0.00     0.004 A 
HETATM   19  C14 UNL     1      22.989   3.177  48.516  1.00  0.00     0.037 A 
HETATM   20  C15 UNL     1      22.325   3.686  49.606  1.00  0.00     0.076 A 
HETATM   21  C16 UNL     1      21.272   2.999  50.170  1.00  0.00     0.049 A 
HETATM   22  O1  UNL     1      22.648   4.884  50.209  1.00  0.00    -0.277 OA
HETATM   23  C17 UNL     1      23.588   4.993  51.263  1.00  0.00     0.447 C 
HETATM   24  F3  UNL     1      23.610   6.325  51.621  1.00  0.00    -0.167 F 
HETATM   25  F4  UNL     1      24.841   4.593  50.892  1.00  0.00    -0.167 F 
ENDROOT
TORSDOF 0
ENDMDL
MODEL 2
REMARK VINA RESULT:      -8.5      2.317      3.313
REMARK  0 active torsions:
REMARK  status: ('A' for Active; 'I' for Inactive)
ROOT
HETATM    1  F1  UNL     1      23.792   4.731  52.307  1.00  0.00    -0.172 F 
HETATM    2  C1  UNL     1      23.726   3.313  52.375  1.00  0.00     0.418 C 
HETATM    3  F2  UNL     1      24.405   3.046  53.559  1.00  0.00    -0.172 F 
HETATM    4  N1  UNL     1      22.388   2.897  52.390  1.00  0.00    -0.297 N 
HETATM    5  C2  UNL     1      21.778   1.896  52.806  1.00  0.00     0.052 A 
HETATM    6  C3  UNL     1      21.742   0.604  53.450  1.00  0.00    -0.008 A 
HETATM    7  C4  UNL     1      20.566  -0.061  53.665  1.00  0.00     0.032 A 
HETATM    8  C5  UNL     1      20.587  -1.289  54.265  1.00  0.00     0.117 A 
HETATM    9  N2  UNL     1      21.747  -1.843  54.638  1.00  0.00    -0.273 NA
HETATM   10  C6  UNL     1      22.911  -1.212  54.438  1.00  0.00     0.117 A 
HETATM   11  C7  UNL     1      22.912   0.019  53.839  1.00  0.00     0.032 A 
HETATM   12  C8  UNL     1      20.771   2.699  52.203  1.00  0.00     0.182 A 
HETATM   13  C9  UNL     1      19.614   3.128  51.771  1.00  0.00     0.121 C 
HETATM   14  N3  UNL     1      19.097   4.223  51.098  1.00  0.00    -0.274 NA
HETATM   15  C10 UNL     1      19.426   4.630  49.897  1.00  0.00     0.127 C 
HETATM   16  C11 UNL     1      20.455   3.662  49.447  1.00  0.00    -0.016 A 
HETATM   17  C12 UNL     1      20.209   2.534  48.687  1.00  0.00     0.013 A 
HETATM   18  C13 UNL     1      21.188   1.613  48.303  1.00  0.00     0.004 A 
HETATM   19  C14 UNL     1      22.463   1.897  48.739  1.00  0.00     0.037 A 
HETATM   20  C15 UNL     1      22.764   3.004  49.496  1.00  0.00     0.076 A 
HETATM   21  C16 UNL     1      21.779   3.896  49.859  1.00  0.00     0.049 A 
HETATM   22  O1  UNL     1      24.034   3.302  49.945  1.00  0.00    -0.277 OA
HETATM   23  C17 UNL     1      24.549   2.840  51.181  1.00  0.00     0.447 C 
HETATM   24  F3  UNL     1      25.816   3.372  51.291  1.00  0.00    -0.167 F 
HETATM   25  F4  UNL     1      24.610   1.476  51.247  1.00  0.00    -0.167 F 
ENDROOT
TORSDOF 0
ENDMDL
MODEL 3
REMARK VINA RESULT:      -8.2      2.610      4.226
REMARK  0 active torsions:
REMARK  status: ('A' for Active; 'I' for Inactive)
ROOT
HETATM    1  F1  UNL     1      21.475   0.894  49.745  1.00  0.00    -0.172 F 
HETATM    2  C1  UNL     1      21.920   0.816  51.093  1.00  0.00     0.418 C 
HETATM    3  F2  UNL     1      21.803  -0.543  51.361  1.00  0.00    -0.172 F 
HETATM    4  N1  UNL     1      23.233   1.296  51.190  1.00  0.00    -0.297 N 
HETATM    5  C2  UNL     1      24.186   1.114  51.970  1.00  0.00     0.052 A 
HETATM    6  C3  UNL     1      24.777   0.495  53.132  1.00  0.00    -0.008 A 
HETATM    7  C4  UNL     1      26.081   0.721  53.483  1.00  0.00     0.032 A 
HETATM    8  C5  UNL     1      26.590   0.125  54.602  1.00  0.00     0.117 A 
HETATM    9  N2  UNL     1      25.824  -0.675  55.354  1.00  0.00    -0.273 NA
HETATM   10  C6  UNL     1      24.545  -0.911  55.032  1.00  0.00     0.117 A 
HETATM   11  C7  UNL     1      24.016  -0.322  53.915  1.00  0.00     0.032 A 
HETATM   12  C8  UNL     1      24.669   2.074  51.039  1.00  0.00     0.182 A 
HETATM   13  C9  UNL     1      25.443   2.922  50.415  1.00  0.00     0.121 C 
HETATM   14  N3  UNL     1      25.387   3.770  49.321  1.00  0.00    -0.274 NA
HETATM   15  C10 UNL     1      24.557   4.769  49.147  1.00  0.00     0.127 C 
HETATM   16  C11 UNL     1      23.719   4.771  50.370  1.00  0.00    -0.016 A 
HETATM   17  C12 UNL     1      23.955   5.535  51.496  1.00  0.00     0.013 A 
HETATM   18  C13 UNL     1      23.173   5.496  52.654  1.00  0.00     0.004 A 
HETATM   19  C14 UNL     1      22.112   4.620  52.615  1.00  0.00     0.037 A 
HETATM   20  C15 UNL     1      21.831   3.835  51.522  1.00  0.00     0.076 A 
HETATM   21  C16 UNL     1      22.619   3.896  50.394  1.00  0.00     0.049 A 
HETATM   22  O1  UNL     1      20.775   2.949  51.467  1.00  0.00    -0.277 OA
HETATM   23  C17 UNL     1      20.874   1.598  51.881  1.00  0.00     0.447 C 
HETATM   24  F3  UNL     1      19.640   1.032  51.640  1.00  0.00    -0.167 F 
HETATM   25  F4  UNL     1      21.190   1.477  53.204  1.00  0.00    -0.167 F 
ENDROOT
TORSDOF 0
ENDMDL
MODEL 4
REMARK VINA RESULT:      -8.1      2.879      4.774
REMARK  0 active torsions:
REMARK  status: ('A' for Active; 'I' for Inactive)
ROOT
HETATM    1  F1  UNL     1      22.767   3.088  47.432  1.00  0.00    -0.172 F 
HETATM    2  C1  UNL     1      22.696   2.828  48.828  1.00  0.00     0.418 C 
HETATM    3  F2  UNL     1      22.229   1.519  48.858  1.00  0.00    -0.172 F 
HETATM    4  N1  UNL     1      23.961   2.987  49.409  1.00  0.00    -0.297 N 
HETATM    5  C2  UNL     1      24.531   2.544  50.422  1.00  0.00     0.052 A 
HETATM    6  C3  UNL     1      24.552   1.736  51.618  1.00  0.00    -0.008 A 
HETATM    7  C4  UNL     1      25.671   1.635  52.399  1.00  0.00     0.032 A 
HETATM    8  C5  UNL     1      25.636   0.870  53.532  1.00  0.00     0.117 A 
HETATM    9  N2  UNL     1      24.516   0.224  53.880  1.00  0.00    -0.273 NA
HETATM   10  C6  UNL     1      23.408   0.308  53.133  1.00  0.00     0.117 A 
HETATM   11  C7  UNL     1      23.423   1.069  51.995  1.00  0.00     0.032 A 
HETATM   12  C8  UNL     1      25.483   3.422  49.837  1.00  0.00     0.182 A 
HETATM   13  C9  UNL     1      26.575   4.107  49.617  1.00  0.00     0.121 C 
HETATM   14  N3  UNL     1      27.067   5.010  48.689  1.00  0.00    -0.274 NA
HETATM   15  C10 UNL     1      26.560   6.181  48.394  1.00  0.00     0.127 C 
HETATM   16  C11 UNL     1      25.369   6.301  49.268  1.00  0.00    -0.016 A 
HETATM   17  C12 UNL     1      25.346   6.921  50.503  1.00  0.00     0.013 A 
HETATM   18  C13 UNL     1      24.221   6.991  51.329  1.00  0.00     0.004 A 
HETATM   19  C14 UNL     1      23.089   6.386  50.831  1.00  0.00     0.037 A 
HETATM   20  C15 UNL     1      23.055   5.755  49.610  1.00  0.00     0.076 A 
HETATM   21  C16 UNL     1      24.179   5.703  48.816  1.00  0.00     0.049 A 
HETATM   22  O1  UNL     1      21.932   5.141  49.097  1.00  0.00    -0.277 OA
HETATM   23  C17 UNL     1      21.616   3.780  49.333  1.00  0.00     0.447 C 
HETATM   24  F3  UNL     1      20.455   3.528  48.632  1.00  0.00    -0.167 F 
HETATM   25  F4  UNL     1      21.425   3.509  50.659  1.00  0.00    -0.167 F 
ENDROOT
TORSDOF 0
ENDMDL
MODEL 5
REMARK VINA RESULT:      -8.1      2.935      5.031
REMARK  0 active torsions:
REMARK  status: ('A' for Active; 'I' for Inactive)
ROOT
HETATM    1  F1  UNL     1      22.635   1.718  47.453  1.00  0.00    -0.172 F 
HETATM    2  C1  UNL     1      21.843   1.675  48.634  1.00  0.00     0.418 C 
HETATM    3  F2  UNL     1      21.219   0.438  48.520  1.00  0.00    -0.172 F 
HETATM    4  N1  UNL     1      22.665   1.787  49.763  1.00  0.00    -0.297 N 
HETATM    5  C2  UNL     1      22.581   1.442  50.955  1.00  0.00     0.052 A 
HETATM    6  C3  UNL     1      21.879   0.820  52.053  1.00  0.00    -0.008 A 
HETATM    7  C4  UNL     1      22.435   0.721  53.300  1.00  0.00     0.032 A 
HETATM    8  C5  UNL     1      21.723   0.138  54.310  1.00  0.00     0.117 A 
HETATM    9  N2  UNL     1      20.490  -0.334  54.088  1.00  0.00    -0.273 NA
HETATM   10  C6  UNL     1      19.924  -0.248  52.877  1.00  0.00     0.117 A 
HETATM   11  C7  UNL     1      20.620   0.333  51.852  1.00  0.00     0.032 A 
HETATM   12  C8  UNL     1      23.825   2.124  50.872  1.00  0.00     0.182 A 
HETATM   13  C9  UNL     1      24.978   2.654  51.187  1.00  0.00     0.121 C 
HETATM   14  N3  UNL     1      26.002   3.357  50.574  1.00  0.00    -0.274 NA
HETATM   15  C10 UNL     1      25.903   4.518  49.974  1.00  0.00     0.127 C 
HETATM   16  C11 UNL     1      24.473   4.884  50.109  1.00  0.00    -0.016 A 
HETATM   17  C12 UNL     1      23.945   5.677  51.110  1.00  0.00     0.013 A 
HETATM   18  C13 UNL     1      22.587   5.982  51.241  1.00  0.00     0.004 A 
HETATM   19  C14 UNL     1      21.767   5.428  50.284  1.00  0.00     0.037 A 
HETATM   20  C15 UNL     1      22.238   4.633  49.267  1.00  0.00     0.076 A 
HETATM   21  C16 UNL     1      23.582   4.350  49.162  1.00  0.00     0.049 A 
HETATM   22  O1  UNL     1      21.431   4.067  48.302  1.00  0.00    -0.277 OA
HETATM   23  C17 UNL     1      20.825   2.795  48.446  1.00  0.00     0.447 C 
HETATM   24  F3  UNL     1      20.138   2.562  47.273  1.00  0.00    -0.167 F 
HETATM   25  F4  UNL     1      19.965   2.741  49.507  1.00  0.00    -0.167 F 
ENDROOT
TORSDOF 0
ENDMDL
MODEL 6
REMARK VINA RESULT:      -8.0     10.577     12.638
REMARK  0 active torsions:
REMARK  status: ('A' for Active; 'I' for Inactive)
ROOT
HETATM    1  F1  UNL     1      32.411   3.253  48.207  1.00  0.00    -0.172 F 
HETATM    2  C1  UNL     1      33.128   3.719  47.071  1.00  0.00     0.418 C 
HETATM    3  F2  UNL     1      32.943   2.682  46.163  1.00  0.00    -0.172 F 
HETATM    4  N1  UNL     1      32.598   4.942  46.641  1.00  0.00    -0.297 N 
HETATM    5  C2  UNL     1      32.563   5.561  45.562  1.00  0.00     0.052 A 
HETATM    6  C3  UNL     1      32.877   5.688  44.158  1.00  0.00    -0.008 A 
HETATM    7  C4  UNL     1      32.456   6.762  43.421  1.00  0.00     0.032 A 
HETATM    8  C5  UNL     1      32.793   6.844  42.099  1.00  0.00     0.117 A 
HETATM    9  N2  UNL     1      33.529   5.886  41.525  1.00  0.00    -0.273 NA
HETATM   10  C6  UNL     1      33.954   4.826  42.225  1.00  0.00     0.117 A 
HETATM   11  C7  UNL     1      33.627   4.725  43.551  1.00  0.00     0.032 A 
HETATM   12  C8  UNL     1      31.912   6.424  46.485  1.00  0.00     0.182 A 
HETATM   13  C9  UNL     1      31.281   7.446  47.001  1.00  0.00     0.121 C 
HETATM   14  N3  UNL     1      30.784   7.848  48.231  1.00  0.00    -0.274 NA
HETATM   15  C10 UNL     1      31.471   8.020  49.333  1.00  0.00     0.127 C 
HETATM   16  C11 UNL     1      32.866   7.690  48.956  1.00  0.00    -0.016 A 
HETATM   17  C12 UNL     1      33.821   8.606  48.557  1.00  0.00     0.013 A 
HETATM   18  C13 UNL     1      35.122   8.271  48.170  1.00  0.00     0.004 A 
HETATM   19  C14 UNL     1      35.416   6.927  48.207  1.00  0.00     0.037 A 
HETATM   20  C15 UNL     1      34.506   5.974  48.596  1.00  0.00     0.076 A 
HETATM   21  C16 UNL     1      33.231   6.333  48.973  1.00  0.00     0.049 A 
HETATM   22  O1  UNL     1      34.783   4.623  48.635  1.00  0.00    -0.277 OA
HETATM   23  C17 UNL     1      34.582   3.757  47.532  1.00  0.00     0.447 C 
HETATM   24  F3  UNL     1      34.931   2.495  47.966  1.00  0.00    -0.167 F 
HETATM   25  F4  UNL     1      35.341   4.102  46.450  1.00  0.00    -0.167 F 
ENDROOT
TORSDOF 0
ENDMDL
MODEL 7
REMARK VINA RESULT:      -7.9      2.614      4.644
REMARK  0 active torsions:
REMARK  status: ('A' for Active; 'I' for Inactive)
ROOT
HETATM    1  F1  UNL     1      25.391   1.203  51.482  1.00  0.00    -0.172 F 
HETATM    2  C1  UNL     1      25.167   2.607  51.471  1.00  0.00     0.418 C 
HETATM    3  F2  UNL     1      26.463   3.109  51.471  1.00  0.00    -0.172 F 
HETATM    4  N1  UNL     1      24.428   2.963  50.336  1.00  0.00    -0.297 N 
HETATM    5  C2  UNL     1      24.293   3.997  49.656  1.00  0.00     0.052 A 
HETATM    6  C3  UNL     1      24.593   5.380  49.372  1.00  0.00    -0.008 A 
HETATM    7  C4  UNL     1      24.062   6.024  48.288  1.00  0.00     0.032 A 
HETATM    8  C5  UNL     1      24.363   7.340  48.071  1.00  0.00     0.117 A 
HETATM    9  N2  UNL     1      25.171   7.998  48.911  1.00  0.00    -0.273 NA
HETATM   10  C6  UNL     1      25.703   7.390  49.979  1.00  0.00     0.117 A 
HETATM   11  C7  UNL     1      25.413   6.073  50.214  1.00  0.00     0.032 A 
HETATM   12  C8  UNL     1      23.414   3.058  49.050  1.00  0.00     0.182 A 
HETATM   13  C9  UNL     1      22.537   2.511  48.249  1.00  0.00     0.121 C 
HETATM   14  N3  UNL     1      21.898   1.293  48.083  1.00  0.00    -0.274 NA
HETATM   15  C10 UNL     1      21.123   0.692  48.952  1.00  0.00     0.127 C 
HETATM   16  C11 UNL     1      21.097   1.606  50.119  1.00  0.00    -0.016 A 
HETATM   17  C12 UNL     1      20.134   2.568  50.356  1.00  0.00     0.013 A 
HETATM   18  C13 UNL     1      20.146   3.445  51.444  1.00  0.00     0.004 A 
HETATM   19  C14 UNL     1      21.211   3.296  52.304  1.00  0.00     0.037 A 
HETATM   20  C15 UNL     1      22.196   2.356  52.118  1.00  0.00     0.076 A 
HETATM   21  C16 UNL     1      22.157   1.504  51.037  1.00  0.00     0.049 A 
HETATM   22  O1  UNL     1      23.271   2.196  52.967  1.00  0.00    -0.277 OA
HETATM   23  C17 UNL     1      24.495   2.892  52.810  1.00  0.00     0.447 C 
HETATM   24  F3  UNL     1      25.324   2.441  53.815  1.00  0.00    -0.167 F 
HETATM   25  F4  UNL     1      24.343   4.247  52.906  1.00  0.00    -0.167 F 
ENDROOT
TORSDOF 0
ENDMDL
MODEL 8
REMARK VINA RESULT:      -7.8      2.774      3.744
REMARK  0 active torsions:
REMARK  status: ('A' for Active; 'I' for Inactive)
ROOT
HETATM    1  F1  UNL     1      21.919   5.775  52.234  1.00  0.00    -0.172 F 
HETATM    2  C1  UNL     1      22.744   6.005  51.099  1.00  0.00     0.418 C 
HETATM    3  F2  UNL     1      23.456   7.138  51.480  1.00  0.00    -0.172 F 
HETATM    4  N1  UNL     1      23.554   4.887  50.864  1.00  0.00    -0.297 N 
HETATM    5  C2  UNL     1      24.651   4.690  50.309  1.00  0.00     0.052 A 
HETATM    6  C3  UNL     1      25.817   5.154  49.596  1.00  0.00    -0.008 A 
HETATM    7  C4  UNL     1      26.835   4.307  49.252  1.00  0.00     0.032 A 
HETATM    8  C5  UNL     1      27.911   4.792  48.562  1.00  0.00     0.117 A 
HETATM    9  N2  UNL     1      27.973   6.085  48.222  1.00  0.00    -0.273 NA
HETATM   10  C6  UNL     1      26.989   6.934  48.546  1.00  0.00     0.117 A 
HETATM   11  C7  UNL     1      25.902   6.467  49.237  1.00  0.00     0.032 A 
HETATM   12  C8  UNL     1      24.223   3.397  50.718  1.00  0.00     0.182 A 
HETATM   13  C9  UNL     1      24.183   2.106  50.923  1.00  0.00     0.121 C 
HETATM   14  N3  UNL     1      23.339   1.171  51.499  1.00  0.00    -0.274 NA
HETATM   15  C10 UNL     1      22.104   0.911  51.147  1.00  0.00     0.127 C 
HETATM   16  C11 UNL     1      21.839   1.833  50.018  1.00  0.00    -0.016 A 
HETATM   17  C12 UNL     1      21.984   1.517  48.680  1.00  0.00     0.013 A 
HETATM   18  C13 UNL     1      21.763   2.412  47.629  1.00  0.00     0.004 A 
HETATM   19  C14 UNL     1      21.379   3.679  48.010  1.00  0.00     0.037 A 
HETATM   20  C15 UNL     1      21.220   4.048  49.324  1.00  0.00     0.076 A 
HETATM   21  C16 UNL     1      21.443   3.144  50.339  1.00  0.00     0.049 A 
HETATM   22  O1  UNL     1      20.840   5.312  49.723  1.00  0.00    -0.277 OA
HETATM   23  C17 UNL     1      21.764   6.354  49.984  1.00  0.00     0.447 C 
HETATM   24  F3  UNL     1      21.014   7.438  50.391  1.00  0.00    -0.167 F 
HETATM   25  F4  UNL     1      22.503   6.687  48.884  1.00  0.00    -0.167 F 
ENDROOT
TORSDOF 0
ENDMDL
MODEL 9
REMARK VINA RESULT:      -7.4      2.604      5.266
REMARK  0 active torsions:
REMARK  status: ('A' for Active; 'I' for Inactive)
ROOT
HETATM    1  F1  UNL     1      24.161   3.083  53.270  1.00  0.00    -0.172 F 
HETATM    2  C1  UNL     1      23.151   2.314  52.630  1.00  0.00     0.418 C 
HETATM    3  F2  UNL     1      22.754   1.451  53.645  1.00  0.00    -0.172 F 
HETATM    4  N1  UNL     1      22.126   3.155  52.177  1.00  0.00    -0.297 N 
HETATM    5  C2  UNL     1      20.915   3.017  51.926  1.00  0.00     0.052 A 
HETATM    6  C3  UNL     1      19.716   2.218  51.845  1.00  0.00    -0.008 A 
HETATM    7  C4  UNL     1      18.514   2.758  51.474  1.00  0.00     0.032 A 
HETATM    8  C5  UNL     1      17.411   1.955  51.396  1.00  0.00     0.117 A 
HETATM    9  N2  UNL     1      17.499   0.649  51.678  1.00  0.00    -0.273 NA
HETATM   10  C6  UNL     1      18.664   0.097  52.042  1.00  0.00     0.117 A 
HETATM   11  C7  UNL     1      19.781   0.884  52.126  1.00  0.00     0.032 A 
HETATM   12  C8  UNL     1      21.192   4.373  51.600  1.00  0.00     0.182 A 
HETATM   13  C9  UNL     1      21.053   5.613  51.209  1.00  0.00     0.121 C 
HETATM   14  N3  UNL     1      21.830   6.750  51.061  1.00  0.00    -0.274 NA
HETATM   15  C10 UNL     1      22.887   6.881  50.299  1.00  0.00     0.127 C 
HETATM   16  C11 UNL     1      23.044   5.557  49.652  1.00  0.00    -0.016 A 
HETATM   17  C12 UNL     1      22.544   5.212  48.411  1.00  0.00     0.013 A 
HETATM   18  C13 UNL     1      22.671   3.946  47.833  1.00  0.00     0.004 A 
HETATM   19  C14 UNL     1      23.346   3.019  48.595  1.00  0.00     0.037 A 
HETATM   20  C15 UNL     1      23.864   3.307  49.835  1.00  0.00     0.076 A 
HETATM   21  C16 UNL     1      23.725   4.564  50.379  1.00  0.00     0.049 A 
HETATM   22  O1  UNL     1      24.539   2.390  50.614  1.00  0.00    -0.277 OA
HETATM   23  C17 UNL     1      23.896   1.541  51.547  1.00  0.00     0.447 C 
HETATM   24  F3  UNL     1      24.895   0.806  52.150  1.00  0.00    -0.167 F 
HETATM   25  F4  UNL     1      22.994   0.701  50.957  1.00  0.00    -0.167 F 
ENDROOT
TORSDOF 0
ENDMDL
