MODEL 1
REMARK VINA RESULT:      -7.8      0.000      0.000
REMARK  1 active torsions:
REMARK  status: ('A' for Active; 'I' for Inactive)
REMARK    1  A    between atoms: O1_2  and  C2_3 
ROOT
HETATM    1  C2  UNL     1      21.875   0.269  53.122  1.00  0.00     0.051 C 
HETATM    2  C3  UNL     1      21.340   1.400  52.718  1.00  0.00    -0.048 C 
HETATM    3  C4  UNL     1      19.832   1.244  52.631  1.00  0.00     0.046 C 
HETATM    4  C5  UNL     1      22.388   2.385  52.463  1.00  0.00     0.101 C 
HETATM    5  C6  UNL     1      22.506   3.680  52.077  1.00  0.00     0.032 C 
HETATM    6 BR1  UNL     1      22.005   5.458  51.526  1.00  0.00    -0.086 Br
HETATM    7  C7  UNL     1      23.858   4.064  51.719  1.00  0.00     0.007 C 
HETATM    8  C8  UNL     1      24.903   3.209  51.740  1.00  0.00     0.089 C 
HETATM    9  N1  UNL     1      26.171   2.500  51.680  1.00  0.00    -0.346 N 
HETATM   10  C9  UNL     1      26.740   2.243  50.371  1.00  0.00     0.157 C 
HETATM   11  C10 UNL     1      26.996   1.993  52.694  1.00  0.00     0.142 A 
HETATM   12  N2  UNL     1      28.174   2.581  52.940  1.00  0.00    -0.223 NA
HETATM   13  C11 UNL     1      29.005   2.094  53.922  1.00  0.00     0.234 A 
HETATM   14  N3  UNL     1      28.749   1.025  54.706  1.00  0.00    -0.253 NA
HETATM   15  C12 UNL     1      27.581   0.406  54.496  1.00  0.00     0.133 A 
HETATM   16  C13 UNL     1      26.779   0.925  53.510  1.00  0.00     0.027 A 
HETATM   17  C14 UNL     1      25.533   0.214  53.378  1.00  0.00     0.013 C 
HETATM   18  C15 UNL     1      24.293  -0.075  53.545  1.00  0.00    -0.019 C 
HETATM   19  C16 UNL     1      22.957  -0.670  53.524  1.00  0.00     0.091 C 
ENDROOT
BRANCH   1  20
HETATM   20  O1  UNL     1      20.774  -0.609  53.291  1.00  0.00    -0.360 OA
HETATM   21  C1  UNL     1      20.760  -1.657  54.226  1.00  0.00     0.209 C 
ENDBRANCH   1  20
TORSDOF 1
ENDMDL
MODEL 2
REMARK VINA RESULT:      -7.6      3.301      5.392
REMARK  1 active torsions:
REMARK  status: ('A' for Active; 'I' for Inactive)
REMARK    1  A    between atoms: O1_2  and  C2_3 
ROOT
HETATM    1  C2  UNL     1      26.081   0.577  52.834  1.00  0.00     0.051 C 
HETATM    2  C3  UNL     1      24.924   0.269  53.378  1.00  0.00    -0.048 C 
HETATM    3  C4  UNL     1      25.131  -0.799  54.437  1.00  0.00     0.046 C 
HETATM    4  C5  UNL     1      23.855   1.037  52.744  1.00  0.00     0.101 C 
HETATM    5  C6  UNL     1      22.513   1.206  52.848  1.00  0.00     0.032 C 
HETATM    6 BR1  UNL     1      20.707   1.000  53.489  1.00  0.00    -0.086 Br
HETATM    7  C7  UNL     1      21.924   1.922  51.734  1.00  0.00     0.007 C 
HETATM    8  C8  UNL     1      22.635   2.359  50.672  1.00  0.00     0.089 C 
HETATM    9  N1  UNL     1      23.165   2.922  49.442  1.00  0.00    -0.346 N 
HETATM   10  C9  UNL     1      22.808   2.275  48.194  1.00  0.00     0.157 C 
HETATM   11  C10 UNL     1      23.996   4.028  49.213  1.00  0.00     0.142 A 
HETATM   12  N2  UNL     1      23.488   5.124  48.632  1.00  0.00    -0.223 NA
HETATM   13  C11 UNL     1      24.285   6.217  48.387  1.00  0.00     0.234 A 
HETATM   14  N3  UNL     1      25.600   6.309  48.681  1.00  0.00    -0.253 NA
HETATM   15  C12 UNL     1      26.150   5.238  49.265  1.00  0.00     0.133 A 
HETATM   16  C13 UNL     1      25.320   4.169  49.495  1.00  0.00     0.027 A 
HETATM   17  C14 UNL     1      25.991   3.077  50.152  1.00  0.00     0.013 C 
HETATM   18  C15 UNL     1      26.407   2.324  51.105  1.00  0.00    -0.019 C 
HETATM   19  C16 UNL     1      27.027   1.286  51.930  1.00  0.00     0.091 C 
ENDROOT
BRANCH   1  20
HETATM   20  O1  UNL     1      27.021  -0.255  53.494  1.00  0.00    -0.360 OA
HETATM   21  C1  UNL     1      28.407  -0.037  53.453  1.00  0.00     0.209 C 
ENDBRANCH   1  20
TORSDOF 1
ENDMDL
MODEL 3
REMARK VINA RESULT:      -7.3      3.470      5.053
REMARK  1 active torsions:
REMARK  status: ('A' for Active; 'I' for Inactive)
REMARK    1  A    between atoms: O1_2  and  C2_3 
ROOT
HETATM    1  C2  UNL     1      23.221  -0.037  53.175  1.00  0.00     0.051 C 
HETATM    2  C3  UNL     1      21.966  -0.420  53.076  1.00  0.00    -0.048 C 
HETATM    3  C4  UNL     1      21.697  -1.536  54.071  1.00  0.00     0.046 C 
HETATM    4  C5  UNL     1      21.295   0.337  52.022  1.00  0.00     0.101 C 
HETATM    5  C6  UNL     1      20.064   0.446  51.462  1.00  0.00     0.032 C 
HETATM    6 BR1  UNL     1      18.191   0.134  51.134  1.00  0.00    -0.086 Br
HETATM    7  C7  UNL     1      20.049   1.197  50.223  1.00  0.00     0.007 C 
HETATM    8  C8  UNL     1      21.157   1.719  49.656  1.00  0.00     0.089 C 
HETATM    9  N1  UNL     1      22.183   2.369  48.857  1.00  0.00    -0.346 N 
HETATM   10  C9  UNL     1      22.518   1.776  47.576  1.00  0.00     0.157 C 
HETATM   11  C10 UNL     1      22.951   3.518  49.094  1.00  0.00     0.142 A 
HETATM   12  N2  UNL     1      22.723   4.623  48.370  1.00  0.00    -0.223 NA
HETATM   13  C11 UNL     1      23.470   5.758  48.576  1.00  0.00     0.234 A 
HETATM   14  N3  UNL     1      24.468   5.887  49.477  1.00  0.00    -0.253 NA
HETATM   15  C12 UNL     1      24.729   4.808  50.225  1.00  0.00     0.133 A 
HETATM   16  C13 UNL     1      23.959   3.697  49.990  1.00  0.00     0.027 A 
HETATM   17  C14 UNL     1      24.292   2.598  50.861  1.00  0.00     0.013 C 
HETATM   18  C15 UNL     1      24.238   1.812  51.874  1.00  0.00    -0.019 C 
HETATM   19  C16 UNL     1      24.440   0.756  52.868  1.00  0.00     0.091 C 
ENDROOT
BRANCH   1  20
HETATM   20  O1  UNL     1      23.770  -0.866  54.187  1.00  0.00    -0.360 OA
HETATM   21  C1  UNL     1      25.091  -0.750  54.646  1.00  0.00     0.209 C 
ENDBRANCH   1  20
TORSDOF 1
ENDMDL
MODEL 4
REMARK VINA RESULT:      -7.1      3.272      6.046
REMARK  1 active torsions:
REMARK  status: ('A' for Active; 'I' for Inactive)
REMARK    1  A    between atoms: O1_2  and  C2_3 
ROOT
HETATM    1  C2  UNL     1      24.712  -0.078  53.528  1.00  0.00     0.051 C 
HETATM    2  C3  UNL     1      25.629   0.590  52.863  1.00  0.00    -0.048 C 
HETATM    3  C4  UNL     1      27.003   0.247  53.410  1.00  0.00     0.046 C 
HETATM    4  C5  UNL     1      24.995   1.447  51.863  1.00  0.00     0.101 C 
HETATM    5  C6  UNL     1      25.350   2.319  50.886  1.00  0.00     0.032 C 
HETATM    6 BR1  UNL     1      26.461   3.374  49.718  1.00  0.00    -0.086 Br
HETATM    7  C7  UNL     1      24.246   3.108  50.376  1.00  0.00     0.007 C 
HETATM    8  C8  UNL     1      22.983   3.011  50.845  1.00  0.00     0.089 C 
HETATM    9  N1  UNL     1      21.569   3.094  51.168  1.00  0.00    -0.346 N 
HETATM   10  C9  UNL     1      21.096   4.298  51.825  1.00  0.00     0.157 C 
HETATM   11  C10 UNL     1      20.516   2.192  50.956  1.00  0.00     0.142 A 
HETATM   12  N2  UNL     1      19.574   2.481  50.048  1.00  0.00    -0.223 NA
HETATM   13  C11 UNL     1      18.527   1.618  49.830  1.00  0.00     0.234 A 
HETATM   14  N3  UNL     1      18.331   0.446  50.472  1.00  0.00    -0.253 NA
HETATM   15  C12 UNL     1      19.249   0.116  51.388  1.00  0.00     0.133 A 
HETATM   16  C13 UNL     1      20.280   1.002  51.573  1.00  0.00     0.027 A 
HETATM   17  C14 UNL     1      21.232   0.548  52.555  1.00  0.00     0.013 C 
HETATM   18  C15 UNL     1      22.283  -0.009  53.038  1.00  0.00    -0.019 C 
HETATM   19  C16 UNL     1      23.346  -0.538  53.894  1.00  0.00     0.091 C 
ENDROOT
BRANCH   1  20
HETATM   20  O1  UNL     1      25.440  -0.830  54.485  1.00  0.00    -0.360 OA
HETATM   21  C1  UNL     1      24.911  -1.216  55.727  1.00  0.00     0.209 C 
ENDBRANCH   1  20
TORSDOF 1
ENDMDL
MODEL 5
REMARK VINA RESULT:      -7.0      3.071      5.337
REMARK  1 active torsions:
REMARK  status: ('A' for Active; 'I' for Inactive)
REMARK    1  A    between atoms: O1_2  and  C2_3 
ROOT
HETATM    1  C2  UNL     1      22.961  -0.510  53.635  1.00  0.00     0.051 C 
HETATM    2  C3  UNL     1      24.219  -0.303  53.957  1.00  0.00    -0.048 C 
HETATM    3  C4  UNL     1      24.576  -1.144  55.170  1.00  0.00     0.046 C 
HETATM    4  C5  UNL     1      24.807   0.687  53.059  1.00  0.00     0.101 C 
HETATM    5  C6  UNL     1      26.002   1.293  52.840  1.00  0.00     0.032 C 
HETATM    6 BR1  UNL     1      27.862   1.751  53.043  1.00  0.00    -0.086 Br
HETATM    7  C7  UNL     1      25.925   2.434  51.950  1.00  0.00     0.007 C 
HETATM    8  C8  UNL     1      24.772   2.878  51.407  1.00  0.00     0.089 C 
HETATM    9  N1  UNL     1      23.684   3.541  50.707  1.00  0.00    -0.346 N 
HETATM   10  C9  UNL     1      23.297   4.863  51.158  1.00  0.00     0.157 C 
HETATM   11  C10 UNL     1      22.896   3.131  49.621  1.00  0.00     0.142 A 
HETATM   12  N2  UNL     1      23.050   3.731  48.433  1.00  0.00    -0.223 NA
HETATM   13  C11 UNL     1      22.281   3.354  47.357  1.00  0.00     0.234 A 
HETATM   14  N3  UNL     1      21.332   2.394  47.371  1.00  0.00    -0.253 NA
HETATM   15  C12 UNL     1      21.144   1.766  48.538  1.00  0.00     0.133 A 
HETATM   16  C13 UNL     1      21.934   2.169  49.586  1.00  0.00     0.027 A 
HETATM   17  C14 UNL     1      21.683   1.418  50.789  1.00  0.00     0.013 C 
HETATM   18  C15 UNL     1      21.818   0.509  51.686  1.00  0.00    -0.019 C 
HETATM   19  C16 UNL     1      21.702  -0.362  52.856  1.00  0.00     0.091 C 
ENDROOT
BRANCH   1  20
HETATM   20  O1  UNL     1      22.494  -1.445  54.595  1.00  0.00    -0.360 OA
HETATM   21  C1  UNL     1      21.193  -1.973  54.587  1.00  0.00     0.209 C 
ENDBRANCH   1  20
TORSDOF 1
ENDMDL
MODEL 6
REMARK VINA RESULT:      -6.9      3.085      5.319
REMARK  1 active torsions:
REMARK  status: ('A' for Active; 'I' for Inactive)
REMARK    1  A    between atoms: O1_2  and  C2_3 
ROOT
HETATM    1  C2  UNL     1      20.683  -0.234  53.033  1.00  0.00     0.051 C 
HETATM    2  C3  UNL     1      21.806  -0.614  53.601  1.00  0.00    -0.048 C 
HETATM    3  C4  UNL     1      21.529  -1.766  54.550  1.00  0.00     0.046 C 
HETATM    4  C5  UNL     1      22.908   0.229  53.143  1.00  0.00     0.101 C 
HETATM    5  C6  UNL     1      24.249   0.345  53.309  1.00  0.00     0.032 C 
HETATM    6 BR1  UNL     1      26.034  -0.024  53.935  1.00  0.00    -0.086 Br
HETATM    7  C7  UNL     1      24.798   1.585  52.797  1.00  0.00     0.007 C 
HETATM    8  C8  UNL     1      24.046   2.553  52.231  1.00  0.00     0.089 C 
HETATM    9  N1  UNL     1      23.469   3.725  51.594  1.00  0.00    -0.346 N 
HETATM   10  C9  UNL     1      23.448   4.964  52.348  1.00  0.00     0.157 C 
HETATM   11  C10 UNL     1      22.901   3.903  50.323  1.00  0.00     0.142 A 
HETATM   12  N2  UNL     1      23.553   4.632  49.407  1.00  0.00    -0.223 NA
HETATM   13  C11 UNL     1      23.011   4.829  48.159  1.00  0.00     0.234 A 
HETATM   14  N3  UNL     1      21.824   4.343  47.735  1.00  0.00    -0.253 NA
HETATM   15  C12 UNL     1      21.139   3.607  48.617  1.00  0.00     0.133 A 
HETATM   16  C13 UNL     1      21.716   3.431  49.850  1.00  0.00     0.027 A 
HETATM   17  C14 UNL     1      20.921   2.602  50.720  1.00  0.00     0.013 C 
HETATM   18  C15 UNL     1      20.502   1.545  51.316  1.00  0.00    -0.019 C 
HETATM   19  C16 UNL     1      19.798   0.563  52.141  1.00  0.00     0.091 C 
ENDROOT
BRANCH   1  20
HETATM   20  O1  UNL     1      19.694  -1.089  53.585  1.00  0.00    -0.360 OA
HETATM   21  C1  UNL     1      18.350  -1.075  53.181  1.00  0.00     0.209 C 
ENDBRANCH   1  20
TORSDOF 1
ENDMDL
MODEL 7
REMARK VINA RESULT:      -6.7      7.759      9.818
REMARK  1 active torsions:
REMARK  status: ('A' for Active; 'I' for Inactive)
REMARK    1  A    between atoms: O1_2  and  C2_3 
ROOT
HETATM    1  C2  UNL     1      27.721   7.270  48.750  1.00  0.00     0.051 C 
HETATM    2  C3  UNL     1      27.907   8.552  48.977  1.00  0.00    -0.048 C 
HETATM    3  C4  UNL     1      26.596   9.185  49.410  1.00  0.00     0.046 C 
HETATM    4  C5  UNL     1      29.294   8.913  48.695  1.00  0.00     0.101 C 
HETATM    5  C6  UNL     1      30.102  10.001  48.748  1.00  0.00     0.032 C 
HETATM    6 BR1  UNL     1      30.677  11.816  49.050  1.00  0.00    -0.086 Br
HETATM    7  C7  UNL     1      31.368   9.825  48.063  1.00  0.00     0.007 C 
HETATM    8  C8  UNL     1      31.707   8.695  47.407  1.00  0.00     0.089 C 
HETATM    9  N1  UNL     1      32.301   7.607  46.647  1.00  0.00    -0.346 N 
HETATM   10  C9  UNL     1      32.450   7.786  45.216  1.00  0.00     0.157 C 
HETATM   11  C10 UNL     1      32.785   6.354  47.049  1.00  0.00     0.142 A 
HETATM   12  N2  UNL     1      34.103   6.117  47.020  1.00  0.00    -0.223 NA
HETATM   13  C11 UNL     1      34.600   4.892  47.398  1.00  0.00     0.234 A 
HETATM   14  N3  UNL     1      33.861   3.842  47.816  1.00  0.00    -0.253 NA
HETATM   15  C12 UNL     1      32.538   4.034  47.862  1.00  0.00     0.133 A 
HETATM   16  C13 UNL     1      32.082   5.271  47.480  1.00  0.00     0.027 A 
HETATM   17  C14 UNL     1      30.651   5.393  47.592  1.00  0.00     0.013 C 
HETATM   18  C15 UNL     1      29.508   5.679  48.102  1.00  0.00    -0.019 C 
HETATM   19  C16 UNL     1      28.085   5.875  48.382  1.00  0.00     0.091 C 
ENDROOT
BRANCH   1  20
HETATM   20  O1  UNL     1      26.344   7.055  49.014  1.00  0.00    -0.360 OA
HETATM   21  C1  UNL     1      25.763   5.779  49.086  1.00  0.00     0.209 C 
ENDBRANCH   1  20
TORSDOF 1
ENDMDL
MODEL 8
REMARK VINA RESULT:      -6.5      4.356      6.239
REMARK  1 active torsions:
REMARK  status: ('A' for Active; 'I' for Inactive)
REMARK    1  A    between atoms: O1_2  and  C2_3 
ROOT
HETATM    1  C2  UNL     1      17.868  -0.471  51.712  1.00  0.00     0.051 C 
HETATM    2  C3  UNL     1      18.545  -0.949  52.734  1.00  0.00    -0.048 C 
HETATM    3  C4  UNL     1      17.680  -1.936  53.498  1.00  0.00     0.046 C 
HETATM    4  C5  UNL     1      19.868  -0.332  52.787  1.00  0.00     0.101 C 
HETATM    5  C6  UNL     1      21.002  -0.398  53.530  1.00  0.00     0.032 C 
HETATM    6 BR1  UNL     1      22.239  -0.956  54.898  1.00  0.00    -0.086 Br
HETATM    7  C7  UNL     1      21.932   0.683  53.275  1.00  0.00     0.007 C 
HETATM    8  C8  UNL     1      21.689   1.684  52.402  1.00  0.00     0.089 C 
HETATM    9  N1  UNL     1      21.667   2.851  51.536  1.00  0.00    -0.346 N 
HETATM   10  C9  UNL     1      21.546   4.154  52.161  1.00  0.00     0.157 C 
HETATM   11  C10 UNL     1      21.748   2.970  50.141  1.00  0.00     0.142 A 
HETATM   12  N2  UNL     1      22.853   3.490  49.588  1.00  0.00    -0.223 NA
HETATM   13  C11 UNL     1      22.951   3.626  48.223  1.00  0.00     0.234 A 
HETATM   14  N3  UNL     1      21.999   3.278  47.331  1.00  0.00    -0.253 NA
HETATM   15  C12 UNL     1      20.878   2.752  47.839  1.00  0.00     0.133 A 
HETATM   16  C13 UNL     1      20.821   2.630  49.204  1.00  0.00     0.027 A 
HETATM   17  C14 UNL     1      19.593   2.027  49.656  1.00  0.00     0.013 C 
HETATM   18  C15 UNL     1      18.773   1.116  50.037  1.00  0.00    -0.019 C 
HETATM   19  C16 UNL     1      17.616   0.344  50.494  1.00  0.00     0.091 C 
ENDROOT
BRANCH   1  20
HETATM   20  O1  UNL     1      16.601  -1.106  51.794  1.00  0.00    -0.360 OA
HETATM   21  C1  UNL     1      15.593  -0.941  50.831  1.00  0.00     0.209 C 
ENDBRANCH   1  20
TORSDOF 1
ENDMDL
MODEL 9
REMARK VINA RESULT:      -6.3      6.044      9.012
REMARK  1 active torsions:
REMARK  status: ('A' for Active; 'I' for Inactive)
REMARK    1  A    between atoms: O1_2  and  C2_3 
ROOT
HETATM    1  C2  UNL     1      29.062   6.698  47.474  1.00  0.00     0.051 C 
HETATM    2  C3  UNL     1      28.728   7.768  46.786  1.00  0.00    -0.048 C 
HETATM    3  C4  UNL     1      29.972   8.381  46.168  1.00  0.00     0.046 C 
HETATM    4  C5  UNL     1      27.290   8.002  46.895  1.00  0.00     0.101 C 
HETATM    5  C6  UNL     1      26.353   8.867  46.431  1.00  0.00     0.032 C 
HETATM    6 BR1  UNL     1      25.570  10.343  45.471  1.00  0.00    -0.086 Br
HETATM    7  C7  UNL     1      25.079   8.772  47.115  1.00  0.00     0.007 C 
HETATM    8  C8  UNL     1      24.845   7.923  48.138  1.00  0.00     0.089 C 
HETATM    9  N1  UNL     1      24.348   7.114  49.238  1.00  0.00    -0.346 N 
HETATM   10  C9  UNL     1      24.081   7.779  50.500  1.00  0.00     0.157 C 
HETATM   11  C10 UNL     1      24.057   5.744  49.323  1.00  0.00     0.142 A 
HETATM   12  N2  UNL     1      22.781   5.347  49.419  1.00  0.00    -0.223 NA
HETATM   13  C11 UNL     1      22.472   4.010  49.514  1.00  0.00     0.234 A 
HETATM   14  N3  UNL     1      23.367   2.999  49.526  1.00  0.00    -0.253 NA
HETATM   15  C12 UNL     1      24.655   3.349  49.430  1.00  0.00     0.133 A 
HETATM   16  C13 UNL     1      24.920   4.692  49.333  1.00  0.00     0.027 A 
HETATM   17  C14 UNL     1      26.328   4.970  49.204  1.00  0.00     0.013 C 
HETATM   18  C15 UNL     1      27.456   5.212  48.640  1.00  0.00    -0.019 C 
HETATM   19  C16 UNL     1      28.857   5.497  48.327  1.00  0.00     0.091 C 
ENDROOT
BRANCH   1  20
HETATM   20  O1  UNL     1      30.470   6.603  47.328  1.00  0.00    -0.360 OA
HETATM   21  C1  UNL     1      31.240   5.590  47.922  1.00  0.00     0.209 C 
ENDBRANCH   1  20
TORSDOF 1
ENDMDL
