MODEL 1
REMARK VINA RESULT:      -7.0      0.000      0.000
REMARK  7 active torsions:
REMARK  status: ('A' for Active; 'I' for Inactive)
REMARK    1  A    between atoms: C3_3  and  C4_4 
REMARK    2  A    between atoms: C3_3  and  N1_7 
REMARK    3  A    between atoms: C4_4  and  O1_5 
REMARK    4  A    between atoms: N1_7  and  C6_8 
REMARK    5  A    between atoms: C8_13  and  N4_14 
REMARK    6  A    between atoms: N4_14  and  C9_15 
REMARK    7  A    between atoms: C9_15  and  C10_16 
ROOT
HETATM    1  C6  UNL     1      26.900   2.360  52.984  1.00  0.00     0.745 A 
HETATM    2  N2  UNL     1      25.584   2.269  53.286  1.00  0.00    -0.030 NA
HETATM    3  C7  UNL     1      24.624   2.472  52.345  1.00  0.00     0.259 A 
HETATM    4 CL1  UNL     1      22.905   2.358  52.711  1.00  0.00    -0.040 Cl
HETATM    5  N3  UNL     1      24.974   2.774  51.074  1.00  0.00    -0.030 NA
HETATM    6  C8  UNL     1      26.283   2.863  50.786  1.00  0.00     0.741 A 
HETATM    7  N5  UNL     1      27.258   2.660  51.722  1.00  0.00     0.130 NA
ENDROOT
BRANCH   1   8
HETATM    8  N1  UNL     1      27.686   2.109  54.137  1.00  0.00    -0.189 N 
HETATM    9  H10 UNL     1      27.931   2.667  54.986  1.00  0.00     0.184 HD
BRANCH   8  10
HETATM   10  C3  UNL     1      28.276   0.813  54.150  1.00  0.00     0.046 C 
HETATM   11  C2  UNL     1      29.387   0.471  53.525  1.00  0.00    -0.003 C 
HETATM   12  C1  UNL     1      29.919  -0.880  53.591  1.00  0.00     0.038 C 
BRANCH  10  13
HETATM   13  C4  UNL     1      27.404  -0.064  54.993  1.00  0.00     0.224 C 
BRANCH  13  14
HETATM   14  O1  UNL     1      26.539  -0.836  54.255  1.00  0.00    -0.390 OA
HETATM   15  C5  UNL     1      25.229  -0.764  54.669  1.00  0.00     0.201 C 
ENDBRANCH  13  14
ENDBRANCH  10  13
ENDBRANCH   8  10
ENDBRANCH   1   8
BRANCH   6  16
HETATM   16  N4  UNL     1      26.713   3.185  49.472  1.00  0.00    -0.216 N 
HETATM   17  H11 UNL     1      27.171   2.512  48.846  1.00  0.00     0.178 HD
BRANCH  16  18
HETATM   18  C9  UNL     1      26.465   4.538  49.052  1.00  0.00     0.203 C 
BRANCH  18  19
HETATM   19  C10 UNL     1      27.684   5.237  48.589  1.00  0.00     0.070 A 
HETATM   20  C11 UNL     1      27.585   6.585  48.217  1.00  0.00     0.036 A 
HETATM   21  C12 UNL     1      28.879   6.945  47.837  1.00  0.00     0.027 A 
HETATM   22  C13 UNL     1      29.636   5.790  48.014  1.00  0.00     0.142 A 
HETATM   23  O2  UNL     1      28.899   4.821  48.454  1.00  0.00    -0.325 OA
ENDBRANCH  18  19
ENDBRANCH  16  18
ENDBRANCH   6  16
TORSDOF 7
ENDMDL
MODEL 2
REMARK VINA RESULT:      -6.9      2.741      6.658
REMARK  7 active torsions:
REMARK  status: ('A' for Active; 'I' for Inactive)
REMARK    1  A    between atoms: C3_3  and  C4_4 
REMARK    2  A    between atoms: C3_3  and  N1_7 
REMARK    3  A    between atoms: C4_4  and  O1_5 
REMARK    4  A    between atoms: N1_7  and  C6_8 
REMARK    5  A    between atoms: C8_13  and  N4_14 
REMARK    6  A    between atoms: N4_14  and  C9_15 
REMARK    7  A    between atoms: C9_15  and  C10_16 
ROOT
HETATM    1  C6  UNL     1      23.593   0.632  52.426  1.00  0.00     0.745 A 
HETATM    2  N2  UNL     1      22.418   0.042  52.741  1.00  0.00    -0.030 NA
HETATM    3  C7  UNL     1      22.307  -0.799  53.804  1.00  0.00     0.259 A 
HETATM    4 CL1  UNL     1      20.788  -1.578  54.238  1.00  0.00    -0.040 Cl
HETATM    5  N3  UNL     1      23.389  -1.063  54.574  1.00  0.00    -0.030 NA
HETATM    6  C8  UNL     1      24.550  -0.472  54.250  1.00  0.00     0.741 A 
HETATM    7  N5  UNL     1      24.674   0.375  53.185  1.00  0.00     0.130 NA
ENDROOT
BRANCH   1   8
HETATM    8  N1  UNL     1      23.438   1.452  51.279  1.00  0.00    -0.189 N 
HETATM    9  H10 UNL     1      23.132   1.276  50.295  1.00  0.00     0.184 HD
BRANCH   8  10
HETATM   10  C3  UNL     1      23.770   2.817  51.509  1.00  0.00     0.046 C 
HETATM   11  C2  UNL     1      23.017   3.690  52.153  1.00  0.00    -0.003 C 
HETATM   12  C1  UNL     1      23.434   5.069  52.342  1.00  0.00     0.038 C 
BRANCH  10  13
HETATM   13  C4  UNL     1      25.109   3.061  50.889  1.00  0.00     0.224 C 
BRANCH  13  14
HETATM   14  O1  UNL     1      25.031   3.538  49.602  1.00  0.00    -0.390 OA
HETATM   15  C5  UNL     1      25.829   4.632  49.359  1.00  0.00     0.201 C 
ENDBRANCH  13  14
ENDBRANCH  10  13
ENDBRANCH   8  10
ENDBRANCH   1   8
BRANCH   6  16
HETATM   16  N4  UNL     1      25.722  -0.716  55.015  1.00  0.00    -0.216 N 
HETATM   17  H11 UNL     1      25.843  -1.538  55.618  1.00  0.00     0.178 HD
BRANCH  16  18
HETATM   18  C9  UNL     1      26.757   0.275  54.896  1.00  0.00     0.203 C 
BRANCH  18  19
HETATM   19  C10 UNL     1      27.999  -0.249  54.285  1.00  0.00     0.070 A 
HETATM   20  C11 UNL     1      29.099   0.609  54.158  1.00  0.00     0.036 A 
HETATM   21  C12 UNL     1      30.090  -0.169  53.558  1.00  0.00     0.027 A 
HETATM   22  C13 UNL     1      29.501  -1.418  53.380  1.00  0.00     0.142 A 
HETATM   23  O2  UNL     1      28.283  -1.419  53.818  1.00  0.00    -0.325 OA
ENDBRANCH  18  19
ENDBRANCH  16  18
ENDBRANCH   6  16
TORSDOF 7
ENDMDL
MODEL 3
REMARK VINA RESULT:      -6.9      3.234      5.805
REMARK  7 active torsions:
REMARK  status: ('A' for Active; 'I' for Inactive)
REMARK    1  A    between atoms: C3_3  and  C4_4 
REMARK    2  A    between atoms: C3_3  and  N1_7 
REMARK    3  A    between atoms: C4_4  and  O1_5 
REMARK    4  A    between atoms: N1_7  and  C6_8 
REMARK    5  A    between atoms: C8_13  and  N4_14 
REMARK    6  A    between atoms: N4_14  and  C9_15 
REMARK    7  A    between atoms: C9_15  and  C10_16 
ROOT
HETATM    1  C6  UNL     1      26.682   2.296  53.200  1.00  0.00     0.745 A 
HETATM    2  N2  UNL     1      27.131   2.565  51.952  1.00  0.00    -0.030 NA
HETATM    3  C7  UNL     1      26.278   2.887  50.944  1.00  0.00     0.259 A 
HETATM    4 CL1  UNL     1      26.837   3.243  49.312  1.00  0.00    -0.040 Cl
HETATM    5  N3  UNL     1      24.946   2.944  51.176  1.00  0.00    -0.030 NA
HETATM    6  C8  UNL     1      24.512   2.675  52.418  1.00  0.00     0.741 A 
HETATM    7  N5  UNL     1      25.359   2.350  53.439  1.00  0.00     0.130 NA
ENDROOT
BRANCH   1   8
HETATM    8  N1  UNL     1      27.769   1.987  54.057  1.00  0.00    -0.189 N 
HETATM    9  H10 UNL     1      28.290   2.519  54.790  1.00  0.00     0.184 HD
BRANCH   8  10
HETATM   10  C3  UNL     1      28.266   0.664  53.888  1.00  0.00     0.046 C 
HETATM   11  C2  UNL     1      29.532   0.340  53.701  1.00  0.00    -0.003 C 
HETATM   12  C1  UNL     1      29.953  -1.042  53.535  1.00  0.00     0.038 C 
BRANCH  10  13
HETATM   13  C4  UNL     1      27.095  -0.264  53.960  1.00  0.00     0.224 C 
BRANCH  13  14
HETATM   14  O1  UNL     1      26.635  -0.455  55.241  1.00  0.00    -0.390 OA
HETATM   15  C5  UNL     1      25.304  -0.796  55.315  1.00  0.00     0.201 C 
ENDBRANCH  13  14
ENDBRANCH  10  13
ENDBRANCH   8  10
ENDBRANCH   1   8
BRANCH   6  16
HETATM   16  N4  UNL     1      23.125   2.710  52.721  1.00  0.00    -0.216 N 
HETATM   17  H11 UNL     1      22.696   3.421  53.324  1.00  0.00     0.178 HD
BRANCH  16  18
HETATM   18  C9  UNL     1      22.333   1.670  52.122  1.00  0.00     0.203 C 
BRANCH  18  19
HETATM   19  C10 UNL     1      21.946   0.609  53.077  1.00  0.00     0.070 A 
HETATM   20  C11 UNL     1      22.459  -0.683  52.890  1.00  0.00     0.036 A 
HETATM   21  C12 UNL     1      21.917  -1.435  53.934  1.00  0.00     0.027 A 
HETATM   22  C13 UNL     1      21.132  -0.535  54.650  1.00  0.00     0.142 A 
HETATM   23  O2  UNL     1      21.179   0.643  54.115  1.00  0.00    -0.325 OA
ENDBRANCH  18  19
ENDBRANCH  16  18
ENDBRANCH   6  16
TORSDOF 7
ENDMDL
MODEL 4
REMARK VINA RESULT:      -6.8      1.583      2.042
REMARK  7 active torsions:
REMARK  status: ('A' for Active; 'I' for Inactive)
REMARK    1  A    between atoms: C3_3  and  C4_4 
REMARK    2  A    between atoms: C3_3  and  N1_7 
REMARK    3  A    between atoms: C4_4  and  O1_5 
REMARK    4  A    between atoms: N1_7  and  C6_8 
REMARK    5  A    between atoms: C8_13  and  N4_14 
REMARK    6  A    between atoms: N4_14  and  C9_15 
REMARK    7  A    between atoms: C9_15  and  C10_16 
ROOT
HETATM    1  C6  UNL     1      25.374   1.419  52.888  1.00  0.00     0.745 A 
HETATM    2  N2  UNL     1      24.153   1.027  52.457  1.00  0.00    -0.030 NA
HETATM    3  C7  UNL     1      23.546   1.628  51.399  1.00  0.00     0.259 A 
HETATM    4 CL1  UNL     1      21.958   1.136  50.817  1.00  0.00    -0.040 Cl
HETATM    5  N3  UNL     1      24.163   2.643  50.752  1.00  0.00    -0.030 NA
HETATM    6  C8  UNL     1      25.375   3.024  51.189  1.00  0.00     0.741 A 
HETATM    7  N5  UNL     1      25.995   2.428  52.250  1.00  0.00     0.130 NA
ENDROOT
BRANCH   1   8
HETATM    8  N1  UNL     1      25.775   0.637  54.001  1.00  0.00    -0.189 N 
HETATM    9  H10 UNL     1      25.530   0.640  55.017  1.00  0.00     0.184 HD
BRANCH   8  10
HETATM   10  C3  UNL     1      26.720  -0.375  53.672  1.00  0.00     0.046 C 
HETATM   11  C2  UNL     1      26.487  -1.417  52.897  1.00  0.00    -0.003 C 
HETATM   12  C1  UNL     1      27.513  -2.408  52.614  1.00  0.00     0.038 C 
BRANCH  10  13
HETATM   13  C4  UNL     1      28.000  -0.032  54.366  1.00  0.00     0.224 C 
BRANCH  13  14
HETATM   14  O1  UNL     1      28.053   1.276  54.788  1.00  0.00    -0.390 OA
HETATM   15  C5  UNL     1      29.077   2.006  54.230  1.00  0.00     0.201 C 
ENDBRANCH  13  14
ENDBRANCH  10  13
ENDBRANCH   8  10
ENDBRANCH   1   8
BRANCH   6  16
HETATM   16  N4  UNL     1      26.069   4.089  50.555  1.00  0.00    -0.216 N 
HETATM   17  H11 UNL     1      26.090   5.047  50.922  1.00  0.00     0.178 HD
BRANCH  16  18
HETATM   18  C9  UNL     1      26.760   3.743  49.342  1.00  0.00     0.203 C 
BRANCH  18  19
HETATM   19  C10 UNL     1      27.540   4.865  48.776  1.00  0.00     0.070 A 
HETATM   20  C11 UNL     1      26.891   6.085  48.542  1.00  0.00     0.036 A 
HETATM   21  C12 UNL     1      27.879   6.919  48.017  1.00  0.00     0.027 A 
HETATM   22  C13 UNL     1      29.026   6.132  47.982  1.00  0.00     0.142 A 
HETATM   23  O2  UNL     1      28.783   4.944  48.433  1.00  0.00    -0.325 OA
ENDBRANCH  18  19
ENDBRANCH  16  18
ENDBRANCH   6  16
TORSDOF 7
ENDMDL
MODEL 5
REMARK VINA RESULT:      -6.8      2.756      7.367
REMARK  7 active torsions:
REMARK  status: ('A' for Active; 'I' for Inactive)
REMARK    1  A    between atoms: C3_3  and  C4_4 
REMARK    2  A    between atoms: C3_3  and  N1_7 
REMARK    3  A    between atoms: C4_4  and  O1_5 
REMARK    4  A    between atoms: N1_7  and  C6_8 
REMARK    5  A    between atoms: C8_13  and  N4_14 
REMARK    6  A    between atoms: N4_14  and  C9_15 
REMARK    7  A    between atoms: C9_15  and  C10_16 
ROOT
HETATM    1  C6  UNL     1      27.053   1.770  53.050  1.00  0.00     0.745 A 
HETATM    2  N2  UNL     1      28.280   1.214  52.925  1.00  0.00    -0.030 NA
HETATM    3  C7  UNL     1      28.641   0.121  53.648  1.00  0.00     0.259 A 
HETATM    4 CL1  UNL     1      30.231  -0.624  53.503  1.00  0.00    -0.040 Cl
HETATM    5  N3  UNL     1      27.766  -0.436  54.517  1.00  0.00    -0.030 NA
HETATM    6  C8  UNL     1      26.551   0.125  54.633  1.00  0.00     0.741 A 
HETATM    7  N5  UNL     1      26.177   1.224  53.913  1.00  0.00     0.130 NA
ENDROOT
BRANCH   1   8
HETATM    8  N1  UNL     1      26.935   2.895  52.193  1.00  0.00    -0.189 N 
HETATM    9  H10 UNL     1      27.446   3.803  52.111  1.00  0.00     0.184 HD
BRANCH   8  10
HETATM   10  C3  UNL     1      25.894   2.766  51.230  1.00  0.00     0.046 C 
HETATM   11  C2  UNL     1      24.611   2.627  51.504  1.00  0.00    -0.003 C 
HETATM   12  C1  UNL     1      23.612   2.501  50.455  1.00  0.00     0.038 C 
BRANCH  10  13
HETATM   13  C4  UNL     1      26.531   2.819  49.878  1.00  0.00     0.224 C 
BRANCH  13  14
HETATM   14  O1  UNL     1      27.173   4.009  49.627  1.00  0.00    -0.390 OA
HETATM   15  C5  UNL     1      26.361   4.984  49.094  1.00  0.00     0.201 C 
ENDBRANCH  13  14
ENDBRANCH  10  13
ENDBRANCH   8  10
ENDBRANCH   1   8
BRANCH   6  16
HETATM   16  N4  UNL     1      25.593  -0.408  55.534  1.00  0.00    -0.216 N 
HETATM   17  H11 UNL     1      25.496  -0.097  56.508  1.00  0.00     0.178 HD
BRANCH  16  18
HETATM   18  C9  UNL     1      24.741  -1.435  54.997  1.00  0.00     0.203 C 
BRANCH  18  19
HETATM   19  C10 UNL     1      23.376  -0.955  54.685  1.00  0.00     0.070 A 
HETATM   20  C11 UNL     1      23.140  -0.362  53.437  1.00  0.00     0.036 A 
HETATM   21  C12 UNL     1      21.786  -0.025  53.453  1.00  0.00     0.027 A 
HETATM   22  C13 UNL     1      21.331  -0.444  54.701  1.00  0.00     0.142 A 
HETATM   23  O2  UNL     1      22.291  -0.979  55.385  1.00  0.00    -0.325 OA
ENDBRANCH  18  19
ENDBRANCH  16  18
ENDBRANCH   6  16
TORSDOF 7
ENDMDL
MODEL 6
REMARK VINA RESULT:      -6.7      2.608      6.418
REMARK  7 active torsions:
REMARK  status: ('A' for Active; 'I' for Inactive)
REMARK    1  A    between atoms: C3_3  and  C4_4 
REMARK    2  A    between atoms: C3_3  and  N1_7 
REMARK    3  A    between atoms: C4_4  and  O1_5 
REMARK    4  A    between atoms: N1_7  and  C6_8 
REMARK    5  A    between atoms: C8_13  and  N4_14 
REMARK    6  A    between atoms: N4_14  and  C9_15 
REMARK    7  A    between atoms: C9_15  and  C10_16 
ROOT
HETATM    1  C6  UNL     1      24.219   2.538  52.661  1.00  0.00     0.745 A 
HETATM    2  N2  UNL     1      23.086   2.041  52.116  1.00  0.00    -0.030 NA
HETATM    3  C7  UNL     1      22.725   0.741  52.289  1.00  0.00     0.259 A 
HETATM    4 CL1  UNL     1      21.254   0.068  51.592  1.00  0.00    -0.040 Cl
HETATM    5  N3  UNL     1      23.507  -0.087  53.019  1.00  0.00    -0.030 NA
HETATM    6  C8  UNL     1      24.630   0.418  53.555  1.00  0.00     0.741 A 
HETATM    7  N5  UNL     1      25.003   1.722  53.389  1.00  0.00     0.130 NA
ENDROOT
BRANCH   1   8
HETATM    8  N1  UNL     1      24.363   3.910  52.328  1.00  0.00    -0.189 N 
HETATM    9  H10 UNL     1      24.090   4.803  52.796  1.00  0.00     0.184 HD
BRANCH   8  10
HETATM   10  C3  UNL     1      25.023   4.126  51.085  1.00  0.00     0.046 C 
HETATM   11  C2  UNL     1      26.040   3.421  50.627  1.00  0.00    -0.003 C 
HETATM   12  C1  UNL     1      26.657   3.712  49.343  1.00  0.00     0.038 C 
BRANCH  10  13
HETATM   13  C4  UNL     1      24.351   5.285  50.420  1.00  0.00     0.224 C 
BRANCH  13  14
HETATM   14  O1  UNL     1      23.984   6.275  51.300  1.00  0.00    -0.390 OA
HETATM   15  C5  UNL     1      24.024   7.543  50.767  1.00  0.00     0.201 C 
ENDBRANCH  13  14
ENDBRANCH  10  13
ENDBRANCH   8  10
ENDBRANCH   1   8
BRANCH   6  16
HETATM   16  N4  UNL     1      25.496  -0.403  54.325  1.00  0.00    -0.216 N 
HETATM   17  H11 UNL     1      25.314  -1.396  54.513  1.00  0.00     0.178 HD
BRANCH  16  18
HETATM   18  C9  UNL     1      26.671   0.246  54.840  1.00  0.00     0.203 C 
BRANCH  18  19
HETATM   19  C10 UNL     1      27.927  -0.263  54.245  1.00  0.00     0.070 A 
HETATM   20  C11 UNL     1      29.031   0.597  54.168  1.00  0.00     0.036 A 
HETATM   21  C12 UNL     1      30.035  -0.166  53.570  1.00  0.00     0.027 A 
HETATM   22  C13 UNL     1      29.449  -1.409  53.344  1.00  0.00     0.142 A 
HETATM   23  O2  UNL     1      28.221  -1.420  53.753  1.00  0.00    -0.325 OA
ENDBRANCH  18  19
ENDBRANCH  16  18
ENDBRANCH   6  16
TORSDOF 7
ENDMDL
MODEL 7
REMARK VINA RESULT:      -6.6      2.818      4.341
REMARK  7 active torsions:
REMARK  status: ('A' for Active; 'I' for Inactive)
REMARK    1  A    between atoms: C3_3  and  C4_4 
REMARK    2  A    between atoms: C3_3  and  N1_7 
REMARK    3  A    between atoms: C4_4  and  O1_5 
REMARK    4  A    between atoms: N1_7  and  C6_8 
REMARK    5  A    between atoms: C8_13  and  N4_14 
REMARK    6  A    between atoms: N4_14  and  C9_15 
REMARK    7  A    between atoms: C9_15  and  C10_16 
ROOT
HETATM    1  C6  UNL     1      24.187   1.558  52.462  1.00  0.00     0.745 A 
HETATM    2  N2  UNL     1      24.791   0.367  52.674  1.00  0.00    -0.030 NA
HETATM    3  C7  UNL     1      26.083   0.151  52.311  1.00  0.00     0.259 A 
HETATM    4 CL1  UNL     1      26.893  -1.390  52.577  1.00  0.00    -0.040 Cl
HETATM    5  N3  UNL     1      26.795   1.139  51.722  1.00  0.00    -0.030 NA
HETATM    6  C8  UNL     1      26.185   2.318  51.517  1.00  0.00     0.741 A 
HETATM    7  N5  UNL     1      24.887   2.547  51.877  1.00  0.00     0.130 NA
ENDROOT
BRANCH   1   8
HETATM    8  N1  UNL     1      22.847   1.519  52.927  1.00  0.00    -0.189 N 
HETATM    9  H10 UNL     1      22.382   1.775  53.827  1.00  0.00     0.184 HD
BRANCH   8  10
HETATM   10  C3  UNL     1      21.926   1.022  51.961  1.00  0.00     0.046 C 
HETATM   11  C2  UNL     1      21.877   1.384  50.693  1.00  0.00    -0.003 C 
HETATM   12  C1  UNL     1      20.900   0.825  49.773  1.00  0.00     0.038 C 
BRANCH  10  13
HETATM   13  C4  UNL     1      21.045   0.032  52.655  1.00  0.00     0.224 C 
BRANCH  13  14
HETATM   14  O1  UNL     1      21.214   0.020  54.019  1.00  0.00    -0.390 OA
HETATM   15  C5  UNL     1      21.353  -1.239  54.558  1.00  0.00     0.201 C 
ENDBRANCH  13  14
ENDBRANCH  10  13
ENDBRANCH   8  10
ENDBRANCH   1   8
BRANCH   6  16
HETATM   16  N4  UNL     1      26.877   3.391  50.896  1.00  0.00    -0.216 N 
HETATM   17  H11 UNL     1      27.570   3.973  51.381  1.00  0.00     0.178 HD
BRANCH  16  18
HETATM   18  C9  UNL     1      26.549   3.624  49.515  1.00  0.00     0.203 C 
BRANCH  18  19
HETATM   19  C10 UNL     1      27.311   4.742  48.916  1.00  0.00     0.070 A 
HETATM   20  C11 UNL     1      26.650   5.956  48.684  1.00  0.00     0.036 A 
HETATM   21  C12 UNL     1      27.621   6.788  48.124  1.00  0.00     0.027 A 
HETATM   22  C13 UNL     1      28.771   6.005  48.071  1.00  0.00     0.142 A 
HETATM   23  O2  UNL     1      28.544   4.821  48.542  1.00  0.00    -0.325 OA
ENDBRANCH  18  19
ENDBRANCH  16  18
ENDBRANCH   6  16
TORSDOF 7
ENDMDL
MODEL 8
REMARK VINA RESULT:      -6.6      4.319      6.825
REMARK  7 active torsions:
REMARK  status: ('A' for Active; 'I' for Inactive)
REMARK    1  A    between atoms: C3_3  and  C4_4 
REMARK    2  A    between atoms: C3_3  and  N1_7 
REMARK    3  A    between atoms: C4_4  and  O1_5 
REMARK    4  A    between atoms: N1_7  and  C6_8 
REMARK    5  A    between atoms: C8_13  and  N4_14 
REMARK    6  A    between atoms: N4_14  and  C9_15 
REMARK    7  A    between atoms: C9_15  and  C10_16 
ROOT
HETATM    1  C6  UNL     1      23.546   0.674  52.274  1.00  0.00     0.745 A 
HETATM    2  N2  UNL     1      22.355   0.148  52.638  1.00  0.00    -0.030 NA
HETATM    3  C7  UNL     1      22.240  -0.673  53.716  1.00  0.00     0.259 A 
HETATM    4 CL1  UNL     1      20.701  -1.370  54.213  1.00  0.00    -0.040 Cl
HETATM    5  N3  UNL     1      23.333  -0.981  54.451  1.00  0.00    -0.030 NA
HETATM    6  C8  UNL     1      24.511  -0.453  54.080  1.00  0.00     0.741 A 
HETATM    7  N5  UNL     1      24.639   0.373  52.999  1.00  0.00     0.130 NA
ENDROOT
BRANCH   1   8
HETATM    8  N1  UNL     1      23.392   1.487  51.122  1.00  0.00    -0.189 N 
HETATM    9  H10 UNL     1      23.525   1.329  50.097  1.00  0.00     0.184 HD
BRANCH   8  10
HETATM   10  C3  UNL     1      22.961   2.812  51.416  1.00  0.00     0.046 C 
HETATM   11  C2  UNL     1      23.451   3.583  52.368  1.00  0.00    -0.003 C 
HETATM   12  C1  UNL     1      22.949   4.927  52.601  1.00  0.00     0.038 C 
BRANCH  10  13
HETATM   13  C4  UNL     1      21.865   3.147  50.453  1.00  0.00     0.224 C 
BRANCH  13  14
HETATM   14  O1  UNL     1      20.763   2.337  50.585  1.00  0.00    -0.390 OA
HETATM   15  C5  UNL     1      20.101   2.092  49.404  1.00  0.00     0.201 C 
ENDBRANCH  13  14
ENDBRANCH  10  13
ENDBRANCH   8  10
ENDBRANCH   1   8
BRANCH   6  16
HETATM   16  N4  UNL     1      25.695  -0.746  54.807  1.00  0.00    -0.216 N 
HETATM   17  H11 UNL     1      25.824  -1.603  55.356  1.00  0.00     0.178 HD
BRANCH  16  18
HETATM   18  C9  UNL     1      26.731   0.249  54.730  1.00  0.00     0.203 C 
BRANCH  18  19
HETATM   19  C10 UNL     1      28.006  -0.278  54.195  1.00  0.00     0.070 A 
HETATM   20  C11 UNL     1      29.093   0.598  54.067  1.00  0.00     0.036 A 
HETATM   21  C12 UNL     1      30.123  -0.187  53.545  1.00  0.00     0.027 A 
HETATM   22  C13 UNL     1      29.566  -1.456  53.408  1.00  0.00     0.142 A 
HETATM   23  O2  UNL     1      28.332  -1.462  53.798  1.00  0.00    -0.325 OA
ENDBRANCH  18  19
ENDBRANCH  16  18
ENDBRANCH   6  16
TORSDOF 7
ENDMDL
MODEL 9
REMARK VINA RESULT:      -6.5      3.290      6.437
REMARK  7 active torsions:
REMARK  status: ('A' for Active; 'I' for Inactive)
REMARK    1  A    between atoms: C3_3  and  C4_4 
REMARK    2  A    between atoms: C3_3  and  N1_7 
REMARK    3  A    between atoms: C4_4  and  O1_5 
REMARK    4  A    between atoms: N1_7  and  C6_8 
REMARK    5  A    between atoms: C8_13  and  N4_14 
REMARK    6  A    between atoms: N4_14  and  C9_15 
REMARK    7  A    between atoms: C9_15  and  C10_16 
ROOT
HETATM    1  C6  UNL     1      24.110   1.519  51.671  1.00  0.00     0.745 A 
HETATM    2  N2  UNL     1      24.725   2.190  50.670  1.00  0.00    -0.030 NA
HETATM    3  C7  UNL     1      25.950   2.753  50.841  1.00  0.00     0.259 A 
HETATM    4 CL1  UNL     1      26.774   3.630  49.554  1.00  0.00    -0.040 Cl
HETATM    5  N3  UNL     1      26.583   2.650  52.033  1.00  0.00    -0.030 NA
HETATM    6  C8  UNL     1      25.962   1.982  53.019  1.00  0.00     0.741 A 
HETATM    7  N5  UNL     1      24.731   1.412  52.859  1.00  0.00     0.130 NA
ENDROOT
BRANCH   1   8
HETATM    8  N1  UNL     1      22.849   1.037  51.235  1.00  0.00    -0.189 N 
HETATM    9  H10 UNL     1      22.546   0.276  50.586  1.00  0.00     0.184 HD
BRANCH   8  10
HETATM   10  C3  UNL     1      21.747   1.738  51.802  1.00  0.00     0.046 C 
HETATM   11  C2  UNL     1      21.447   3.004  51.576  1.00  0.00    -0.003 C 
HETATM   12  C1  UNL     1      20.300   3.643  52.199  1.00  0.00     0.038 C 
BRANCH  10  13
HETATM   13  C4  UNL     1      21.015   0.778  52.686  1.00  0.00     0.224 C 
BRANCH  13  14
HETATM   14  O1  UNL     1      21.558   0.680  53.945  1.00  0.00    -0.390 OA
HETATM   15  C5  UNL     1      21.366  -0.543  54.546  1.00  0.00     0.201 C 
ENDBRANCH  13  14
ENDBRANCH  10  13
ENDBRANCH   8  10
ENDBRANCH   1   8
BRANCH   6  16
HETATM   16  N4  UNL     1      26.572   1.847  54.294  1.00  0.00    -0.216 N 
HETATM   17  H11 UNL     1      26.877   2.646  54.862  1.00  0.00     0.178 HD
BRANCH  16  18
HETATM   18  C9  UNL     1      26.742   0.497  54.759  1.00  0.00     0.203 C 
BRANCH  18  19
HETATM   19  C10 UNL     1      27.948  -0.161  54.209  1.00  0.00     0.070 A 
HETATM   20  C11 UNL     1      29.135   0.579  54.120  1.00  0.00     0.036 A 
HETATM   21  C12 UNL     1      30.066  -0.306  53.572  1.00  0.00     0.027 A 
HETATM   22  C13 UNL     1      29.360  -1.491  53.383  1.00  0.00     0.142 A 
HETATM   23  O2  UNL     1      28.131  -1.360  53.768  1.00  0.00    -0.325 OA
ENDBRANCH  18  19
ENDBRANCH  16  18
ENDBRANCH   6  16
TORSDOF 7
ENDMDL
