MODEL 1
REMARK VINA RESULT:      -8.6      0.000      0.000
REMARK  5 active torsions:
REMARK  status: ('A' for Active; 'I' for Inactive)
REMARK    1  A    between atoms: C9_9  and  C10_10 
REMARK    2  A    between atoms: C10_10  and  O1_11 
REMARK    3  A    between atoms: N1_16  and  C15_17 
REMARK    4  A    between atoms: C15_17  and  N2_19 
REMARK    5  A    between atoms: N2_19  and  C16_20 
ROOT
HETATM    1  C1  UNL     1      20.992   1.845  48.820  1.00  0.00     0.044 C 
HETATM    2  C2  UNL     1      21.591   2.430  50.049  1.00  0.00    -0.077 C 
HETATM    3  C3  UNL     1      21.386   3.560  50.747  1.00  0.00     0.003 C 
HETATM    4  C4  UNL     1      22.047   4.064  51.937  1.00  0.00    -0.002 C 
HETATM    5  C5  UNL     1      23.016   3.272  52.347  1.00  0.00    -0.001 C 
HETATM    6  C6  UNL     1      23.410   2.031  51.676  1.00  0.00     0.122 C 
HETATM    7  C7  UNL     1      22.443   1.404  50.739  1.00  0.00     0.045 C 
HETATM    8  C8  UNL     1      21.724   0.203  51.208  1.00  0.00     0.047 C 
HETATM    9  C9  UNL     1      20.458   0.201  51.920  1.00  0.00    -0.060 C 
HETATM   10  C11 UNL     1      20.330  -0.230  53.228  1.00  0.00    -0.021 C 
HETATM   11  C12 UNL     1      21.261  -0.760  54.267  1.00  0.00     0.038 C 
HETATM   12  C13 UNL     1      22.675  -0.453  53.996  1.00  0.00     0.037 C 
HETATM   13  C14 UNL     1      23.718   0.163  53.456  1.00  0.00     0.073 C 
HETATM   14  N1  UNL     1      24.158   1.189  52.559  1.00  0.00    -0.328 N 
ENDROOT
BRANCH  14  15
HETATM   15  C15 UNL     1      25.571   1.279  52.661  1.00  0.00     0.178 C 
HETATM   16  S1  UNL     1      26.368   2.012  51.462  1.00  0.00    -0.040 SA
BRANCH  15  17
HETATM   17  N2  UNL     1      26.393   0.793  53.711  1.00  0.00    -0.333 N 
HETATM   18  H19 UNL     1      26.492   0.927  54.744  1.00  0.00     0.168 HD
BRANCH  17  19
HETATM   19  C16 UNL     1      27.459  -0.156  53.569  1.00  0.00     0.034 A 
HETATM   20  C17 UNL     1      27.043  -1.366  53.021  1.00  0.00     0.029 A 
HETATM   21  C18 UNL     1      27.894  -2.443  52.784  1.00  0.00     0.002 A 
HETATM   22  C19 UNL     1      29.211  -2.239  53.132  1.00  0.00     0.000 A 
HETATM   23  C20 UNL     1      29.662  -1.056  53.677  1.00  0.00     0.002 A 
HETATM   24  C21 UNL     1      28.805  -0.003  53.903  1.00  0.00     0.029 A 
ENDBRANCH  17  19
ENDBRANCH  15  17
ENDBRANCH  14  15
BRANCH   9  25
HETATM   25  C10 UNL     1      19.084   0.530  51.449  1.00  0.00     0.198 C 
BRANCH  25  26
HETATM   26  O1  UNL     1      18.165  -0.465  51.430  1.00  0.00    -0.397 OA
HETATM   27  H13 UNL     1      17.305  -0.240  50.995  1.00  0.00     0.209 HD
ENDBRANCH  25  26
ENDBRANCH   9  25
TORSDOF 5
ENDMDL
MODEL 2
REMARK VINA RESULT:      -8.5      1.601      2.121
REMARK  5 active torsions:
REMARK  status: ('A' for Active; 'I' for Inactive)
REMARK    1  A    between atoms: C9_9  and  C10_10 
REMARK    2  A    between atoms: C10_10  and  O1_11 
REMARK    3  A    between atoms: N1_16  and  C15_17 
REMARK    4  A    between atoms: C15_17  and  N2_19 
REMARK    5  A    between atoms: N2_19  and  C16_20 
ROOT
HETATM    1  C1  UNL     1      22.258   2.157  48.671  1.00  0.00     0.044 C 
HETATM    2  C2  UNL     1      22.604   2.385  50.099  1.00  0.00    -0.077 C 
HETATM    3  C3  UNL     1      22.649   3.470  50.892  1.00  0.00     0.003 C 
HETATM    4  C4  UNL     1      23.026   3.600  52.287  1.00  0.00    -0.002 C 
HETATM    5  C5  UNL     1      23.409   2.455  52.814  1.00  0.00    -0.001 C 
HETATM    6  C6  UNL     1      23.474   1.189  52.080  1.00  0.00     0.122 C 
HETATM    7  C7  UNL     1      22.701   1.070  50.817  1.00  0.00     0.045 C 
HETATM    8  C8  UNL     1      21.455   0.281  50.854  1.00  0.00     0.047 C 
HETATM    9  C9  UNL     1      20.135   0.799  51.170  1.00  0.00    -0.060 C 
HETATM   10  C11 UNL     1      19.427   0.421  52.297  1.00  0.00    -0.021 C 
HETATM   11  C12 UNL     1      19.676  -0.491  53.450  1.00  0.00     0.038 C 
HETATM   12  C13 UNL     1      21.099  -0.814  53.644  1.00  0.00     0.037 C 
HETATM   13  C14 UNL     1      22.414  -0.689  53.532  1.00  0.00     0.073 C 
HETATM   14  N1  UNL     1      23.492   0.077  52.982  1.00  0.00    -0.328 N 
ENDROOT
BRANCH  14  15
HETATM   15  C15 UNL     1      24.707  -0.453  53.492  1.00  0.00     0.178 C 
HETATM   16  S1  UNL     1      24.718  -0.975  55.021  1.00  0.00    -0.040 SA
BRANCH  15  17
HETATM   17  N2  UNL     1      25.943  -0.587  52.809  1.00  0.00    -0.333 N 
HETATM   18  H19 UNL     1      26.315  -1.083  51.966  1.00  0.00     0.168 HD
BRANCH  17  19
HETATM   19  C16 UNL     1      27.179   0.037  53.186  1.00  0.00     0.034 A 
HETATM   20  C17 UNL     1      27.104   1.427  53.210  1.00  0.00     0.029 A 
HETATM   21  C18 UNL     1      28.172   2.254  53.546  1.00  0.00     0.002 A 
HETATM   22  C19 UNL     1      29.343   1.603  53.865  1.00  0.00     0.000 A 
HETATM   23  C20 UNL     1      29.458   0.230  53.853  1.00  0.00     0.002 A 
HETATM   24  C21 UNL     1      28.391  -0.572  53.517  1.00  0.00     0.029 A 
ENDBRANCH  17  19
ENDBRANCH  15  17
ENDBRANCH  14  15
BRANCH   9  25
HETATM   25  C10 UNL     1      19.242   1.703  50.395  1.00  0.00     0.198 C 
BRANCH  25  26
HETATM   26  O1  UNL     1      18.782   1.266  49.197  1.00  0.00    -0.397 OA
HETATM   27  H13 UNL     1      18.418   1.967  48.601  1.00  0.00     0.209 HD
ENDBRANCH  25  26
ENDBRANCH   9  25
TORSDOF 5
ENDMDL
MODEL 3
REMARK VINA RESULT:      -8.4      3.029      6.656
REMARK  5 active torsions:
REMARK  status: ('A' for Active; 'I' for Inactive)
REMARK    1  A    between atoms: C9_9  and  C10_10 
REMARK    2  A    between atoms: C10_10  and  O1_11 
REMARK    3  A    between atoms: N1_16  and  C15_17 
REMARK    4  A    between atoms: C15_17  and  N2_19 
REMARK    5  A    between atoms: N2_19  and  C16_20 
ROOT
HETATM    1  C1  UNL     1      23.118   4.763  51.354  1.00  0.00     0.044 C 
HETATM    2  C2  UNL     1      22.702   3.365  51.064  1.00  0.00    -0.077 C 
HETATM    3  C3  UNL     1      22.318   2.711  49.954  1.00  0.00     0.003 C 
HETATM    4  C4  UNL     1      21.902   1.333  49.771  1.00  0.00    -0.002 C 
HETATM    5  C5  UNL     1      21.879   0.660  50.903  1.00  0.00    -0.001 C 
HETATM    6  C6  UNL     1      22.212   1.230  52.211  1.00  0.00     0.122 C 
HETATM    7  C7  UNL     1      23.000   2.489  52.246  1.00  0.00     0.045 C 
HETATM    8  C8  UNL     1      24.427   2.388  52.609  1.00  0.00     0.047 C 
HETATM    9  C9  UNL     1      25.522   2.172  51.679  1.00  0.00    -0.060 C 
HETATM   10  C11 UNL     1      26.297   1.026  51.680  1.00  0.00    -0.021 C 
HETATM   11  C12 UNL     1      26.323  -0.236  52.473  1.00  0.00     0.038 C 
HETATM   12  C13 UNL     1      25.064  -0.506  53.186  1.00  0.00     0.037 C 
HETATM   13  C14 UNL     1      23.774  -0.413  53.482  1.00  0.00     0.073 C 
HETATM   14  N1  UNL     1      22.522   0.199  53.154  1.00  0.00    -0.328 N 
ENDROOT
BRANCH  14  15
HETATM   15  C15 UNL     1      21.520  -0.404  53.960  1.00  0.00     0.178 C 
HETATM   16  S1  UNL     1      21.930  -1.706  54.824  1.00  0.00    -0.040 SA
BRANCH  15  17
HETATM   17  N2  UNL     1      20.169   0.005  54.106  1.00  0.00    -0.333 N 
HETATM   18  H19 UNL     1      19.600   0.583  54.767  1.00  0.00     0.168 HD
BRANCH  17  19
HETATM   19  C16 UNL     1      19.089  -0.344  53.228  1.00  0.00     0.034 A 
HETATM   20  C17 UNL     1      18.384  -1.468  53.649  1.00  0.00     0.029 A 
HETATM   21  C18 UNL     1      17.294  -2.000  52.965  1.00  0.00     0.002 A 
HETATM   22  C19 UNL     1      16.940  -1.332  51.814  1.00  0.00     0.000 A 
HETATM   23  C20 UNL     1      17.612  -0.217  51.363  1.00  0.00     0.002 A 
HETATM   24  C21 UNL     1      18.688   0.295  52.053  1.00  0.00     0.029 A 
ENDBRANCH  17  19
ENDBRANCH  15  17
ENDBRANCH  14  15
BRANCH   9  25
HETATM   25  C10 UNL     1      26.107   3.076  50.651  1.00  0.00     0.198 C 
BRANCH  25  26
HETATM   26  O1  UNL     1      27.355   3.560  50.868  1.00  0.00    -0.397 OA
HETATM   27  H13 UNL     1      27.437   4.545  50.841  1.00  0.00     0.209 HD
ENDBRANCH  25  26
ENDBRANCH   9  25
TORSDOF 5
ENDMDL
MODEL 4
REMARK VINA RESULT:      -8.1      2.222      4.058
REMARK  5 active torsions:
REMARK  status: ('A' for Active; 'I' for Inactive)
REMARK    1  A    between atoms: C9_9  and  C10_10 
REMARK    2  A    between atoms: C10_10  and  O1_11 
REMARK    3  A    between atoms: N1_16  and  C15_17 
REMARK    4  A    between atoms: C15_17  and  N2_19 
REMARK    5  A    between atoms: N2_19  and  C16_20 
ROOT
HETATM    1  C1  UNL     1      20.764   0.564  51.214  1.00  0.00     0.044 C 
HETATM    2  C2  UNL     1      21.564   1.287  50.190  1.00  0.00    -0.077 C 
HETATM    3  C3  UNL     1      21.524   1.363  48.849  1.00  0.00     0.003 C 
HETATM    4  C4  UNL     1      22.374   2.086  47.922  1.00  0.00    -0.002 C 
HETATM    5  C5  UNL     1      23.347   2.732  48.530  1.00  0.00    -0.001 C 
HETATM    6  C6  UNL     1      23.572   2.714  49.978  1.00  0.00     0.122 C 
HETATM    7  C7  UNL     1      22.448   2.301  50.856  1.00  0.00     0.045 C 
HETATM    8  C8  UNL     1      21.739   3.363  51.596  1.00  0.00     0.047 C 
HETATM    9  C9  UNL     1      20.589   4.107  51.112  1.00  0.00    -0.060 C 
HETATM   10  C11 UNL     1      20.626   5.465  50.851  1.00  0.00    -0.021 C 
HETATM   11  C12 UNL     1      21.665   6.533  50.928  1.00  0.00     0.038 C 
HETATM   12  C13 UNL     1      23.040   6.009  50.955  1.00  0.00     0.037 C 
HETATM   13  C14 UNL     1      24.028   5.138  50.797  1.00  0.00     0.073 C 
HETATM   14  N1  UNL     1      24.391   3.817  50.381  1.00  0.00    -0.328 N 
ENDROOT
BRANCH  14  15
HETATM   15  C15 UNL     1      25.807   3.722  50.419  1.00  0.00     0.178 C 
HETATM   16  S1  UNL     1      26.643   4.448  49.241  1.00  0.00    -0.040 SA
BRANCH  15  17
HETATM   17  N2  UNL     1      26.601   3.055  51.386  1.00  0.00    -0.333 N 
HETATM   18  H19 UNL     1      27.547   3.161  51.822  1.00  0.00     0.168 HD
BRANCH  17  19
HETATM   19  C16 UNL     1      26.221   1.878  52.113  1.00  0.00     0.034 A 
HETATM   20  C17 UNL     1      26.911   0.738  51.706  1.00  0.00     0.029 A 
HETATM   21  C18 UNL     1      26.717  -0.524  52.262  1.00  0.00     0.002 A 
HETATM   22  C19 UNL     1      25.779  -0.585  53.268  1.00  0.00     0.000 A 
HETATM   23  C20 UNL     1      25.076   0.518  53.700  1.00  0.00     0.002 A 
HETATM   24  C21 UNL     1      25.281   1.758  53.138  1.00  0.00     0.029 A 
ENDBRANCH  17  19
ENDBRANCH  15  17
ENDBRANCH  14  15
BRANCH   9  25
HETATM   25  C10 UNL     1      19.183   3.673  50.887  1.00  0.00     0.198 C 
BRANCH  25  26
HETATM   26  O1  UNL     1      18.415   3.422  51.976  1.00  0.00    -0.397 OA
HETATM   27  H13 UNL     1      17.471   3.707  51.903  1.00  0.00     0.209 HD
ENDBRANCH  25  26
ENDBRANCH   9  25
TORSDOF 5
ENDMDL
MODEL 5
REMARK VINA RESULT:      -7.8      3.331      4.939
REMARK  5 active torsions:
REMARK  status: ('A' for Active; 'I' for Inactive)
REMARK    1  A    between atoms: C9_9  and  C10_10 
REMARK    2  A    between atoms: C10_10  and  O1_11 
REMARK    3  A    between atoms: N1_16  and  C15_17 
REMARK    4  A    between atoms: C15_17  and  N2_19 
REMARK    5  A    between atoms: N2_19  and  C16_20 
ROOT
HETATM    1  C1  UNL     1      19.204   0.202  51.309  1.00  0.00     0.044 C 
HETATM    2  C2  UNL     1      20.085   1.349  51.652  1.00  0.00    -0.077 C 
HETATM    3  C3  UNL     1      19.940   2.450  52.409  1.00  0.00     0.003 C 
HETATM    4  C4  UNL     1      20.861   3.541  52.668  1.00  0.00    -0.002 C 
HETATM    5  C5  UNL     1      21.996   3.408  52.013  1.00  0.00    -0.001 C 
HETATM    6  C6  UNL     1      22.301   2.300  51.104  1.00  0.00     0.122 C 
HETATM    7  C7  UNL     1      21.492   1.059  51.216  1.00  0.00     0.045 C 
HETATM    8  C8  UNL     1      22.123  -0.106  51.866  1.00  0.00     0.047 C 
HETATM    9  C9  UNL     1      22.087  -0.404  53.288  1.00  0.00    -0.060 C 
HETATM   10  C11 UNL     1      23.215  -0.396  54.088  1.00  0.00    -0.021 C 
HETATM   11  C12 UNL     1      24.665  -0.118  53.876  1.00  0.00     0.038 C 
HETATM   12  C13 UNL     1      24.941   0.643  52.647  1.00  0.00     0.037 C 
HETATM   13  C14 UNL     1      24.696   1.424  51.603  1.00  0.00     0.073 C 
HETATM   14  N1  UNL     1      23.712   2.185  50.894  1.00  0.00    -0.328 N 
ENDROOT
BRANCH  14  15
HETATM   15  C15 UNL     1      24.373   2.884  49.849  1.00  0.00     0.178 C 
HETATM   16  S1  UNL     1      23.506   3.285  48.545  1.00  0.00    -0.040 SA
BRANCH  15  17
HETATM   17  N2  UNL     1      25.733   3.286  49.805  1.00  0.00    -0.333 N 
HETATM   18  H19 UNL     1      26.673   2.864  49.988  1.00  0.00     0.168 HD
BRANCH  17  19
HETATM   19  C16 UNL     1      26.210   4.587  49.437  1.00  0.00     0.034 A 
HETATM   20  C17 UNL     1      27.424   4.550  48.757  1.00  0.00     0.029 A 
HETATM   21  C18 UNL     1      28.088   5.684  48.295  1.00  0.00     0.002 A 
HETATM   22  C19 UNL     1      27.457   6.881  48.555  1.00  0.00     0.000 A 
HETATM   23  C20 UNL     1      26.255   6.960  49.224  1.00  0.00     0.002 A 
HETATM   24  C21 UNL     1      25.614   5.827  49.673  1.00  0.00     0.029 A 
ENDBRANCH  17  19
ENDBRANCH  15  17
ENDBRANCH  14  15
BRANCH   9  25
HETATM   25  C10 UNL     1      20.960  -0.851  54.152  1.00  0.00     0.198 C 
BRANCH  25  26
HETATM   26  O1  UNL     1      21.180  -1.890  54.994  1.00  0.00    -0.397 OA
HETATM   27  H13 UNL     1      21.542  -1.647  55.882  1.00  0.00     0.209 HD
ENDBRANCH  25  26
ENDBRANCH   9  25
TORSDOF 5
ENDMDL
MODEL 6
REMARK VINA RESULT:      -7.7      3.396      6.947
REMARK  5 active torsions:
REMARK  status: ('A' for Active; 'I' for Inactive)
REMARK    1  A    between atoms: C9_9  and  C10_10 
REMARK    2  A    between atoms: C10_10  and  O1_11 
REMARK    3  A    between atoms: N1_16  and  C15_17 
REMARK    4  A    between atoms: C15_17  and  N2_19 
REMARK    5  A    between atoms: N2_19  and  C16_20 
ROOT
HETATM    1  C1  UNL     1      23.451   5.745  49.337  1.00  0.00     0.044 C 
HETATM    2  C2  UNL     1      23.071   4.308  49.299  1.00  0.00    -0.077 C 
HETATM    3  C3  UNL     1      22.816   3.431  48.313  1.00  0.00     0.003 C 
HETATM    4  C4  UNL     1      22.423   2.036  48.374  1.00  0.00    -0.002 C 
HETATM    5  C5  UNL     1      22.273   1.609  49.611  1.00  0.00    -0.001 C 
HETATM    6  C6  UNL     1      22.457   2.443  50.801  1.00  0.00     0.122 C 
HETATM    7  C7  UNL     1      23.235   3.701  50.662  1.00  0.00     0.045 C 
HETATM    8  C8  UNL     1      24.612   3.710  51.192  1.00  0.00     0.047 C 
HETATM    9  C9  UNL     1      25.805   3.335  50.453  1.00  0.00    -0.060 C 
HETATM   10  C11 UNL     1      26.576   2.232  50.777  1.00  0.00    -0.021 C 
HETATM   11  C12 UNL     1      26.513   1.160  51.812  1.00  0.00     0.038 C 
HETATM   12  C13 UNL     1      25.182   1.013  52.422  1.00  0.00     0.037 C 
HETATM   13  C14 UNL     1      23.867   1.133  52.548  1.00  0.00     0.073 C 
HETATM   14  N1  UNL     1      22.659   1.634  51.965  1.00  0.00    -0.328 N 
ENDROOT
BRANCH  14  15
HETATM   15  C15 UNL     1      21.573   1.186  52.763  1.00  0.00     0.178 C 
HETATM   16  S1  UNL     1      21.878   0.075  53.895  1.00  0.00    -0.040 SA
BRANCH  15  17
HETATM   17  N2  UNL     1      20.219   1.603  52.689  1.00  0.00    -0.333 N 
HETATM   18  H19 UNL     1      19.622   2.374  53.069  1.00  0.00     0.168 HD
BRANCH  17  19
HETATM   19  C16 UNL     1      19.180   0.948  51.947  1.00  0.00     0.034 A 
HETATM   20  C17 UNL     1      18.888   1.582  50.742  1.00  0.00     0.029 A 
HETATM   21  C18 UNL     1      17.919   1.135  49.848  1.00  0.00     0.002 A 
HETATM   22  C19 UNL     1      17.245  -0.004  50.231  1.00  0.00     0.000 A 
HETATM   23  C20 UNL     1      17.505  -0.660  51.414  1.00  0.00     0.002 A 
HETATM   24  C21 UNL     1      18.467  -0.202  52.287  1.00  0.00     0.029 A 
ENDBRANCH  17  19
ENDBRANCH  15  17
ENDBRANCH  14  15
BRANCH   9  25
HETATM   25  C10 UNL     1      26.502   4.022  49.332  1.00  0.00     0.198 C 
BRANCH  25  26
HETATM   26  O1  UNL     1      27.689   4.622  49.595  1.00  0.00    -0.397 OA
HETATM   27  H13 UNL     1      28.343   4.610  48.853  1.00  0.00     0.209 HD
ENDBRANCH  25  26
ENDBRANCH   9  25
TORSDOF 5
ENDMDL
MODEL 7
REMARK VINA RESULT:      -7.5      3.272      4.973
REMARK  5 active torsions:
REMARK  status: ('A' for Active; 'I' for Inactive)
REMARK    1  A    between atoms: C9_9  and  C10_10 
REMARK    2  A    between atoms: C10_10  and  O1_11 
REMARK    3  A    between atoms: N1_16  and  C15_17 
REMARK    4  A    between atoms: C15_17  and  N2_19 
REMARK    5  A    between atoms: N2_19  and  C16_20 
ROOT
HETATM    1  C1  UNL     1      21.625   6.310  50.963  1.00  0.00     0.044 C 
HETATM    2  C2  UNL     1      21.996   4.994  50.380  1.00  0.00    -0.077 C 
HETATM    3  C3  UNL     1      21.534   4.259  49.353  1.00  0.00     0.003 C 
HETATM    4  C4  UNL     1      21.949   2.956  48.867  1.00  0.00    -0.002 C 
HETATM    5  C5  UNL     1      22.912   2.431  49.596  1.00  0.00    -0.001 C 
HETATM    6  C6  UNL     1      23.494   3.068  50.781  1.00  0.00     0.122 C 
HETATM    7  C7  UNL     1      23.303   4.530  50.954  1.00  0.00     0.045 C 
HETATM    8  C8  UNL     1      24.458   5.405  50.670  1.00  0.00     0.047 C 
HETATM    9  C9  UNL     1      24.783   5.982  49.377  1.00  0.00    -0.060 C 
HETATM   10  C11 UNL     1      25.922   5.646  48.666  1.00  0.00    -0.021 C 
HETATM   11  C12 UNL     1      27.069   4.717  48.878  1.00  0.00     0.038 C 
HETATM   12  C13 UNL     1      26.798   3.671  49.877  1.00  0.00     0.037 C 
HETATM   13  C14 UNL     1      26.083   2.877  50.663  1.00  0.00     0.073 C 
HETATM   14  N1  UNL     1      24.770   2.499  51.091  1.00  0.00    -0.328 N 
ENDROOT
BRANCH  14  15
HETATM   15  C15 UNL     1      24.899   1.375  51.950  1.00  0.00     0.178 C 
HETATM   16  S1  UNL     1      23.791   1.182  53.110  1.00  0.00    -0.040 SA
BRANCH  15  17
HETATM   17  N2  UNL     1      25.905   0.375  51.916  1.00  0.00    -0.333 N 
HETATM   18  H19 UNL     1      26.104  -0.509  51.392  1.00  0.00     0.168 HD
BRANCH  17  19
HETATM   19  C16 UNL     1      27.081   0.343  52.737  1.00  0.00     0.034 A 
HETATM   20  C17 UNL     1      27.725  -0.892  52.718  1.00  0.00     0.029 A 
HETATM   21  C18 UNL     1      28.888  -1.169  53.433  1.00  0.00     0.002 A 
HETATM   22  C19 UNL     1      29.381  -0.123  54.181  1.00  0.00     0.000 A 
HETATM   23  C20 UNL     1      28.774   1.112  54.226  1.00  0.00     0.002 A 
HETATM   24  C21 UNL     1      27.624   1.368  53.513  1.00  0.00     0.029 A 
ENDBRANCH  17  19
ENDBRANCH  15  17
ENDBRANCH  14  15
BRANCH   9  25
HETATM   25  C10 UNL     1      24.102   7.054  48.600  1.00  0.00     0.198 C 
BRANCH  25  26
HETATM   26  O1  UNL     1      23.379   6.686  47.514  1.00  0.00    -0.397 OA
HETATM   27  H13 UNL     1      22.397   6.758  47.615  1.00  0.00     0.209 HD
ENDBRANCH  25  26
ENDBRANCH   9  25
TORSDOF 5
ENDMDL
MODEL 8
REMARK VINA RESULT:      -7.4      4.285      6.680
REMARK  5 active torsions:
REMARK  status: ('A' for Active; 'I' for Inactive)
REMARK    1  A    between atoms: C9_9  and  C10_10 
REMARK    2  A    between atoms: C10_10  and  O1_11 
REMARK    3  A    between atoms: N1_16  and  C15_17 
REMARK    4  A    between atoms: C15_17  and  N2_19 
REMARK    5  A    between atoms: N2_19  and  C16_20 
ROOT
HETATM    1  C1  UNL     1      23.696   8.325  49.690  1.00  0.00     0.044 C 
HETATM    2  C2  UNL     1      23.229   7.047  49.092  1.00  0.00    -0.077 C 
HETATM    3  C3  UNL     1      22.861   6.669  47.855  1.00  0.00     0.003 C 
HETATM    4  C4  UNL     1      22.390   5.387  47.365  1.00  0.00    -0.002 C 
HETATM    5  C5  UNL     1      22.292   4.487  48.322  1.00  0.00    -0.001 C 
HETATM    6  C6  UNL     1      22.599   4.743  49.732  1.00  0.00     0.122 C 
HETATM    7  C7  UNL     1      23.440   5.922  50.062  1.00  0.00     0.045 C 
HETATM    8  C8  UNL     1      24.846   5.670  50.435  1.00  0.00     0.047 C 
HETATM    9  C9  UNL     1      25.966   5.604  49.512  1.00  0.00    -0.060 C 
HETATM   10  C11 UNL     1      26.689   4.445  49.286  1.00  0.00    -0.021 C 
HETATM   11  C12 UNL     1      26.627   3.042  49.786  1.00  0.00     0.038 C 
HETATM   12  C13 UNL     1      25.330   2.691  50.387  1.00  0.00     0.037 C 
HETATM   13  C14 UNL     1      24.035   2.785  50.658  1.00  0.00     0.073 C 
HETATM   14  N1  UNL     1      22.825   3.517  50.436  1.00  0.00    -0.328 N 
ENDROOT
BRANCH  14  15
HETATM   15  C15 UNL     1      21.766   2.808  51.062  1.00  0.00     0.178 C 
HETATM   16  S1  UNL     1      20.650   3.667  51.855  1.00  0.00    -0.040 SA
BRANCH  15  17
HETATM   17  N2  UNL     1      21.559   1.405  51.079  1.00  0.00    -0.333 N 
HETATM   18  H19 UNL     1      21.334   0.645  50.396  1.00  0.00     0.168 HD
BRANCH  17  19
HETATM   19  C16 UNL     1      21.624   0.563  52.239  1.00  0.00     0.034 A 
HETATM   20  C17 UNL     1      20.386   0.044  52.607  1.00  0.00     0.029 A 
HETATM   21  C18 UNL     1      20.193  -0.799  53.698  1.00  0.00     0.002 A 
HETATM   22  C19 UNL     1      21.329  -1.102  54.415  1.00  0.00     0.000 A 
HETATM   23  C20 UNL     1      22.572  -0.610  54.084  1.00  0.00     0.002 A 
HETATM   24  C21 UNL     1      22.743   0.224  53.002  1.00  0.00     0.029 A 
ENDBRANCH  17  19
ENDBRANCH  15  17
ENDBRANCH  14  15
BRANCH   9  25
HETATM   25  C10 UNL     1      26.632   6.676  48.723  1.00  0.00     0.198 C 
BRANCH  25  26
HETATM   26  O1  UNL     1      27.687   7.315  49.284  1.00  0.00    -0.397 OA
HETATM   27  H13 UNL     1      28.574   6.929  49.079  1.00  0.00     0.209 HD
ENDBRANCH  25  26
ENDBRANCH   9  25
TORSDOF 5
ENDMDL
MODEL 9
REMARK VINA RESULT:      -7.4      4.102      6.652
REMARK  5 active torsions:
REMARK  status: ('A' for Active; 'I' for Inactive)
REMARK    1  A    between atoms: C9_9  and  C10_10 
REMARK    2  A    between atoms: C10_10  and  O1_11 
REMARK    3  A    between atoms: N1_16  and  C15_17 
REMARK    4  A    between atoms: C15_17  and  N2_19 
REMARK    5  A    between atoms: N2_19  and  C16_20 
ROOT
HETATM    1  C1  UNL     1      26.365   3.120  49.323  1.00  0.00     0.044 C 
HETATM    2  C2  UNL     1      25.489   3.077  50.523  1.00  0.00    -0.077 C 
HETATM    3  C3  UNL     1      25.713   3.060  51.848  1.00  0.00     0.003 C 
HETATM    4  C4  UNL     1      24.782   2.992  52.959  1.00  0.00    -0.002 C 
HETATM    5  C5  UNL     1      23.530   2.901  52.561  1.00  0.00    -0.001 C 
HETATM    6  C6  UNL     1      23.110   2.851  51.158  1.00  0.00     0.122 C 
HETATM    7  C7  UNL     1      24.064   3.328  50.124  1.00  0.00     0.045 C 
HETATM    8  C8  UNL     1      23.805   4.649  49.518  1.00  0.00     0.047 C 
HETATM    9  C9  UNL     1      24.299   5.920  50.019  1.00  0.00    -0.060 C 
HETATM   10  C11 UNL     1      23.467   6.909  50.513  1.00  0.00    -0.021 C 
HETATM   11  C12 UNL     1      21.996   7.056  50.715  1.00  0.00     0.038 C 
HETATM   12  C13 UNL     1      21.275   5.773  50.721  1.00  0.00     0.037 C 
HETATM   13  C14 UNL     1      21.100   4.462  50.814  1.00  0.00     0.073 C 
HETATM   14  N1  UNL     1      21.726   3.192  51.027  1.00  0.00    -0.328 N 
ENDROOT
BRANCH  14  15
HETATM   15  C15 UNL     1      20.703   2.209  51.100  1.00  0.00     0.178 C 
HETATM   16  S1  UNL     1      20.269   1.471  49.730  1.00  0.00    -0.040 SA
BRANCH  15  17
HETATM   17  N2  UNL     1      19.997   1.784  52.254  1.00  0.00    -0.333 N 
HETATM   18  H19 UNL     1      19.239   2.146  52.878  1.00  0.00     0.168 HD
BRANCH  17  19
HETATM   19  C16 UNL     1      20.196   0.544  52.948  1.00  0.00     0.034 A 
HETATM   20  C17 UNL     1      21.460   0.436  53.521  1.00  0.00     0.029 A 
HETATM   21  C18 UNL     1      21.889  -0.672  54.247  1.00  0.00     0.002 A 
HETATM   22  C19 UNL     1      20.967  -1.688  54.369  1.00  0.00     0.000 A 
HETATM   23  C20 UNL     1      19.707  -1.620  53.817  1.00  0.00     0.002 A 
HETATM   24  C21 UNL     1      19.300  -0.515  53.102  1.00  0.00     0.029 A 
ENDBRANCH  17  19
ENDBRANCH  15  17
ENDBRANCH  14  15
BRANCH   9  25
HETATM   25  C10 UNL     1      25.677   6.480  50.039  1.00  0.00     0.198 C 
BRANCH  25  26
HETATM   26  O1  UNL     1      25.993   7.352  51.028  1.00  0.00    -0.397 OA
HETATM   27  H13 UNL     1      25.283   7.508  51.698  1.00  0.00     0.209 HD
ENDBRANCH  25  26
ENDBRANCH   9  25
TORSDOF 5
ENDMDL
