MODEL 1
REMARK VINA RESULT:      -9.6      0.000      0.000
REMARK  5 active torsions:
REMARK  status: ('A' for Active; 'I' for Inactive)
REMARK    1  A    between atoms: C5_5  and  C6_6 
REMARK       I    between atoms: C6_6  and  N1_8 
REMARK    2  A    between atoms: N1_8  and  C7_9 
REMARK    3  A    between atoms: C11_13  and  N2_14 
REMARK    4  A    between atoms: N2_14  and  C12_15 
REMARK    5  A    between atoms: C15_19  and  C16_20 
ROOT
HETATM    1  C7  UNL     1      22.185   3.339  49.912  1.00  0.00     0.047 C 
HETATM    2  C8  UNL     1      21.102   4.055  50.120  1.00  0.00    -0.001 C 
HETATM    3  C9  UNL     1      20.666   3.983  51.368  1.00  0.00    -0.006 C 
HETATM    4  C10 UNL     1      20.573   2.665  52.083  1.00  0.00     0.086 C 
HETATM    5  C11 UNL     1      21.315   1.632  51.312  1.00  0.00     0.032 C 
HETATM    6  C21 UNL     1      22.097   1.928  50.265  1.00  0.00     0.056 C 
ENDROOT
BRANCH   5   7
HETATM    7  N2  UNL     1      21.191   0.292  51.699  1.00  0.00    -0.192 N 
HETATM    8  H10 UNL     1      20.589  -0.272  51.074  1.00  0.00     0.184 HD
BRANCH   7   9
HETATM    9  C12 UNL     1      21.827  -0.260  52.845  1.00  0.00     0.727 A 
HETATM   10  N3  UNL     1      21.095  -0.843  53.802  1.00  0.00    -0.075 NA
HETATM   11  C13 UNL     1      21.738  -1.359  54.879  1.00  0.00     0.139 A 
HETATM   12  C14 UNL     1      23.128  -1.273  54.969  1.00  0.00     0.053 A 
HETATM   13  C15 UNL     1      23.861  -0.669  53.973  1.00  0.00     0.089 A 
HETATM   14  N5  UNL     1      23.177  -0.174  52.927  1.00  0.00    -0.062 NA
BRANCH  13  15
HETATM   15  C16 UNL     1      25.308  -0.531  53.976  1.00  0.00     0.011 A 
HETATM   16  C17 UNL     1      25.977  -0.776  52.798  1.00  0.00     0.017 A 
HETATM   17  C18 UNL     1      27.367  -0.667  52.712  1.00  0.00     0.020 A 
HETATM   18  C19 UNL     1      28.033  -0.304  53.863  1.00  0.00     0.116 A 
HETATM   19  N4  UNL     1      27.391  -0.062  55.019  1.00  0.00    -0.272 NA
HETATM   20  C20 UNL     1      26.034  -0.171  55.091  1.00  0.00     0.130 A 
ENDBRANCH  13  15
ENDBRANCH   7   9
ENDBRANCH   5   7
BRANCH   1  21
HETATM   21  N1  UNL     1      23.357   3.927  49.372  1.00  0.00    -0.322 N 
HETATM   22  C6  UNL     1      24.541   4.322  50.011  1.00  0.00     0.256 C 
HETATM   23  O1  UNL     1      24.607   4.141  51.249  1.00  0.00    -0.267 OA
HETATM   24  H6  UNL     1      23.365   4.108  48.326  1.00  0.00     0.169 HD
BRANCH  22  25
HETATM   25  C5  UNL     1      25.696   4.921  49.357  1.00  0.00     0.032 A 
HETATM   26  C4  UNL     1      25.557   6.205  48.870  1.00  0.00     0.017 A 
HETATM   27  C3  UNL     1      26.604   6.877  48.225  1.00  0.00     0.007 A 
HETATM   28  C2  UNL     1      27.821   6.247  48.064  1.00  0.00    -0.062 A 
HETATM   29  C1  UNL     1      28.917   6.993  47.372  1.00  0.00     0.048 C 
HETATM   30  C23 UNL     1      27.974   4.954  48.551  1.00  0.00     0.007 A 
HETATM   31  C22 UNL     1      26.921   4.311  49.187  1.00  0.00     0.017 A 
ENDBRANCH  22  25
ENDBRANCH   1  21
TORSDOF 5
ENDMDL
MODEL 2
REMARK VINA RESULT:      -9.4      0.661      1.100
REMARK  5 active torsions:
REMARK  status: ('A' for Active; 'I' for Inactive)
REMARK    1  A    between atoms: C5_5  and  C6_6 
REMARK       I    between atoms: C6_6  and  N1_8 
REMARK    2  A    between atoms: N1_8  and  C7_9 
REMARK    3  A    between atoms: C11_13  and  N2_14 
REMARK    4  A    between atoms: N2_14  and  C12_15 
REMARK    5  A    between atoms: C15_19  and  C16_20 
ROOT
HETATM    1  C7  UNL     1      22.611   3.932  49.971  1.00  0.00     0.047 C 
HETATM    2  C8  UNL     1      21.553   4.608  50.361  1.00  0.00    -0.001 C 
HETATM    3  C9  UNL     1      21.241   4.392  51.630  1.00  0.00    -0.006 C 
HETATM    4  C10 UNL     1      21.220   3.002  52.199  1.00  0.00     0.086 C 
HETATM    5  C11 UNL     1      21.885   2.071  51.249  1.00  0.00     0.032 C 
HETATM    6  C21 UNL     1      22.560   2.490  50.170  1.00  0.00     0.056 C 
ENDROOT
BRANCH   5   7
HETATM    7  N2  UNL     1      21.801   0.695  51.495  1.00  0.00    -0.192 N 
HETATM    8  H10 UNL     1      21.299   0.166  50.760  1.00  0.00     0.184 HD
BRANCH   7   9
HETATM    9  C12 UNL     1      22.349   0.064  52.646  1.00  0.00     0.727 A 
HETATM   10  N3  UNL     1      21.544  -0.547  53.523  1.00  0.00    -0.075 NA
HETATM   11  C13 UNL     1      22.104  -1.138  54.607  1.00  0.00     0.139 A 
HETATM   12  C14 UNL     1      23.487  -1.098  54.787  1.00  0.00     0.053 A 
HETATM   13  C15 UNL     1      24.298  -0.465  53.871  1.00  0.00     0.089 A 
HETATM   14  N5  UNL     1      23.694   0.106  52.815  1.00  0.00    -0.062 NA
BRANCH  13  15
HETATM   15  C16 UNL     1      25.745  -0.369  53.970  1.00  0.00     0.011 A 
HETATM   16  C17 UNL     1      26.496  -1.062  53.048  1.00  0.00     0.017 A 
HETATM   17  C18 UNL     1      27.892  -1.027  53.070  1.00  0.00     0.020 A 
HETATM   18  C19 UNL     1      28.477  -0.266  54.060  1.00  0.00     0.116 A 
HETATM   19  N4  UNL     1      27.755   0.415  54.966  1.00  0.00    -0.272 NA
HETATM   20  C20 UNL     1      26.393   0.372  54.935  1.00  0.00     0.130 A 
ENDBRANCH  13  15
ENDBRANCH   7   9
ENDBRANCH   5   7
BRANCH   1  21
HETATM   21  N1  UNL     1      23.724   4.591  49.388  1.00  0.00    -0.322 N 
HETATM   22  C6  UNL     1      25.072   4.586  49.770  1.00  0.00     0.256 C 
HETATM   23  O1  UNL     1      25.376   3.905  50.776  1.00  0.00    -0.267 OA
HETATM   24  H6  UNL     1      23.533   5.187  48.530  1.00  0.00     0.169 HD
BRANCH  22  25
HETATM   25  C5  UNL     1      26.146   5.304  49.096  1.00  0.00     0.032 A 
HETATM   26  C4  UNL     1      27.363   4.665  48.980  1.00  0.00     0.017 A 
HETATM   27  C3  UNL     1      28.463   5.262  48.350  1.00  0.00     0.007 A 
HETATM   28  C2  UNL     1      28.340   6.532  47.823  1.00  0.00    -0.062 A 
HETATM   29  C1  UNL     1      29.534   7.139  47.157  1.00  0.00     0.048 C 
HETATM   30  C23 UNL     1      27.118   7.186  47.933  1.00  0.00     0.007 A 
HETATM   31  C22 UNL     1      26.045   6.571  48.562  1.00  0.00     0.017 A 
ENDBRANCH  22  25
ENDBRANCH   1  21
TORSDOF 5
ENDMDL
MODEL 3
REMARK VINA RESULT:      -9.2      2.513      5.170
REMARK  5 active torsions:
REMARK  status: ('A' for Active; 'I' for Inactive)
REMARK    1  A    between atoms: C5_5  and  C6_6 
REMARK       I    between atoms: C6_6  and  N1_8 
REMARK    2  A    between atoms: N1_8  and  C7_9 
REMARK    3  A    between atoms: C11_13  and  N2_14 
REMARK    4  A    between atoms: N2_14  and  C12_15 
REMARK    5  A    between atoms: C15_19  and  C16_20 
ROOT
HETATM    1  C7  UNL     1      24.372   3.775  50.685  1.00  0.00     0.047 C 
HETATM    2  C8  UNL     1      24.506   5.081  50.632  1.00  0.00    -0.001 C 
HETATM    3  C9  UNL     1      23.559   5.726  51.296  1.00  0.00    -0.006 C 
HETATM    4  C10 UNL     1      22.114   5.337  51.161  1.00  0.00     0.086 C 
HETATM    5  C11 UNL     1      22.021   4.016  50.486  1.00  0.00     0.032 C 
HETATM    6  C21 UNL     1      23.089   3.244  50.244  1.00  0.00     0.056 C 
ENDROOT
BRANCH   5   7
HETATM    7  N2  UNL     1      20.759   3.559  50.085  1.00  0.00    -0.192 N 
HETATM    8  H10 UNL     1      20.281   4.181  49.409  1.00  0.00     0.184 HD
BRANCH   7   9
HETATM    9  C12 UNL     1      20.171   2.352  50.555  1.00  0.00     0.727 A 
HETATM   10  N3  UNL     1      19.007   1.932  50.047  1.00  0.00    -0.075 NA
HETATM   11  C13 UNL     1      18.478   0.776  50.519  1.00  0.00     0.139 A 
HETATM   12  C14 UNL     1      19.146   0.058  51.511  1.00  0.00     0.053 A 
HETATM   13  C15 UNL     1      20.344   0.508  52.020  1.00  0.00     0.089 A 
HETATM   14  N5  UNL     1      20.825   1.659  51.519  1.00  0.00    -0.062 NA
BRANCH  13  15
HETATM   15  C16 UNL     1      21.113  -0.167  53.052  1.00  0.00     0.011 A 
HETATM   16  C17 UNL     1      22.469   0.066  53.095  1.00  0.00     0.017 A 
HETATM   17  C18 UNL     1      23.284  -0.542  54.053  1.00  0.00     0.020 A 
HETATM   18  C19 UNL     1      22.662  -1.385  54.950  1.00  0.00     0.116 A 
HETATM   19  N4  UNL     1      21.339  -1.621  54.918  1.00  0.00    -0.272 NA
HETATM   20  C20 UNL     1      20.554  -1.022  53.978  1.00  0.00     0.130 A 
ENDBRANCH  13  15
ENDBRANCH   7   9
ENDBRANCH   5   7
BRANCH   1  21
HETATM   21  N1  UNL     1      25.430   2.951  51.146  1.00  0.00    -0.322 N 
HETATM   22  C6  UNL     1      25.679   2.439  52.426  1.00  0.00     0.256 C 
HETATM   23  O1  UNL     1      24.860   2.735  53.326  1.00  0.00    -0.267 OA
HETATM   24  H6  UNL     1      26.160   2.664  50.430  1.00  0.00     0.169 HD
BRANCH  22  25
HETATM   25  C5  UNL     1      26.806   1.593  52.796  1.00  0.00     0.032 A 
HETATM   26  C4  UNL     1      26.682   0.236  52.577  1.00  0.00     0.017 A 
HETATM   27  C3  UNL     1      27.704  -0.668  52.895  1.00  0.00     0.007 A 
HETATM   28  C2  UNL     1      28.880  -0.201  53.446  1.00  0.00    -0.062 A 
HETATM   29  C1  UNL     1      29.951  -1.194  53.773  1.00  0.00     0.048 C 
HETATM   30  C23 UNL     1      29.017   1.164  53.671  1.00  0.00     0.007 A 
HETATM   31  C22 UNL     1      27.989   2.038  53.346  1.00  0.00     0.017 A 
ENDBRANCH  22  25
ENDBRANCH   1  21
TORSDOF 5
ENDMDL
MODEL 4
REMARK VINA RESULT:      -9.1      3.433      5.542
REMARK  5 active torsions:
REMARK  status: ('A' for Active; 'I' for Inactive)
REMARK    1  A    between atoms: C5_5  and  C6_6 
REMARK       I    between atoms: C6_6  and  N1_8 
REMARK    2  A    between atoms: N1_8  and  C7_9 
REMARK    3  A    between atoms: C11_13  and  N2_14 
REMARK    4  A    between atoms: N2_14  and  C12_15 
REMARK    5  A    between atoms: C15_19  and  C16_20 
ROOT
HETATM    1  C7  UNL     1      27.927   6.035  48.506  1.00  0.00     0.047 C 
HETATM    2  C8  UNL     1      26.989   6.899  48.186  1.00  0.00    -0.001 C 
HETATM    3  C9  UNL     1      26.034   6.987  49.099  1.00  0.00    -0.006 C 
HETATM    4  C10 UNL     1      25.431   5.755  49.712  1.00  0.00     0.086 C 
HETATM    5  C11 UNL     1      26.274   4.576  49.380  1.00  0.00     0.032 C 
HETATM    6  C21 UNL     1      27.477   4.682  48.800  1.00  0.00     0.056 C 
ENDROOT
BRANCH   5   7
HETATM    7  N2  UNL     1      25.787   3.300  49.688  1.00  0.00    -0.192 N 
HETATM    8  H10 UNL     1      25.498   2.749  48.860  1.00  0.00     0.184 HD
BRANCH   7   9
HETATM    9  C12 UNL     1      25.691   2.790  51.012  1.00  0.00     0.727 A 
HETATM   10  N3  UNL     1      24.724   3.225  51.829  1.00  0.00    -0.075 NA
HETATM   11  C13 UNL     1      24.663   2.715  53.083  1.00  0.00     0.139 A 
HETATM   12  C14 UNL     1      25.596   1.763  53.495  1.00  0.00     0.053 A 
HETATM   13  C15 UNL     1      26.583   1.329  52.638  1.00  0.00     0.089 A 
HETATM   14  N5  UNL     1      26.600   1.865  51.406  1.00  0.00    -0.062 NA
BRANCH  13  15
HETATM   15  C16 UNL     1      27.598   0.343  52.973  1.00  0.00     0.011 A 
HETATM   16  C17 UNL     1      28.851   0.804  53.310  1.00  0.00     0.017 A 
HETATM   17  C18 UNL     1      29.885  -0.073  53.645  1.00  0.00     0.020 A 
HETATM   18  C19 UNL     1      29.588  -1.419  53.620  1.00  0.00     0.116 A 
HETATM   19  N4  UNL     1      28.369  -1.881  53.292  1.00  0.00    -0.272 NA
HETATM   20  C20 UNL     1      27.368  -1.016  52.967  1.00  0.00     0.130 A 
ENDBRANCH  13  15
ENDBRANCH   7   9
ENDBRANCH   5   7
BRANCH   1  21
HETATM   21  N1  UNL     1      29.291   6.422  48.551  1.00  0.00    -0.322 N 
HETATM   22  C6  UNL     1      30.436   5.727  48.139  1.00  0.00     0.256 C 
HETATM   23  O1  UNL     1      30.264   4.586  47.651  1.00  0.00    -0.267 OA
HETATM   24  H6  UNL     1      29.505   7.380  48.955  1.00  0.00     0.169 HD
BRANCH  22  25
HETATM   25  C5  UNL     1      31.804   6.219  48.229  1.00  0.00     0.032 A 
HETATM   26  C4  UNL     1      32.004   7.576  48.074  1.00  0.00     0.017 A 
HETATM   27  C3  UNL     1      33.277   8.156  48.143  1.00  0.00     0.007 A 
HETATM   28  C2  UNL     1      34.379   7.357  48.373  1.00  0.00    -0.062 A 
HETATM   29  C1  UNL     1      35.724   8.009  48.442  1.00  0.00     0.048 C 
HETATM   30  C23 UNL     1      34.190   5.989  48.532  1.00  0.00     0.007 A 
HETATM   31  C22 UNL     1      32.918   5.440  48.459  1.00  0.00     0.017 A 
ENDBRANCH  22  25
ENDBRANCH   1  21
TORSDOF 5
ENDMDL
MODEL 5
REMARK VINA RESULT:      -8.9      1.956      3.032
REMARK  5 active torsions:
REMARK  status: ('A' for Active; 'I' for Inactive)
REMARK    1  A    between atoms: C5_5  and  C6_6 
REMARK       I    between atoms: C6_6  and  N1_8 
REMARK    2  A    between atoms: N1_8  and  C7_9 
REMARK    3  A    between atoms: C11_13  and  N2_14 
REMARK    4  A    between atoms: N2_14  and  C12_15 
REMARK    5  A    between atoms: C15_19  and  C16_20 
ROOT
HETATM    1  C7  UNL     1      24.814   4.797  49.527  1.00  0.00     0.047 C 
HETATM    2  C8  UNL     1      23.690   4.618  48.870  1.00  0.00    -0.001 C 
HETATM    3  C9  UNL     1      22.622   4.983  49.563  1.00  0.00    -0.006 C 
HETATM    4  C10 UNL     1      22.460   4.591  51.004  1.00  0.00     0.086 C 
HETATM    5  C11 UNL     1      23.754   4.073  51.522  1.00  0.00     0.032 C 
HETATM    6  C21 UNL     1      24.900   4.159  50.834  1.00  0.00     0.056 C 
ENDROOT
BRANCH   5   7
HETATM    7  N2  UNL     1      23.773   3.470  52.786  1.00  0.00    -0.192 N 
HETATM    8  H10 UNL     1      23.679   4.138  53.572  1.00  0.00     0.184 HD
BRANCH   7   9
HETATM    9  C12 UNL     1      23.908   2.069  52.990  1.00  0.00     0.727 A 
HETATM   10  N3  UNL     1      22.821   1.290  53.031  1.00  0.00    -0.075 NA
HETATM   11  C13 UNL     1      22.990  -0.041  53.225  1.00  0.00     0.139 A 
HETATM   12  C14 UNL     1      24.273  -0.566  53.378  1.00  0.00     0.053 A 
HETATM   13  C15 UNL     1      25.379   0.253  53.331  1.00  0.00     0.089 A 
HETATM   14  N5  UNL     1      25.158   1.565  53.137  1.00  0.00    -0.062 NA
BRANCH  13  15
HETATM   15  C16 UNL     1      26.753  -0.198  53.479  1.00  0.00     0.011 A 
HETATM   16  C17 UNL     1      27.647   0.660  54.081  1.00  0.00     0.017 A 
HETATM   17  C18 UNL     1      28.986   0.307  54.262  1.00  0.00     0.020 A 
HETATM   18  C19 UNL     1      29.366  -0.939  53.809  1.00  0.00     0.116 A 
HETATM   19  N4  UNL     1      28.503  -1.784  53.221  1.00  0.00    -0.272 NA
HETATM   20  C20 UNL     1      27.198  -1.429  53.048  1.00  0.00     0.130 A 
ENDBRANCH  13  15
ENDBRANCH   7   9
ENDBRANCH   5   7
BRANCH   1  21
HETATM   21  N1  UNL     1      25.868   5.567  48.974  1.00  0.00    -0.322 N 
HETATM   22  C6  UNL     1      27.191   5.204  48.686  1.00  0.00     0.256 C 
HETATM   23  O1  UNL     1      27.527   4.025  48.944  1.00  0.00    -0.267 OA
HETATM   24  H6  UNL     1      25.649   6.577  48.732  1.00  0.00     0.169 HD
BRANCH  22  25
HETATM   25  C5  UNL     1      28.203   6.080  48.112  1.00  0.00     0.032 A 
HETATM   26  C4  UNL     1      29.509   5.631  48.115  1.00  0.00     0.017 A 
HETATM   27  C3  UNL     1      30.561   6.392  47.588  1.00  0.00     0.007 A 
HETATM   28  C2  UNL     1      30.299   7.633  47.044  1.00  0.00    -0.062 A 
HETATM   29  C1  UNL     1      31.446   8.418  46.490  1.00  0.00     0.048 C 
HETATM   30  C23 UNL     1      28.988   8.096  47.034  1.00  0.00     0.007 A 
HETATM   31  C22 UNL     1      27.964   7.321  47.563  1.00  0.00     0.017 A 
ENDBRANCH  22  25
ENDBRANCH   1  21
TORSDOF 5
ENDMDL
MODEL 6
REMARK VINA RESULT:      -8.9      2.673      7.509
REMARK  5 active torsions:
REMARK  status: ('A' for Active; 'I' for Inactive)
REMARK    1  A    between atoms: C5_5  and  C6_6 
REMARK       I    between atoms: C6_6  and  N1_8 
REMARK    2  A    between atoms: N1_8  and  C7_9 
REMARK    3  A    between atoms: C11_13  and  N2_14 
REMARK    4  A    between atoms: N2_14  and  C12_15 
REMARK    5  A    between atoms: C15_19  and  C16_20 
ROOT
HETATM    1  C7  UNL     1      23.553   3.667  52.692  1.00  0.00     0.047 C 
HETATM    2  C8  UNL     1      22.352   3.136  52.620  1.00  0.00    -0.001 C 
HETATM    3  C9  UNL     1      21.760   3.354  51.455  1.00  0.00    -0.006 C 
HETATM    4  C10 UNL     1      21.775   4.715  50.819  1.00  0.00     0.086 C 
HETATM    5  C11 UNL     1      22.774   5.572  51.512  1.00  0.00     0.032 C 
HETATM    6  C21 UNL     1      23.640   5.094  52.416  1.00  0.00     0.056 C 
ENDROOT
BRANCH   5   7
HETATM    7  N2  UNL     1      22.809   6.938  51.204  1.00  0.00    -0.192 N 
HETATM    8  H10 UNL     1      22.210   7.521  51.815  1.00  0.00     0.184 HD
BRANCH   7   9
HETATM    9  C12 UNL     1      23.591   7.489  50.152  1.00  0.00     0.727 A 
HETATM   10  N3  UNL     1      23.146   8.554  49.474  1.00  0.00    -0.075 NA
HETATM   11  C13 UNL     1      23.920   9.052  48.479  1.00  0.00     0.139 A 
HETATM   12  C14 UNL     1      25.146   8.455  48.183  1.00  0.00     0.053 A 
HETATM   13  C15 UNL     1      25.585   7.361  48.894  1.00  0.00     0.089 A 
HETATM   14  N5  UNL     1      24.781   6.905  49.870  1.00  0.00    -0.062 NA
BRANCH  13  15
HETATM   15  C16 UNL     1      26.843   6.671  48.661  1.00  0.00     0.011 A 
HETATM   16  C17 UNL     1      27.923   7.426  48.262  1.00  0.00     0.017 A 
HETATM   17  C18 UNL     1      29.169   6.845  48.015  1.00  0.00     0.020 A 
HETATM   18  C19 UNL     1      29.262   5.480  48.192  1.00  0.00     0.116 A 
HETATM   19  N4  UNL     1      28.215   4.732  48.581  1.00  0.00    -0.272 NA
HETATM   20  C20 UNL     1      27.004   5.311  48.818  1.00  0.00     0.130 A 
ENDBRANCH  13  15
ENDBRANCH   7   9
ENDBRANCH   5   7
BRANCH   1  21
HETATM   21  N1  UNL     1      24.682   2.875  53.024  1.00  0.00    -0.322 N 
HETATM   22  C6  UNL     1      25.635   2.274  52.190  1.00  0.00     0.256 C 
HETATM   23  O1  UNL     1      25.498   2.442  50.956  1.00  0.00    -0.267 OA
HETATM   24  H6  UNL     1      24.854   2.695  54.056  1.00  0.00     0.169 HD
BRANCH  22  25
HETATM   25  C5  UNL     1      26.767   1.474  52.637  1.00  0.00     0.032 A 
HETATM   26  C4  UNL     1      26.682   0.106  52.479  1.00  0.00     0.017 A 
HETATM   27  C3  UNL     1      27.713  -0.757  52.873  1.00  0.00     0.007 A 
HETATM   28  C2  UNL     1      28.858  -0.236  53.441  1.00  0.00    -0.062 A 
HETATM   29  C1  UNL     1      29.939  -1.186  53.850  1.00  0.00     0.048 C 
HETATM   30  C23 UNL     1      28.956   1.141  53.606  1.00  0.00     0.007 A 
HETATM   31  C22 UNL     1      27.920   1.973  53.206  1.00  0.00     0.017 A 
ENDBRANCH  22  25
ENDBRANCH   1  21
TORSDOF 5
ENDMDL
MODEL 7
REMARK VINA RESULT:      -8.7      2.145      6.952
REMARK  5 active torsions:
REMARK  status: ('A' for Active; 'I' for Inactive)
REMARK    1  A    between atoms: C5_5  and  C6_6 
REMARK       I    between atoms: C6_6  and  N1_8 
REMARK    2  A    between atoms: N1_8  and  C7_9 
REMARK    3  A    between atoms: C11_13  and  N2_14 
REMARK    4  A    between atoms: N2_14  and  C12_15 
REMARK    5  A    between atoms: C15_19  and  C16_20 
ROOT
HETATM    1  C7  UNL     1      22.809   1.252  52.083  1.00  0.00     0.047 C 
HETATM    2  C8  UNL     1      21.842   0.392  51.852  1.00  0.00    -0.001 C 
HETATM    3  C9  UNL     1      21.163   0.662  50.748  1.00  0.00    -0.006 C 
HETATM    4  C10 UNL     1      20.711   2.060  50.437  1.00  0.00     0.086 C 
HETATM    5  C11 UNL     1      21.408   3.016  51.339  1.00  0.00     0.032 C 
HETATM    6  C21 UNL     1      22.419   2.654  52.141  1.00  0.00     0.056 C 
ENDROOT
BRANCH   5   7
HETATM    7  N2  UNL     1      20.987   4.351  51.350  1.00  0.00    -0.192 N 
HETATM    8  H10 UNL     1      20.057   4.496  51.781  1.00  0.00     0.184 HD
BRANCH   7   9
HETATM    9  C12 UNL     1      21.755   5.425  50.821  1.00  0.00     0.727 A 
HETATM   10  N3  UNL     1      21.237   6.657  50.767  1.00  0.00    -0.075 NA
HETATM   11  C13 UNL     1      22.001   7.655  50.257  1.00  0.00     0.139 A 
HETATM   12  C14 UNL     1      23.292   7.383  49.804  1.00  0.00     0.053 A 
HETATM   13  C15 UNL     1      23.807   6.107  49.870  1.00  0.00     0.089 A 
HETATM   14  N5  UNL     1      23.010   5.154  50.383  1.00  0.00    -0.062 NA
BRANCH  13  15
HETATM   15  C16 UNL     1      25.137   5.726  49.425  1.00  0.00     0.011 A 
HETATM   16  C17 UNL     1      25.557   4.442  49.692  1.00  0.00     0.017 A 
HETATM   17  C18 UNL     1      26.820   3.991  49.301  1.00  0.00     0.020 A 
HETATM   18  C19 UNL     1      27.622   4.895  48.637  1.00  0.00     0.116 A 
HETATM   19  N4  UNL     1      27.223   6.151  48.370  1.00  0.00    -0.272 NA
HETATM   20  C20 UNL     1      25.988   6.579  48.757  1.00  0.00     0.130 A 
ENDBRANCH  13  15
ENDBRANCH   7   9
ENDBRANCH   5   7
BRANCH   1  21
HETATM   21  N1  UNL     1      24.146   0.815  52.265  1.00  0.00    -0.322 N 
HETATM   22  C6  UNL     1      24.699   0.007  53.267  1.00  0.00     0.256 C 
HETATM   23  O1  UNL     1      23.920  -0.412  54.154  1.00  0.00    -0.267 OA
HETATM   24  H6  UNL     1      24.858   1.137  51.546  1.00  0.00     0.169 HD
BRANCH  22  25
HETATM   25  C5  UNL     1      26.098  -0.386  53.363  1.00  0.00     0.032 A 
HETATM   26  C4  UNL     1      26.905   0.334  54.220  1.00  0.00     0.017 A 
HETATM   27  C3  UNL     1      28.264   0.040  54.389  1.00  0.00     0.007 A 
HETATM   28  C2  UNL     1      28.831  -1.001  53.682  1.00  0.00    -0.062 A 
HETATM   29  C1  UNL     1      30.285  -1.286  53.887  1.00  0.00     0.048 C 
HETATM   30  C23 UNL     1      28.028  -1.734  52.815  1.00  0.00     0.007 A 
HETATM   31  C22 UNL     1      26.684  -1.422  52.667  1.00  0.00     0.017 A 
ENDBRANCH  22  25
ENDBRANCH   1  21
TORSDOF 5
ENDMDL
MODEL 8
REMARK VINA RESULT:      -8.5      2.734      4.807
REMARK  5 active torsions:
REMARK  status: ('A' for Active; 'I' for Inactive)
REMARK    1  A    between atoms: C5_5  and  C6_6 
REMARK       I    between atoms: C6_6  and  N1_8 
REMARK    2  A    between atoms: N1_8  and  C7_9 
REMARK    3  A    between atoms: C11_13  and  N2_14 
REMARK    4  A    between atoms: N2_14  and  C12_15 
REMARK    5  A    between atoms: C15_19  and  C16_20 
ROOT
HETATM    1  C7  UNL     1      26.241   6.773  49.033  1.00  0.00     0.047 C 
HETATM    2  C8  UNL     1      25.391   7.279  48.167  1.00  0.00    -0.001 C 
HETATM    3  C9  UNL     1      24.593   8.193  48.699  1.00  0.00    -0.006 C 
HETATM    4  C10 UNL     1      23.923   7.961  50.023  1.00  0.00     0.086 C 
HETATM    5  C11 UNL     1      24.546   6.789  50.693  1.00  0.00     0.032 C 
HETATM    6  C21 UNL     1      25.660   6.198  50.238  1.00  0.00     0.056 C 
ENDROOT
BRANCH   5   7
HETATM    7  N2  UNL     1      23.941   6.281  51.849  1.00  0.00    -0.192 N 
HETATM    8  H10 UNL     1      23.902   6.956  52.634  1.00  0.00     0.184 HD
BRANCH   7   9
HETATM    9  C12 UNL     1      23.421   4.962  51.954  1.00  0.00     0.727 A 
HETATM   10  N3  UNL     1      22.194   4.687  51.498  1.00  0.00    -0.075 NA
HETATM   11  C13 UNL     1      21.733   3.417  51.614  1.00  0.00     0.139 A 
HETATM   12  C14 UNL     1      22.535   2.435  52.198  1.00  0.00     0.053 A 
HETATM   13  C15 UNL     1      23.796   2.739  52.659  1.00  0.00     0.089 A 
HETATM   14  N5  UNL     1      24.205   4.012  52.522  1.00  0.00    -0.062 NA
BRANCH  13  15
HETATM   15  C16 UNL     1      24.703   1.789  53.281  1.00  0.00     0.011 A 
HETATM   16  C17 UNL     1      24.335   0.462  53.286  1.00  0.00     0.017 A 
HETATM   17  C18 UNL     1      25.146  -0.518  53.862  1.00  0.00     0.020 A 
HETATM   18  C19 UNL     1      26.330  -0.089  54.426  1.00  0.00     0.116 A 
HETATM   19  N4  UNL     1      26.700   1.203  54.428  1.00  0.00    -0.272 NA
HETATM   20  C20 UNL     1      25.900   2.150  53.862  1.00  0.00     0.130 A 
ENDBRANCH  13  15
ENDBRANCH   7   9
ENDBRANCH   5   7
BRANCH   1  21
HETATM   21  N1  UNL     1      27.637   6.793  48.783  1.00  0.00    -0.322 N 
HETATM   22  C6  UNL     1      28.516   5.738  48.505  1.00  0.00     0.256 C 
HETATM   23  O1  UNL     1      28.026   4.585  48.463  1.00  0.00    -0.267 OA
HETATM   24  H6  UNL     1      28.114   7.741  48.805  1.00  0.00     0.169 HD
BRANCH  22  25
HETATM   25  C5  UNL     1      29.945   5.868  48.261  1.00  0.00     0.032 A 
HETATM   26  C4  UNL     1      30.560   7.031  48.681  1.00  0.00     0.017 A 
HETATM   27  C3  UNL     1      31.929   7.260  48.497  1.00  0.00     0.007 A 
HETATM   28  C2  UNL     1      32.704   6.300  47.878  1.00  0.00    -0.062 A 
HETATM   29  C1  UNL     1      34.164   6.578  47.698  1.00  0.00     0.048 C 
HETATM   30  C23 UNL     1      32.097   5.125  47.451  1.00  0.00     0.007 A 
HETATM   31  C22 UNL     1      30.738   4.923  47.646  1.00  0.00     0.017 A 
ENDBRANCH  22  25
ENDBRANCH   1  21
TORSDOF 5
ENDMDL
MODEL 9
REMARK VINA RESULT:      -8.5      2.367      6.518
REMARK  5 active torsions:
REMARK  status: ('A' for Active; 'I' for Inactive)
REMARK    1  A    between atoms: C5_5  and  C6_6 
REMARK       I    between atoms: C6_6  and  N1_8 
REMARK    2  A    between atoms: N1_8  and  C7_9 
REMARK    3  A    between atoms: C11_13  and  N2_14 
REMARK    4  A    between atoms: N2_14  and  C12_15 
REMARK    5  A    between atoms: C15_19  and  C16_20 
ROOT
HETATM    1  C7  UNL     1      23.749   3.287  50.803  1.00  0.00     0.047 C 
HETATM    2  C8  UNL     1      23.956   4.160  49.842  1.00  0.00    -0.001 C 
HETATM    3  C9  UNL     1      24.963   3.826  49.048  1.00  0.00    -0.006 C 
HETATM    4  C10 UNL     1      26.268   3.340  49.612  1.00  0.00     0.086 C 
HETATM    5  C11 UNL     1      26.092   3.017  51.053  1.00  0.00     0.032 C 
HETATM    6  C21 UNL     1      24.893   2.985  51.651  1.00  0.00     0.056 C 
ENDROOT
BRANCH   5   7
HETATM    7  N2  UNL     1      27.231   2.734  51.817  1.00  0.00    -0.192 N 
HETATM    8  H10 UNL     1      28.051   3.322  51.584  1.00  0.00     0.184 HD
BRANCH   7   9
HETATM    9  C12 UNL     1      27.275   1.733  52.827  1.00  0.00     0.727 A 
HETATM   10  N3  UNL     1      28.440   1.413  53.402  1.00  0.00    -0.075 NA
HETATM   11  C13 UNL     1      28.442   0.455  54.362  1.00  0.00     0.139 A 
HETATM   12  C14 UNL     1      27.249  -0.170  54.725  1.00  0.00     0.053 A 
HETATM   13  C15 UNL     1      26.061   0.175  54.121  1.00  0.00     0.089 A 
HETATM   14  N5  UNL     1      26.113   1.130  53.176  1.00  0.00    -0.062 NA
BRANCH  13  15
HETATM   15  C16 UNL     1      24.770  -0.417  54.430  1.00  0.00     0.011 A 
HETATM   16  C17 UNL     1      23.758  -0.263  53.508  1.00  0.00     0.017 A 
HETATM   17  C18 UNL     1      22.486  -0.799  53.725  1.00  0.00     0.020 A 
HETATM   18  C19 UNL     1      22.297  -1.487  54.904  1.00  0.00     0.116 A 
HETATM   19  N4  UNL     1      23.276  -1.645  55.811  1.00  0.00    -0.272 NA
HETATM   20  C20 UNL     1      24.513  -1.117  55.589  1.00  0.00     0.130 A 
ENDBRANCH  13  15
ENDBRANCH   7   9
ENDBRANCH   5   7
BRANCH   1  21
HETATM   21  N1  UNL     1      22.474   2.692  50.985  1.00  0.00    -0.322 N 
HETATM   22  C6  UNL     1      21.745   1.851  50.134  1.00  0.00     0.256 C 
HETATM   23  O1  UNL     1      22.271   1.560  49.034  1.00  0.00    -0.267 OA
HETATM   24  H6  UNL     1      21.974   2.900  51.898  1.00  0.00     0.169 HD
BRANCH  22  25
HETATM   25  C5  UNL     1      20.433   1.288  50.420  1.00  0.00     0.032 A 
HETATM   26  C4  UNL     1      20.308   0.506  51.550  1.00  0.00     0.017 A 
HETATM   27  C3  UNL     1      19.092  -0.084  51.919  1.00  0.00     0.007 A 
HETATM   28  C2  UNL     1      17.972   0.115  51.137  1.00  0.00    -0.062 A 
HETATM   29  C1  UNL     1      16.690  -0.529  51.562  1.00  0.00     0.048 C 
HETATM   30  C23 UNL     1      18.085   0.901  49.996  1.00  0.00     0.007 A 
HETATM   31  C22 UNL     1      19.302   1.474  49.653  1.00  0.00     0.017 A 
ENDBRANCH  22  25
ENDBRANCH   1  21
TORSDOF 5
ENDMDL
