MODEL 1
REMARK VINA RESULT:      -7.2      0.000      0.000
REMARK  5 active torsions:
REMARK  status: ('A' for Active; 'I' for Inactive)
REMARK    1  A    between atoms: O1_2  and  C2_3 
REMARK    2  A    between atoms: C5_6  and  N1_7 
REMARK    3  A    between atoms: N1_7  and  C6_8 
REMARK    4  A    between atoms: C9_11  and  C10_12 
REMARK    5  A    between atoms: C14_19  and  O2_20 
ROOT
HETATM    1  C2  UNL     1      22.632   0.069  53.302  1.00  0.00     0.102 A 
HETATM    2  C3  UNL     1      23.863  -0.438  53.330  1.00  0.00     0.054 A 
HETATM    3  C4  UNL     1      24.868   0.366  52.647  1.00  0.00     0.012 A 
HETATM    4  C5  UNL     1      26.116  -0.068  52.632  1.00  0.00     0.102 C 
HETATM    5  C11 UNL     1      24.588   1.629  51.975  1.00  0.00     0.083 A 
HETATM    6  N2  UNL     1      25.559   2.271  51.393  1.00  0.00    -0.173 NA
HETATM    7  C12 UNL     1      25.382   3.473  50.733  1.00  0.00     0.206 C 
HETATM    8  N3  UNL     1      25.233   4.479  50.176  1.00  0.00    -0.170 NA
HETATM    9  C13 UNL     1      23.188   2.084  52.012  1.00  0.00     0.073 A 
HETATM   10  C14 UNL     1      22.304   1.327  52.641  1.00  0.00     0.103 A 
ENDROOT
BRANCH   4  11
HETATM   11  N1  UNL     1      26.539  -1.277  53.242  1.00  0.00    -0.365 N 
HETATM   12  H6  UNL     1      26.149  -2.143  53.641  1.00  0.00     0.165 HD
BRANCH  11  13
HETATM   13  C6  UNL     1      27.962  -1.332  53.346  1.00  0.00     0.039 A 
HETATM   14  C7  UNL     1      29.053  -2.041  53.019  1.00  0.00     0.030 A 
HETATM   15  C8  UNL     1      29.974  -1.111  53.676  1.00  0.00     0.012 A 
HETATM   16  C9  UNL     1      28.902  -0.412  54.000  1.00  0.00    -0.021 A 
BRANCH  16  17
HETATM   17  C10 UNL     1      28.839   0.872  54.779  1.00  0.00     0.126 C 
HETATM   18 BR1  UNL     1      28.636   2.327  53.541  1.00  0.00    -0.091 Br
ENDBRANCH  16  17
ENDBRANCH  11  13
ENDBRANCH   4  11
BRANCH  10  19
HETATM   19  O2  UNL     1      21.012   1.849  52.616  1.00  0.00    -0.353 OA
HETATM   20  C15 UNL     1      20.898   3.223  52.279  1.00  0.00     0.210 C 
ENDBRANCH  10  19
BRANCH   1  21
HETATM   21  O1  UNL     1      21.634  -0.659  53.939  1.00  0.00    -0.353 OA
HETATM   22  C1  UNL     1      21.867  -1.717  54.819  1.00  0.00     0.210 C 
ENDBRANCH   1  21
TORSDOF 5
ENDMDL
MODEL 2
REMARK VINA RESULT:      -7.0      3.052      6.432
REMARK  5 active torsions:
REMARK  status: ('A' for Active; 'I' for Inactive)
REMARK    1  A    between atoms: O1_2  and  C2_3 
REMARK    2  A    between atoms: C5_6  and  N1_7 
REMARK    3  A    between atoms: N1_7  and  C6_8 
REMARK    4  A    between atoms: C9_11  and  C10_12 
REMARK    5  A    between atoms: C14_19  and  O2_20 
ROOT
HETATM    1  C2  UNL     1      26.239   1.165  52.824  1.00  0.00     0.102 A 
HETATM    2  C3  UNL     1      25.334   2.083  52.490  1.00  0.00     0.054 A 
HETATM    3  C4  UNL     1      23.958   1.725  52.806  1.00  0.00     0.012 A 
HETATM    4  C5  UNL     1      23.000   2.584  52.507  1.00  0.00     0.102 C 
HETATM    5  C11 UNL     1      23.563   0.472  53.438  1.00  0.00     0.083 A 
HETATM    6  N2  UNL     1      22.303   0.248  53.678  1.00  0.00    -0.173 NA
HETATM    7  C12 UNL     1      21.841  -0.912  54.273  1.00  0.00     0.206 C 
HETATM    8  N3  UNL     1      21.453  -1.886  54.767  1.00  0.00    -0.170 NA
HETATM    9  C13 UNL     1      24.654  -0.463  53.759  1.00  0.00     0.073 A 
HETATM   10  C14 UNL     1      25.890  -0.103  53.457  1.00  0.00     0.103 A 
ENDROOT
BRANCH   4  11
HETATM   11  N1  UNL     1      23.231   3.841  51.891  1.00  0.00    -0.365 N 
HETATM   12  H6  UNL     1      23.505   4.804  52.134  1.00  0.00     0.165 HD
BRANCH  11  13
HETATM   13  C6  UNL     1      23.021   3.772  50.481  1.00  0.00     0.039 A 
HETATM   14  C7  UNL     1      22.199   3.319  49.521  1.00  0.00     0.030 A 
HETATM   15  C8  UNL     1      23.019   3.851  48.431  1.00  0.00     0.012 A 
HETATM   16  C9  UNL     1      23.830   4.297  49.373  1.00  0.00    -0.021 A 
BRANCH  16  17
HETATM   17  C10 UNL     1      25.109   5.066  49.200  1.00  0.00     0.126 C 
HETATM   18 BR1  UNL     1      26.585   3.871  49.490  1.00  0.00    -0.091 Br
ENDBRANCH  16  17
ENDBRANCH  11  13
ENDBRANCH   4  11
BRANCH  10  19
HETATM   19  O2  UNL     1      26.845  -1.058  53.802  1.00  0.00    -0.353 OA
HETATM   20  C15 UNL     1      27.167  -2.012  52.802  1.00  0.00     0.210 C 
ENDBRANCH  10  19
BRANCH   1  21
HETATM   21  O1  UNL     1      27.569   1.456  52.544  1.00  0.00    -0.353 OA
HETATM   22  C1  UNL     1      28.405   2.205  53.372  1.00  0.00     0.210 C 
ENDBRANCH   1  21
TORSDOF 5
ENDMDL
MODEL 3
REMARK VINA RESULT:      -6.8      2.226      4.016
REMARK  5 active torsions:
REMARK  status: ('A' for Active; 'I' for Inactive)
REMARK    1  A    between atoms: O1_2  and  C2_3 
REMARK    2  A    between atoms: C5_6  and  N1_7 
REMARK    3  A    between atoms: N1_7  and  C6_8 
REMARK    4  A    between atoms: C9_11  and  C10_12 
REMARK    5  A    between atoms: C14_19  and  O2_20 
ROOT
HETATM    1  C2  UNL     1      23.360   2.761  51.474  1.00  0.00     0.102 A 
HETATM    2  C3  UNL     1      24.529   2.124  51.538  1.00  0.00     0.054 A 
HETATM    3  C4  UNL     1      24.520   0.917  52.353  1.00  0.00     0.012 A 
HETATM    4  C5  UNL     1      25.641   0.227  52.467  1.00  0.00     0.102 C 
HETATM    5  C11 UNL     1      23.347   0.413  53.057  1.00  0.00     0.083 A 
HETATM    6  N2  UNL     1      23.445  -0.678  53.761  1.00  0.00    -0.173 NA
HETATM    7  C12 UNL     1      22.384  -1.225  54.460  1.00  0.00     0.206 C 
HETATM    8  N3  UNL     1      21.497  -1.681  55.049  1.00  0.00    -0.170 NA
HETATM    9  C13 UNL     1      22.114   1.205  52.910  1.00  0.00     0.073 A 
HETATM   10  C14 UNL     1      22.161   2.295  52.162  1.00  0.00     0.103 A 
ENDROOT
BRANCH   4  11
HETATM   11  N1  UNL     1      26.860   0.593  51.840  1.00  0.00    -0.365 N 
HETATM   12  H6  UNL     1      27.356   0.482  50.944  1.00  0.00     0.165 HD
BRANCH  11  13
HETATM   13  C6  UNL     1      27.679   1.367  52.718  1.00  0.00     0.039 A 
HETATM   14  C7  UNL     1      28.126   2.603  52.985  1.00  0.00     0.030 A 
HETATM   15  C8  UNL     1      28.918   2.173  54.139  1.00  0.00     0.012 A 
HETATM   16  C9  UNL     1      28.480   0.955  53.878  1.00  0.00    -0.021 A 
BRANCH  16  17
HETATM   17  C10 UNL     1      28.792  -0.315  54.618  1.00  0.00     0.126 C 
HETATM   18 BR1  UNL     1      29.535  -1.579  53.376  1.00  0.00    -0.091 Br
ENDBRANCH  16  17
ENDBRANCH  11  13
ENDBRANCH   4  11
BRANCH  10  19
HETATM   19  O2  UNL     1      20.943   2.968  52.089  1.00  0.00    -0.353 OA
HETATM   20  C15 UNL     1      19.777   2.171  52.232  1.00  0.00     0.210 C 
ENDBRANCH  10  19
BRANCH   1  21
HETATM   21  O1  UNL     1      23.313   3.920  50.709  1.00  0.00    -0.353 OA
HETATM   22  C1  UNL     1      23.022   3.955  49.345  1.00  0.00     0.210 C 
ENDBRANCH   1  21
TORSDOF 5
ENDMDL
MODEL 4
REMARK VINA RESULT:      -6.8      3.232      6.461
REMARK  5 active torsions:
REMARK  status: ('A' for Active; 'I' for Inactive)
REMARK    1  A    between atoms: O1_2  and  C2_3 
REMARK    2  A    between atoms: C5_6  and  N1_7 
REMARK    3  A    between atoms: N1_7  and  C6_8 
REMARK    4  A    between atoms: C9_11  and  C10_12 
REMARK    5  A    between atoms: C14_19  and  O2_20 
ROOT
HETATM    1  C2  UNL     1      26.787   0.953  53.066  1.00  0.00     0.102 A 
HETATM    2  C3  UNL     1      26.041   2.035  52.845  1.00  0.00     0.054 A 
HETATM    3  C4  UNL     1      24.607   1.824  52.984  1.00  0.00     0.012 A 
HETATM    4  C5  UNL     1      23.799   2.849  52.782  1.00  0.00     0.102 C 
HETATM    5  C11 UNL     1      23.997   0.547  53.337  1.00  0.00     0.083 A 
HETATM    6  N2  UNL     1      22.702   0.465  53.436  1.00  0.00    -0.173 NA
HETATM    7  C12 UNL     1      22.042  -0.706  53.765  1.00  0.00     0.206 C 
HETATM    8  N3  UNL     1      21.488  -1.687  54.036  1.00  0.00    -0.170 NA
HETATM    9  C13 UNL     1      24.926  -0.574  53.556  1.00  0.00     0.073 A 
HETATM   10  C14 UNL     1      26.221  -0.345  53.420  1.00  0.00     0.103 A 
ENDROOT
BRANCH   4  11
HETATM   11  N1  UNL     1      24.245   4.150  52.434  1.00  0.00    -0.365 N 
HETATM   12  H6  UNL     1      24.548   5.029  52.877  1.00  0.00     0.165 HD
BRANCH  11  13
HETATM   13  C6  UNL     1      24.299   4.315  51.016  1.00  0.00     0.039 A 
HETATM   14  C7  UNL     1      25.067   4.721  49.994  1.00  0.00     0.030 A 
HETATM   15  C8  UNL     1      24.050   4.424  48.983  1.00  0.00     0.012 A 
HETATM   16  C9  UNL     1      23.292   4.024  49.987  1.00  0.00    -0.021 A 
BRANCH  16  17
HETATM   17  C10 UNL     1      21.893   3.480  49.926  1.00  0.00     0.126 C 
HETATM   18 BR1  UNL     1      21.986   1.564  49.817  1.00  0.00    -0.091 Br
ENDBRANCH  16  17
ENDBRANCH  11  13
ENDBRANCH   4  11
BRANCH  10  19
HETATM   19  O2  UNL     1      27.010  -1.471  53.650  1.00  0.00    -0.353 OA
HETATM   20  C15 UNL     1      27.200  -2.338  52.542  1.00  0.00     0.210 C 
ENDBRANCH  10  19
BRANCH   1  21
HETATM   21  O1  UNL     1      28.164   1.099  52.946  1.00  0.00    -0.353 OA
HETATM   22  C1  UNL     1      29.020   1.419  54.000  1.00  0.00     0.210 C 
ENDBRANCH   1  21
TORSDOF 5
ENDMDL
MODEL 5
REMARK VINA RESULT:      -6.8      2.444      5.420
REMARK  5 active torsions:
REMARK  status: ('A' for Active; 'I' for Inactive)
REMARK    1  A    between atoms: O1_2  and  C2_3 
REMARK    2  A    between atoms: C5_6  and  N1_7 
REMARK    3  A    between atoms: N1_7  and  C6_8 
REMARK    4  A    between atoms: C9_11  and  C10_12 
REMARK    5  A    between atoms: C14_19  and  O2_20 
ROOT
HETATM    1  C2  UNL     1      22.280   0.520  51.866  1.00  0.00     0.102 A 
HETATM    2  C3  UNL     1      22.957   1.505  51.277  1.00  0.00     0.054 A 
HETATM    3  C4  UNL     1      24.318   1.684  51.765  1.00  0.00     0.012 A 
HETATM    4  C5  UNL     1      25.056   2.641  51.231  1.00  0.00     0.102 C 
HETATM    5  C11 UNL     1      24.927   0.871  52.810  1.00  0.00     0.083 A 
HETATM    6  N2  UNL     1      26.153   1.114  53.175  1.00  0.00    -0.173 NA
HETATM    7  C12 UNL     1      26.807   0.392  54.157  1.00  0.00     0.206 C 
HETATM    8  N3  UNL     1      27.353  -0.209  54.983  1.00  0.00    -0.170 NA
HETATM    9  C13 UNL     1      24.078  -0.187  53.384  1.00  0.00     0.073 A 
HETATM   10  C14 UNL     1      22.848  -0.319  52.916  1.00  0.00     0.103 A 
ENDROOT
BRANCH   4  11
HETATM   11  N1  UNL     1      24.601   3.511  50.206  1.00  0.00    -0.365 N 
HETATM   12  H6  UNL     1      23.726   3.814  49.754  1.00  0.00     0.165 HD
BRANCH  11  13
HETATM   13  C6  UNL     1      25.690   4.199  49.591  1.00  0.00     0.039 A 
HETATM   14  C7  UNL     1      26.981   4.103  49.240  1.00  0.00     0.030 A 
HETATM   15  C8  UNL     1      27.028   5.450  48.668  1.00  0.00     0.012 A 
HETATM   16  C9  UNL     1      25.757   5.548  49.014  1.00  0.00    -0.021 A 
BRANCH  16  17
HETATM   17  C10 UNL     1      24.834   6.716  48.811  1.00  0.00     0.126 C 
HETATM   18 BR1  UNL     1      24.487   7.525  50.519  1.00  0.00    -0.091 Br
ENDBRANCH  16  17
ENDBRANCH  11  13
ENDBRANCH   4  11
BRANCH  10  19
HETATM   19  O2  UNL     1      22.131  -1.348  53.525  1.00  0.00    -0.353 OA
HETATM   20  C15 UNL     1      21.544  -1.043  54.781  1.00  0.00     0.210 C 
ENDBRANCH  10  19
BRANCH   1  21
HETATM   21  O1  UNL     1      20.975   0.306  51.438  1.00  0.00    -0.353 OA
HETATM   22  C1  UNL     1      20.364   0.997  50.391  1.00  0.00     0.210 C 
ENDBRANCH   1  21
TORSDOF 5
ENDMDL
MODEL 6
REMARK VINA RESULT:      -6.6      3.138      6.012
REMARK  5 active torsions:
REMARK  status: ('A' for Active; 'I' for Inactive)
REMARK    1  A    between atoms: O1_2  and  C2_3 
REMARK    2  A    between atoms: C5_6  and  N1_7 
REMARK    3  A    between atoms: N1_7  and  C6_8 
REMARK    4  A    between atoms: C9_11  and  C10_12 
REMARK    5  A    between atoms: C14_19  and  O2_20 
ROOT
HETATM    1  C2  UNL     1      26.873   0.953  53.844  1.00  0.00     0.102 A 
HETATM    2  C3  UNL     1      26.935   1.818  52.833  1.00  0.00     0.054 A 
HETATM    3  C4  UNL     1      25.715   1.919  52.044  1.00  0.00     0.012 A 
HETATM    4  C5  UNL     1      25.694   2.757  51.023  1.00  0.00     0.102 C 
HETATM    5  C11 UNL     1      24.502   1.153  52.308  1.00  0.00     0.083 A 
HETATM    6  N2  UNL     1      23.463   1.318  51.541  1.00  0.00    -0.173 NA
HETATM    7  C12 UNL     1      22.275   0.633  51.720  1.00  0.00     0.206 C 
HETATM    8  N3  UNL     1      21.281   0.055  51.867  1.00  0.00    -0.170 NA
HETATM    9  C13 UNL     1      24.558   0.229  53.454  1.00  0.00     0.073 A 
HETATM   10  C14 UNL     1      25.683   0.164  54.146  1.00  0.00     0.103 A 
ENDROOT
BRANCH   4  11
HETATM   11  N1  UNL     1      26.795   3.568  50.644  1.00  0.00    -0.365 N 
HETATM   12  H6  UNL     1      27.808   3.658  50.811  1.00  0.00     0.165 HD
BRANCH  11  13
HETATM   13  C6  UNL     1      26.392   4.597  49.741  1.00  0.00     0.039 A 
HETATM   14  C7  UNL     1      26.818   5.443  48.790  1.00  0.00     0.030 A 
HETATM   15  C8  UNL     1      25.493   6.028  48.578  1.00  0.00     0.012 A 
HETATM   16  C9  UNL     1      25.071   5.197  49.513  1.00  0.00    -0.021 A 
BRANCH  16  17
HETATM   17  C10 UNL     1      23.675   5.043  50.048  1.00  0.00     0.126 C 
HETATM   18 BR1  UNL     1      22.726   3.799  48.933  1.00  0.00    -0.091 Br
ENDBRANCH  16  17
ENDBRANCH  11  13
ENDBRANCH   4  11
BRANCH  10  19
HETATM   19  O2  UNL     1      25.629  -0.738  55.207  1.00  0.00    -0.353 OA
HETATM   20  C15 UNL     1      24.341  -1.226  55.548  1.00  0.00     0.210 C 
ENDBRANCH  10  19
BRANCH   1  21
HETATM   21  O1  UNL     1      28.012   0.817  54.630  1.00  0.00    -0.353 OA
HETATM   22  C1  UNL     1      29.195   0.209  54.208  1.00  0.00     0.210 C 
ENDBRANCH   1  21
TORSDOF 5
ENDMDL
MODEL 7
REMARK VINA RESULT:      -6.6      3.590      7.172
REMARK  5 active torsions:
REMARK  status: ('A' for Active; 'I' for Inactive)
REMARK    1  A    between atoms: O1_2  and  C2_3 
REMARK    2  A    between atoms: C5_6  and  N1_7 
REMARK    3  A    between atoms: N1_7  and  C6_8 
REMARK    4  A    between atoms: C9_11  and  C10_12 
REMARK    5  A    between atoms: C14_19  and  O2_20 
ROOT
HETATM    1  C2  UNL     1      26.382   2.615  51.273  1.00  0.00     0.102 A 
HETATM    2  C3  UNL     1      25.102   2.408  50.965  1.00  0.00     0.054 A 
HETATM    3  C4  UNL     1      24.412   1.467  51.838  1.00  0.00     0.012 A 
HETATM    4  C5  UNL     1      23.138   1.208  51.600  1.00  0.00     0.102 C 
HETATM    5  C11 UNL     1      25.036   0.787  52.966  1.00  0.00     0.083 A 
HETATM    6  N2  UNL     1      24.329  -0.037  53.685  1.00  0.00    -0.173 NA
HETATM    7  C12 UNL     1      24.841  -0.723  54.771  1.00  0.00     0.206 C 
HETATM    8  N3  UNL     1      25.270  -1.302  55.678  1.00  0.00    -0.170 NA
HETATM    9  C13 UNL     1      26.455   1.098  53.204  1.00  0.00     0.073 A 
HETATM   10  C14 UNL     1      27.049   1.956  52.391  1.00  0.00     0.103 A 
ENDROOT
BRANCH   4  11
HETATM   11  N1  UNL     1      22.398   1.793  50.539  1.00  0.00    -0.365 N 
HETATM   12  H6  UNL     1      22.421   1.886  49.514  1.00  0.00     0.165 HD
BRANCH  11  13
HETATM   13  C6  UNL     1      21.247   2.479  51.031  1.00  0.00     0.039 A 
HETATM   14  C7  UNL     1      20.730   3.687  51.303  1.00  0.00     0.030 A 
HETATM   15  C8  UNL     1      19.454   3.144  51.774  1.00  0.00     0.012 A 
HETATM   16  C9  UNL     1      19.960   1.954  51.508  1.00  0.00    -0.021 A 
BRANCH  16  17
HETATM   17  C10 UNL     1      19.307   0.613  51.689  1.00  0.00     0.126 C 
HETATM   18 BR1  UNL     1      20.043  -0.219  53.257  1.00  0.00    -0.091 Br
ENDBRANCH  16  17
ENDBRANCH  11  13
ENDBRANCH   4  11
BRANCH  10  19
HETATM   19  O2  UNL     1      28.388   2.180  52.705  1.00  0.00    -0.353 OA
HETATM   20  C15 UNL     1      28.913   1.425  53.786  1.00  0.00     0.210 C 
ENDBRANCH  10  19
BRANCH   1  21
HETATM   21  O1  UNL     1      27.089   3.504  50.472  1.00  0.00    -0.353 OA
HETATM   22  C1  UNL     1      26.563   4.146  49.350  1.00  0.00     0.210 C 
ENDBRANCH   1  21
TORSDOF 5
ENDMDL
MODEL 8
REMARK VINA RESULT:      -6.5      2.826      5.580
REMARK  5 active torsions:
REMARK  status: ('A' for Active; 'I' for Inactive)
REMARK    1  A    between atoms: O1_2  and  C2_3 
REMARK    2  A    between atoms: C5_6  and  N1_7 
REMARK    3  A    between atoms: N1_7  and  C6_8 
REMARK    4  A    between atoms: C9_11  and  C10_12 
REMARK    5  A    between atoms: C14_19  and  O2_20 
ROOT
HETATM    1  C2  UNL     1      23.341  -0.608  53.962  1.00  0.00     0.102 A 
HETATM    2  C3  UNL     1      22.882   0.175  52.986  1.00  0.00     0.054 A 
HETATM    3  C4  UNL     1      23.874   1.072  52.409  1.00  0.00     0.012 A 
HETATM    4  C5  UNL     1      23.499   1.881  51.435  1.00  0.00     0.102 C 
HETATM    5  C11 UNL     1      25.267   1.137  52.837  1.00  0.00     0.083 A 
HETATM    6  N2  UNL     1      26.074   1.976  52.255  1.00  0.00    -0.173 NA
HETATM    7  C12 UNL     1      27.408   2.103  52.598  1.00  0.00     0.206 C 
HETATM    8  N3  UNL     1      28.524   2.213  52.888  1.00  0.00    -0.170 NA
HETATM    9  C13 UNL     1      25.652   0.222  53.924  1.00  0.00     0.073 A 
HETATM   10  C14 UNL     1      24.724  -0.577  54.423  1.00  0.00     0.103 A 
ENDROOT
BRANCH   4  11
HETATM   11  N1  UNL     1      22.179   1.931  50.914  1.00  0.00    -0.365 N 
HETATM   12  H6  UNL     1      21.200   1.917  51.233  1.00  0.00     0.165 HD
BRANCH  11  13
HETATM   13  C6  UNL     1      22.191   2.034  49.490  1.00  0.00     0.039 A 
HETATM   14  C7  UNL     1      21.876   1.403  48.348  1.00  0.00     0.030 A 
HETATM   15  C8  UNL     1      22.351   2.497  47.498  1.00  0.00     0.012 A 
HETATM   16  C9  UNL     1      22.662   3.120  48.620  1.00  0.00    -0.021 A 
BRANCH  16  17
HETATM   17  C10 UNL     1      23.282   4.479  48.778  1.00  0.00     0.126 C 
HETATM   18 BR1  UNL     1      25.107   4.257  49.338  1.00  0.00    -0.091 Br
ENDBRANCH  16  17
ENDBRANCH  11  13
ENDBRANCH   4  11
BRANCH  10  19
HETATM   19  O2  UNL     1      25.194  -1.401  55.445  1.00  0.00    -0.353 OA
HETATM   20  C15 UNL     1      25.119  -0.872  56.760  1.00  0.00     0.210 C 
ENDBRANCH  10  19
BRANCH   1  21
HETATM   21  O1  UNL     1      22.434  -1.484  54.548  1.00  0.00    -0.353 OA
HETATM   22  C1  UNL     1      21.071  -1.523  54.254  1.00  0.00     0.210 C 
ENDBRANCH   1  21
TORSDOF 5
ENDMDL
MODEL 9
REMARK VINA RESULT:      -6.3      3.706      6.853
REMARK  5 active torsions:
REMARK  status: ('A' for Active; 'I' for Inactive)
REMARK    1  A    between atoms: O1_2  and  C2_3 
REMARK    2  A    between atoms: C5_6  and  N1_7 
REMARK    3  A    between atoms: N1_7  and  C6_8 
REMARK    4  A    between atoms: C9_11  and  C10_12 
REMARK    5  A    between atoms: C14_19  and  O2_20 
ROOT
HETATM    1  C2  UNL     1      25.586   1.817  51.946  1.00  0.00     0.102 A 
HETATM    2  C3  UNL     1      24.365   2.209  51.583  1.00  0.00     0.054 A 
HETATM    3  C4  UNL     1      23.277   1.519  52.262  1.00  0.00     0.012 A 
HETATM    4  C5  UNL     1      22.035   1.851  51.958  1.00  0.00     0.102 C 
HETATM    5  C11 UNL     1      23.468   0.477  53.264  1.00  0.00     0.083 A 
HETATM    6  N2  UNL     1      22.426  -0.079  53.813  1.00  0.00    -0.173 NA
HETATM    7  C12 UNL     1      22.516  -1.074  54.770  1.00  0.00     0.206 C 
HETATM    8  N3  UNL     1      22.591  -1.910  55.568  1.00  0.00    -0.170 NA
HETATM    9  C13 UNL     1      24.864   0.131  53.580  1.00  0.00     0.073 A 
HETATM   10  C14 UNL     1      25.825   0.779  52.943  1.00  0.00     0.103 A 
ENDROOT
BRANCH   4  11
HETATM   11  N1  UNL     1      21.694   2.844  51.004  1.00  0.00    -0.365 N 
HETATM   12  H6  UNL     1      21.362   3.819  50.959  1.00  0.00     0.165 HD
BRANCH  11  13
HETATM   13  C6  UNL     1      21.856   2.358  49.672  1.00  0.00     0.039 A 
HETATM   14  C7  UNL     1      21.650   1.309  48.861  1.00  0.00     0.030 A 
HETATM   15  C8  UNL     1      22.233   1.972  47.693  1.00  0.00     0.012 A 
HETATM   16  C9  UNL     1      22.438   3.006  48.489  1.00  0.00    -0.021 A 
BRANCH  16  17
HETATM   17  C10 UNL     1      23.066   4.326  48.142  1.00  0.00     0.126 C 
HETATM   18 BR1  UNL     1      21.673   5.638  47.965  1.00  0.00    -0.091 Br
ENDBRANCH  16  17
ENDBRANCH  11  13
ENDBRANCH   4  11
BRANCH  10  19
HETATM   19  O2  UNL     1      27.106   0.376  53.315  1.00  0.00    -0.353 OA
HETATM   20  C15 UNL     1      27.337   0.233  54.708  1.00  0.00     0.210 C 
ENDBRANCH  10  19
BRANCH   1  21
HETATM   21  O1  UNL     1      26.661   2.445  51.327  1.00  0.00    -0.353 OA
HETATM   22  C1  UNL     1      26.548   3.332  50.256  1.00  0.00     0.210 C 
ENDBRANCH   1  21
TORSDOF 5
ENDMDL
