MODEL 1
REMARK VINA RESULT:      -8.6      0.000      0.000
REMARK  2 active torsions:
REMARK  status: ('A' for Active; 'I' for Inactive)
REMARK    1  A    between atoms: C1_2  and  N2_3 
REMARK    2  A    between atoms: C15_19  and  O1_20 
ROOT
HETATM    1  N2  UNL     1      26.119   0.430  52.708  1.00  0.00    -0.224 NA
HETATM    2  C2  UNL     1      24.889   0.272  53.045  1.00  0.00     0.140 A 
HETATM    3  N3  UNL     1      24.374  -0.820  53.805  1.00  0.00    -0.340 N 
HETATM    4  C3  UNL     1      22.947  -0.710  54.008  1.00  0.00     0.034 A 
HETATM    5  C4  UNL     1      22.527   0.391  53.426  1.00  0.00     0.045 A 
HETATM    6  C5  UNL     1      23.675   1.032  52.812  1.00  0.00     0.022 A 
HETATM    7  C6  UNL     1      23.492   2.126  52.107  1.00  0.00    -0.021 C 
HETATM    8  C7  UNL     1      24.720   2.640  51.462  1.00  0.00     0.009 C 
HETATM    9  C8  UNL     1      24.677   3.114  50.216  1.00  0.00    -0.015 C 
HETATM   10  C9  UNL     1      23.708   3.244  49.126  1.00  0.00     0.106 C 
HETATM   11  S1  UNL     1      22.350   2.045  49.173  1.00  0.00    -0.126 SA
HETATM   12  C10 UNL     1      21.634   2.140  50.847  1.00  0.00     0.001 C 
HETATM   13  C11 UNL     1      22.123   2.688  51.975  1.00  0.00     0.031 C 
HETATM   14  C12 UNL     1      20.328   1.559  51.068  1.00  0.00     0.018 C 
HETATM   15  C13 UNL     1      19.332   0.834  51.526  1.00  0.00     0.004 C 
HETATM   16  C14 UNL     1      19.088  -0.218  52.539  1.00  0.00     0.036 C 
HETATM   17  C15 UNL     1      19.414  -1.082  53.519  1.00  0.00     0.065 C 
HETATM   18  C16 UNL     1      20.627  -1.464  54.234  1.00  0.00     0.039 C 
HETATM   19  C17 UNL     1      21.893  -1.516  54.611  1.00  0.00     0.032 C 
HETATM   20  H3  UNL     1      24.919  -1.633  54.195  1.00  0.00     0.167 HD
ENDROOT
BRANCH   1  21
HETATM   21  C1  UNL     1      27.140  -0.459  53.047  1.00  0.00     0.225 C 
HETATM   22  N1  UNL     1      27.351  -0.461  54.328  1.00  0.00    -0.293 NA
HETATM   23  H1  UNL     1      26.741   0.183  54.886  1.00  0.00     0.187 HD
ENDBRANCH   1  21
BRANCH  17  24
HETATM   24  O1  UNL     1      18.283  -1.832  53.983  1.00  0.00    -0.361 OA
HETATM   25  H13 UNL     1      18.496  -2.801  54.220  1.00  0.00     0.217 HD
ENDBRANCH  17  24
TORSDOF 2
ENDMDL
MODEL 2
REMARK VINA RESULT:      -8.1      2.835      4.551
REMARK  2 active torsions:
REMARK  status: ('A' for Active; 'I' for Inactive)
REMARK    1  A    between atoms: C1_2  and  N2_3 
REMARK    2  A    between atoms: C15_19  and  O1_20 
ROOT
HETATM    1  N2  UNL     1      25.815   4.413  49.333  1.00  0.00    -0.224 NA
HETATM    2  C2  UNL     1      25.647   3.699  50.389  1.00  0.00     0.140 A 
HETATM    3  N3  UNL     1      26.691   3.149  51.189  1.00  0.00    -0.340 N 
HETATM    4  C3  UNL     1      26.172   2.387  52.303  1.00  0.00     0.034 A 
HETATM    5  C4  UNL     1      24.859   2.428  52.259  1.00  0.00     0.045 A 
HETATM    6  C5  UNL     1      24.479   3.214  51.101  1.00  0.00     0.022 A 
HETATM    7  C6  UNL     1      23.204   3.341  50.807  1.00  0.00    -0.021 C 
HETATM    8  C7  UNL     1      22.945   4.093  49.560  1.00  0.00     0.009 C 
HETATM    9  C8  UNL     1      21.997   3.686  48.715  1.00  0.00    -0.015 C 
HETATM   10  C9  UNL     1      21.065   2.566  48.570  1.00  0.00     0.106 C 
HETATM   11  S1  UNL     1      21.582   1.039  49.398  1.00  0.00    -0.126 SA
HETATM   12  C10 UNL     1      21.972   1.491  51.121  1.00  0.00     0.001 C 
HETATM   13  C11 UNL     1      22.188   2.697  51.678  1.00  0.00     0.031 C 
HETATM   14  C12 UNL     1      22.075   0.433  52.101  1.00  0.00     0.018 C 
HETATM   15  C13 UNL     1      22.510  -0.382  53.035  1.00  0.00     0.004 C 
HETATM   16  C14 UNL     1      23.730  -0.605  53.846  1.00  0.00     0.036 C 
HETATM   17  C15 UNL     1      24.986  -0.369  54.268  1.00  0.00     0.065 C 
HETATM   18  C16 UNL     1      26.052   0.576  53.948  1.00  0.00     0.039 C 
HETATM   19  C17 UNL     1      26.717   1.564  53.375  1.00  0.00     0.032 C 
HETATM   20  H3  UNL     1      27.728   3.250  51.035  1.00  0.00     0.167 HD
ENDROOT
BRANCH   1  21
HETATM   21  C1  UNL     1      27.066   4.755  48.816  1.00  0.00     0.225 C 
HETATM   22  N1  UNL     1      27.454   5.911  49.260  1.00  0.00    -0.293 NA
HETATM   23  H1  UNL     1      26.789   6.388  49.916  1.00  0.00     0.187 HD
ENDBRANCH   1  21
BRANCH  17  24
HETATM   24  O1  UNL     1      25.397  -1.282  55.295  1.00  0.00    -0.361 OA
HETATM   25  H13 UNL     1      25.262  -0.929  56.243  1.00  0.00     0.217 HD
ENDBRANCH  17  24
TORSDOF 2
ENDMDL
MODEL 3
REMARK VINA RESULT:      -7.9      3.084      5.444
REMARK  2 active torsions:
REMARK  status: ('A' for Active; 'I' for Inactive)
REMARK    1  A    between atoms: C1_2  and  N2_3 
REMARK    2  A    between atoms: C15_19  and  O1_20 
ROOT
HETATM    1  N2  UNL     1      21.367  -0.110  53.651  1.00  0.00    -0.224 NA
HETATM    2  C2  UNL     1      22.310   0.377  52.926  1.00  0.00     0.140 A 
HETATM    3  N3  UNL     1      23.651   0.601  53.356  1.00  0.00    -0.340 N 
HETATM    4  C3  UNL     1      24.466   1.168  52.305  1.00  0.00     0.034 A 
HETATM    5  C4  UNL     1      23.722   1.310  51.232  1.00  0.00     0.045 A 
HETATM    6  C5  UNL     1      22.386   0.846  51.555  1.00  0.00     0.022 A 
HETATM    7  C6  UNL     1      21.438   0.954  50.651  1.00  0.00    -0.021 C 
HETATM    8  C7  UNL     1      20.103   0.527  51.124  1.00  0.00     0.009 C 
HETATM    9  C8  UNL     1      19.017   1.227  50.791  1.00  0.00    -0.015 C 
HETATM   10  C9  UNL     1      18.685   2.464  50.082  1.00  0.00     0.106 C 
HETATM   11  S1  UNL     1      20.013   3.697  50.049  1.00  0.00    -0.126 SA
HETATM   12  C10 UNL     1      21.500   2.839  49.434  1.00  0.00     0.001 C 
HETATM   13  C11 UNL     1      21.763   1.524  49.319  1.00  0.00     0.031 C 
HETATM   14  C12 UNL     1      22.613   3.641  48.974  1.00  0.00     0.018 C 
HETATM   15  C13 UNL     1      23.804   4.172  48.820  1.00  0.00     0.004 C 
HETATM   16  C14 UNL     1      25.165   4.054  49.394  1.00  0.00     0.036 C 
HETATM   17  C15 UNL     1      26.116   3.570  50.215  1.00  0.00     0.065 C 
HETATM   18  C16 UNL     1      26.187   2.585  51.289  1.00  0.00     0.039 C 
HETATM   19  C17 UNL     1      25.830   1.663  52.167  1.00  0.00     0.032 C 
HETATM   20  H3  UNL     1      24.053   0.399  54.309  1.00  0.00     0.167 HD
ENDROOT
BRANCH   1  21
HETATM   21  C1  UNL     1      21.529  -0.495  54.983  1.00  0.00     0.225 C 
HETATM   22  N1  UNL     1      22.008  -1.698  55.066  1.00  0.00    -0.293 NA
HETATM   23  H1  UNL     1      22.193  -2.175  54.150  1.00  0.00     0.187 HD
ENDBRANCH   1  21
BRANCH  17  24
HETATM   24  O1  UNL     1      27.394   4.180  49.989  1.00  0.00    -0.361 OA
HETATM   25  H13 UNL     1      27.349   5.184  49.809  1.00  0.00     0.217 HD
ENDBRANCH  17  24
TORSDOF 2
ENDMDL
MODEL 4
REMARK VINA RESULT:      -7.7      3.320      5.091
REMARK  2 active torsions:
REMARK  status: ('A' for Active; 'I' for Inactive)
REMARK    1  A    between atoms: C1_2  and  N2_3 
REMARK    2  A    between atoms: C15_19  and  O1_20 
ROOT
HETATM    1  N2  UNL     1      22.759   5.833  50.945  1.00  0.00    -0.224 NA
HETATM    2  C2  UNL     1      23.096   4.814  51.654  1.00  0.00     0.140 A 
HETATM    3  N3  UNL     1      24.422   4.511  52.085  1.00  0.00    -0.340 N 
HETATM    4  C3  UNL     1      24.470   3.290  52.858  1.00  0.00     0.034 A 
HETATM    5  C4  UNL     1      23.252   2.806  52.949  1.00  0.00     0.045 A 
HETATM    6  C5  UNL     1      22.366   3.697  52.222  1.00  0.00     0.022 A 
HETATM    7  C6  UNL     1      21.095   3.381  52.113  1.00  0.00    -0.021 C 
HETATM    8  C7  UNL     1      20.311   4.321  51.281  1.00  0.00     0.009 C 
HETATM    9  C8  UNL     1      19.393   3.858  50.431  1.00  0.00    -0.015 C 
HETATM   10  C9  UNL     1      18.898   2.568  49.946  1.00  0.00     0.106 C 
HETATM   11  S1  UNL     1      20.087   1.206  50.071  1.00  0.00    -0.126 SA
HETATM   12  C10 UNL     1      20.685   1.198  51.794  1.00  0.00     0.001 C 
HETATM   13  C11 UNL     1      20.595   2.138  52.753  1.00  0.00     0.031 C 
HETATM   14  C12 UNL     1      21.371   0.019  52.276  1.00  0.00     0.018 C 
HETATM   15  C13 UNL     1      22.264  -0.801  52.780  1.00  0.00     0.004 C 
HETATM   16  C14 UNL     1      23.638  -0.757  53.332  1.00  0.00     0.036 C 
HETATM   17  C15 UNL     1      24.798  -0.180  53.701  1.00  0.00     0.065 C 
HETATM   18  C16 UNL     1      25.367   1.163  53.679  1.00  0.00     0.039 C 
HETATM   19  C17 UNL     1      25.499   2.463  53.477  1.00  0.00     0.032 C 
HETATM   20  H3  UNL     1      25.294   5.069  51.892  1.00  0.00     0.167 HD
ENDROOT
BRANCH   1  21
HETATM   21  C1  UNL     1      23.659   6.800  50.494  1.00  0.00     0.225 C 
HETATM   22  N1  UNL     1      24.084   7.535  51.475  1.00  0.00    -0.293 NA
HETATM   23  H1  UNL     1      23.699   7.294  52.420  1.00  0.00     0.187 HD
ENDBRANCH   1  21
BRANCH  17  24
HETATM   24  O1  UNL     1      25.724  -1.125  54.255  1.00  0.00    -0.361 OA
HETATM   25  H13 UNL     1      26.609  -1.183  53.751  1.00  0.00     0.217 HD
ENDBRANCH  17  24
TORSDOF 2
ENDMDL
MODEL 5
REMARK VINA RESULT:      -7.7      3.658      6.189
REMARK  2 active torsions:
REMARK  status: ('A' for Active; 'I' for Inactive)
REMARK    1  A    between atoms: C1_2  and  N2_3 
REMARK    2  A    between atoms: C15_19  and  O1_20 
ROOT
HETATM    1  N2  UNL     1      26.060   1.567  52.649  1.00  0.00    -0.224 NA
HETATM    2  C2  UNL     1      25.853   2.350  51.651  1.00  0.00     0.140 A 
HETATM    3  N3  UNL     1      26.799   3.272  51.113  1.00  0.00    -0.340 N 
HETATM    4  C3  UNL     1      26.254   4.013  49.998  1.00  0.00     0.034 A 
HETATM    5  C4  UNL     1      25.021   3.610  49.792  1.00  0.00     0.045 A 
HETATM    6  C5  UNL     1      24.717   2.593  50.782  1.00  0.00     0.022 A 
HETATM    7  C6  UNL     1      23.506   2.084  50.820  1.00  0.00    -0.021 C 
HETATM    8  C7  UNL     1      23.292   1.120  51.923  1.00  0.00     0.009 C 
HETATM    9  C8  UNL     1      22.150   1.130  52.610  1.00  0.00    -0.015 C 
HETATM   10  C9  UNL     1      20.920   1.921  52.682  1.00  0.00     0.106 C 
HETATM   11  S1  UNL     1      21.086   3.633  52.109  1.00  0.00    -0.126 SA
HETATM   12  C10 UNL     1      21.848   3.553  50.455  1.00  0.00     0.001 C 
HETATM   13  C11 UNL     1      22.491   2.543  49.838  1.00  0.00     0.031 C 
HETATM   14  C12 UNL     1      21.784   4.727  49.613  1.00  0.00     0.018 C 
HETATM   15  C13 UNL     1      22.098   5.753  48.856  1.00  0.00     0.004 C 
HETATM   16  C14 UNL     1      23.307   6.413  48.311  1.00  0.00     0.036 C 
HETATM   17  C15 UNL     1      24.627   6.590  48.109  1.00  0.00     0.065 C 
HETATM   18  C16 UNL     1      25.860   5.937  48.533  1.00  0.00     0.039 C 
HETATM   19  C17 UNL     1      26.692   5.096  49.126  1.00  0.00     0.032 C 
HETATM   20  H3  UNL     1      27.785   3.436  51.447  1.00  0.00     0.167 HD
ENDROOT
BRANCH   1  21
HETATM   21  C1  UNL     1      27.263   1.509  53.355  1.00  0.00     0.225 C 
HETATM   22  N1  UNL     1      27.480   2.613  54.001  1.00  0.00    -0.293 NA
HETATM   23  H1  UNL     1      26.741   3.350  53.894  1.00  0.00     0.187 HD
ENDBRANCH   1  21
BRANCH  17  24
HETATM   24  O1  UNL     1      24.903   7.717  47.266  1.00  0.00    -0.361 OA
HETATM   25  H13 UNL     1      24.077   8.110  46.814  1.00  0.00     0.217 HD
ENDBRANCH  17  24
TORSDOF 2
ENDMDL
MODEL 6
REMARK VINA RESULT:      -7.5      9.676     12.850
REMARK  2 active torsions:
REMARK  status: ('A' for Active; 'I' for Inactive)
REMARK    1  A    between atoms: C1_2  and  N2_3 
REMARK    2  A    between atoms: C15_19  and  O1_20 
ROOT
HETATM    1  N2  UNL     1      28.875   4.982  48.369  1.00  0.00    -0.224 NA
HETATM    2  C2  UNL     1      29.371   6.154  48.549  1.00  0.00     0.140 A 
HETATM    3  N3  UNL     1      28.648   7.298  48.998  1.00  0.00    -0.340 N 
HETATM    4  C3  UNL     1      29.492   8.468  49.090  1.00  0.00     0.034 A 
HETATM    5  C4  UNL     1      30.710   8.132  48.732  1.00  0.00     0.045 A 
HETATM    6  C5  UNL     1      30.696   6.724  48.382  1.00  0.00     0.022 A 
HETATM    7  C6  UNL     1      31.796   6.170  47.923  1.00  0.00    -0.021 C 
HETATM    8  C7  UNL     1      31.636   4.754  47.523  1.00  0.00     0.009 C 
HETATM    9  C8  UNL     1      32.222   4.300  46.415  1.00  0.00    -0.015 C 
HETATM   10  C9  UNL     1      33.010   4.824  45.297  1.00  0.00     0.106 C 
HETATM   11  S1  UNL     1      32.757   6.585  44.954  1.00  0.00    -0.126 SA
HETATM   12  C10 UNL     1      32.998   7.460  46.535  1.00  0.00     0.001 C 
HETATM   13  C11 UNL     1      33.027   6.991  47.796  1.00  0.00     0.031 C 
HETATM   14  C12 UNL     1      33.202   8.892  46.502  1.00  0.00     0.018 C 
HETATM   15  C13 UNL     1      33.087  10.186  46.695  1.00  0.00     0.004 C 
HETATM   16  C14 UNL     1      32.213  11.135  47.423  1.00  0.00     0.036 C 
HETATM   17  C15 UNL     1      31.186  11.504  48.212  1.00  0.00     0.065 C 
HETATM   18  C16 UNL     1      30.108  10.834  48.931  1.00  0.00     0.039 C 
HETATM   19  C17 UNL     1      29.320   9.882  49.401  1.00  0.00     0.032 C 
HETATM   20  H3  UNL     1      27.624   7.343  49.246  1.00  0.00     0.167 HD
ENDROOT
BRANCH   1  21
HETATM   21  C1  UNL     1      27.535   4.662  48.594  1.00  0.00     0.225 C 
HETATM   22  N1  UNL     1      27.338   4.317  49.829  1.00  0.00    -0.293 NA
HETATM   23  H1  UNL     1      28.188   4.335  50.443  1.00  0.00     0.187 HD
ENDBRANCH   1  21
BRANCH  17  24
HETATM   24  O1  UNL     1      31.122  12.926  48.394  1.00  0.00    -0.361 OA
HETATM   25  H13 UNL     1      31.657  13.457  47.706  1.00  0.00     0.217 HD
ENDBRANCH  17  24
TORSDOF 2
ENDMDL
MODEL 7
REMARK VINA RESULT:      -7.3      1.961      2.809
REMARK  2 active torsions:
REMARK  status: ('A' for Active; 'I' for Inactive)
REMARK    1  A    between atoms: C1_2  and  N2_3 
REMARK    2  A    between atoms: C15_19  and  O1_20 
ROOT
HETATM    1  N2  UNL     1      25.191   3.254  50.497  1.00  0.00    -0.224 NA
HETATM    2  C2  UNL     1      24.466   2.589  51.325  1.00  0.00     0.140 A 
HETATM    3  N3  UNL     1      24.906   1.475  52.098  1.00  0.00    -0.340 N 
HETATM    4  C3  UNL     1      23.848   0.943  52.927  1.00  0.00     0.034 A 
HETATM    5  C4  UNL     1      22.765   1.659  52.731  1.00  0.00     0.045 A 
HETATM    6  C5  UNL     1      23.082   2.682  51.751  1.00  0.00     0.022 A 
HETATM    7  C6  UNL     1      22.128   3.486  51.338  1.00  0.00    -0.021 C 
HETATM    8  C7  UNL     1      22.552   4.430  50.281  1.00  0.00     0.009 C 
HETATM    9  C8  UNL     1      21.745   4.691  49.251  1.00  0.00    -0.015 C 
HETATM   10  C9  UNL     1      20.452   4.244  48.731  1.00  0.00     0.106 C 
HETATM   11  S1  UNL     1      19.971   2.571  49.235  1.00  0.00    -0.126 SA
HETATM   12  C10 UNL     1      20.126   2.513  51.051  1.00  0.00     0.001 C 
HETATM   13  C11 UNL     1      20.761   3.343  51.899  1.00  0.00     0.031 C 
HETATM   14  C12 UNL     1      19.484   1.428  51.759  1.00  0.00     0.018 C 
HETATM   15  C13 UNL     1      19.251   0.384  52.522  1.00  0.00     0.004 C 
HETATM   16  C14 UNL     1      19.994  -0.546  53.404  1.00  0.00     0.036 C 
HETATM   17  C15 UNL     1      21.077  -1.052  54.024  1.00  0.00     0.065 C 
HETATM   18  C16 UNL     1      22.505  -0.757  54.071  1.00  0.00     0.039 C 
HETATM   19  C17 UNL     1      23.673  -0.184  53.836  1.00  0.00     0.032 C 
HETATM   20  H3  UNL     1      25.870   1.048  52.104  1.00  0.00     0.167 HD
ENDROOT
BRANCH   1  21
HETATM   21  C1  UNL     1      26.533   2.971  50.236  1.00  0.00     0.225 C 
HETATM   22  N1  UNL     1      27.174   4.040  49.877  1.00  0.00    -0.293 NA
HETATM   23  H1  UNL     1      26.602   4.919  49.842  1.00  0.00     0.187 HD
ENDBRANCH   1  21
BRANCH  17  24
HETATM   24  O1  UNL     1      20.754  -2.179  54.850  1.00  0.00    -0.361 OA
HETATM   25  H13 UNL     1      21.180  -2.150  55.777  1.00  0.00     0.217 HD
ENDBRANCH  17  24
TORSDOF 2
ENDMDL
MODEL 8
REMARK VINA RESULT:      -7.2      3.367      5.521
REMARK  2 active torsions:
REMARK  status: ('A' for Active; 'I' for Inactive)
REMARK    1  A    between atoms: C1_2  and  N2_3 
REMARK    2  A    between atoms: C15_19  and  O1_20 
ROOT
HETATM    1  N2  UNL     1      20.239   3.232  50.305  1.00  0.00    -0.224 NA
HETATM    2  C2  UNL     1      21.221   2.519  50.730  1.00  0.00     0.140 A 
HETATM    3  N3  UNL     1      21.161   1.596  51.816  1.00  0.00    -0.340 N 
HETATM    4  C3  UNL     1      22.437   0.958  52.051  1.00  0.00     0.034 A 
HETATM    5  C4  UNL     1      23.300   1.417  51.173  1.00  0.00     0.045 A 
HETATM    6  C5  UNL     1      22.612   2.384  50.340  1.00  0.00     0.022 A 
HETATM    7  C6  UNL     1      23.293   3.035  49.424  1.00  0.00    -0.021 C 
HETATM    8  C7  UNL     1      22.503   4.052  48.695  1.00  0.00     0.009 C 
HETATM    9  C8  UNL     1      23.041   5.237  48.403  1.00  0.00    -0.015 C 
HETATM   10  C9  UNL     1      24.282   5.971  48.659  1.00  0.00     0.106 C 
HETATM   11  S1  UNL     1      25.173   5.454  50.150  1.00  0.00    -0.126 SA
HETATM   12  C10 UNL     1      25.364   3.644  50.038  1.00  0.00     0.001 C 
HETATM   13  C11 UNL     1      24.740   2.749  49.250  1.00  0.00     0.031 C 
HETATM   14  C12 UNL     1      26.329   3.002  50.902  1.00  0.00     0.018 C 
HETATM   15  C13 UNL     1      26.902   2.228  51.796  1.00  0.00     0.004 C 
HETATM   16  C14 UNL     1      26.533   1.152  52.745  1.00  0.00     0.036 C 
HETATM   17  C15 UNL     1      25.705   0.294  53.371  1.00  0.00     0.065 C 
HETATM   18  C16 UNL     1      24.279  -0.015  53.340  1.00  0.00     0.039 C 
HETATM   19  C17 UNL     1      22.997   0.024  53.020  1.00  0.00     0.032 C 
HETATM   20  H3  UNL     1      20.321   1.368  52.409  1.00  0.00     0.167 HD
ENDROOT
BRANCH   1  21
HETATM   21  C1  UNL     1      18.957   3.199  50.856  1.00  0.00     0.225 C 
HETATM   22  N1  UNL     1      18.969   3.597  52.091  1.00  0.00    -0.293 NA
HETATM   23  H1  UNL     1      19.909   3.873  52.467  1.00  0.00     0.187 HD
ENDBRANCH   1  21
BRANCH  17  24
HETATM   24  O1  UNL     1      26.392  -0.530  54.322  1.00  0.00    -0.361 OA
HETATM   25  H13 UNL     1      27.029  -0.017  54.932  1.00  0.00     0.217 HD
ENDBRANCH  17  24
TORSDOF 2
ENDMDL
MODEL 9
REMARK VINA RESULT:      -7.1      3.068      4.344
REMARK  2 active torsions:
REMARK  status: ('A' for Active; 'I' for Inactive)
REMARK    1  A    between atoms: C1_2  and  N2_3 
REMARK    2  A    between atoms: C15_19  and  O1_20 
ROOT
HETATM    1  N2  UNL     1      25.741   5.169  49.682  1.00  0.00    -0.224 NA
HETATM    2  C2  UNL     1      25.296   4.332  50.550  1.00  0.00     0.140 A 
HETATM    3  N3  UNL     1      25.921   3.101  50.907  1.00  0.00    -0.340 N 
HETATM    4  C3  UNL     1      25.165   2.383  51.908  1.00  0.00     0.034 A 
HETATM    5  C4  UNL     1      24.100   3.090  52.212  1.00  0.00     0.045 A 
HETATM    6  C5  UNL     1      24.123   4.295  51.404  1.00  0.00     0.022 A 
HETATM    7  C6  UNL     1      23.116   5.135  51.484  1.00  0.00    -0.021 C 
HETATM    8  C7  UNL     1      23.213   6.282  50.554  1.00  0.00     0.009 C 
HETATM    9  C8  UNL     1      22.129   6.716  49.908  1.00  0.00    -0.015 C 
HETATM   10  C9  UNL     1      20.723   6.340  49.750  1.00  0.00     0.106 C 
HETATM   11  S1  UNL     1      20.371   4.586  50.041  1.00  0.00    -0.126 SA
HETATM   12  C10 UNL     1      21.095   4.175  51.664  1.00  0.00     0.001 C 
HETATM   13  C11 UNL     1      21.994   4.842  52.411  1.00  0.00     0.031 C 
HETATM   14  C12 UNL     1      20.675   2.952  52.312  1.00  0.00     0.018 C 
HETATM   15  C13 UNL     1      20.662   1.772  52.888  1.00  0.00     0.004 C 
HETATM   16  C14 UNL     1      21.615   0.710  53.286  1.00  0.00     0.036 C 
HETATM   17  C15 UNL     1      22.821   0.126  53.416  1.00  0.00     0.065 C 
HETATM   18  C16 UNL     1      24.199   0.450  53.063  1.00  0.00     0.039 C 
HETATM   19  C17 UNL     1      25.250   1.095  52.585  1.00  0.00     0.032 C 
HETATM   20  H3  UNL     1      26.821   2.712  50.521  1.00  0.00     0.167 HD
ENDROOT
BRANCH   1  21
HETATM   21  C1  UNL     1      26.920   4.986  48.957  1.00  0.00     0.225 C 
HETATM   22  N1  UNL     1      27.686   6.029  49.040  1.00  0.00    -0.293 NA
HETATM   23  H1  UNL     1      27.312   6.818  49.620  1.00  0.00     0.187 HD
ENDBRANCH   1  21
BRANCH  17  24
HETATM   24  O1  UNL     1      22.741  -1.152  54.063  1.00  0.00    -0.361 OA
HETATM   25  H13 UNL     1      23.619  -1.671  54.067  1.00  0.00     0.217 HD
ENDBRANCH  17  24
TORSDOF 2
ENDMDL
