MODEL 1
REMARK VINA RESULT:      -6.8      0.000      0.000
REMARK  8 active torsions:
REMARK  status: ('A' for Active; 'I' for Inactive)
REMARK    1  A    between atoms: O1_2  and  C2_3 
REMARK    2  A    between atoms: N1_7  and  O2_8 
REMARK    3  A    between atoms: O2_8  and  P1_9 
REMARK    4  A    between atoms: P1_9  and  N2_10 
REMARK    5  A    between atoms: N2_10  and  C6_11 
REMARK    6  A    between atoms: C6_11  and  N3_12 
REMARK    7  A    between atoms: N3_12  and  C8_14 
REMARK    8  A    between atoms: C15_22  and  O3_23 
ROOT
HETATM    1  O2  UNL     1      22.361   0.762  51.657  1.00  0.00    -0.196 OA
ENDROOT
BRANCH   1   2
HETATM    2  N1  UNL     1      23.174   1.681  52.252  1.00  0.00    -0.132 NA
HETATM    3  C5  UNL     1      24.262   1.307  52.790  1.00  0.00     0.068 A 
HETATM    4  C4  UNL     1      24.917   2.523  53.346  1.00  0.00     0.091 A 
HETATM    5  C14 UNL     1      24.867  -0.013  52.910  1.00  0.00     0.069 A 
HETATM    6  C3  UNL     1      26.212   2.173  54.002  1.00  0.00     0.019 A 
HETATM    7  C2  UNL     1      26.761   0.952  54.108  1.00  0.00     0.098 A 
HETATM    8  C15 UNL     1      26.029  -0.164  53.526  1.00  0.00     0.103 A 
BRANCH   7   9
HETATM    9  O1  UNL     1      27.971   0.739  54.739  1.00  0.00    -0.353 OA
HETATM   10  C1  UNL     1      29.152   0.968  53.992  1.00  0.00     0.210 C 
ENDBRANCH   7   9
BRANCH   8  11
HETATM   11  O3  UNL     1      26.544  -1.429  53.605  1.00  0.00    -0.353 OA
HETATM   12  C16 UNL     1      26.905  -2.185  52.472  1.00  0.00     0.210 C 
ENDBRANCH   8  11
ENDBRANCH   1   2
BRANCH   1  13
HETATM   13  P1  UNL     1      21.587   1.093  50.115  1.00  0.00     0.261 P 
BRANCH  13  14
HETATM   14  N2  UNL     1      22.338   2.036  49.051  1.00  0.00    -0.245 NA
BRANCH  14  15
HETATM   15  C6  UNL     1      22.137   3.430  48.891  1.00  0.00     0.274 C 
BRANCH  15  16
HETATM   16  N3  UNL     1      22.994   4.142  49.787  1.00  0.00    -0.366 N 
HETATM   17  C7  UNL     1      22.526   4.767  50.999  1.00  0.00     0.151 C 
BRANCH  16  18
HETATM   18  C8  UNL     1      24.400   4.279  49.521  1.00  0.00     0.053 A 
HETATM   19  C9  UNL     1      25.338   3.316  49.831  1.00  0.00     0.031 A 
HETATM   20  C10 UNL     1      26.676   3.547  49.532  1.00  0.00     0.002 A 
HETATM   21  C11 UNL     1      27.111   4.728  48.923  1.00  0.00     0.002 A 
HETATM   22  C12 UNL     1      26.169   5.697  48.609  1.00  0.00     0.026 A 
HETATM   23  C13 UNL     1      24.843   5.448  48.916  1.00  0.00     0.060 A 
HETATM   24 CL1  UNL     1      23.731   6.723  48.486  1.00  0.00    -0.082 Cl
ENDBRANCH  16  18
ENDBRANCH  15  16
ENDBRANCH  14  15
ENDBRANCH  13  14
ENDBRANCH   1  13
TORSDOF 8
ENDMDL
MODEL 2
REMARK VINA RESULT:      -6.6      3.755      6.387
REMARK  8 active torsions:
REMARK  status: ('A' for Active; 'I' for Inactive)
REMARK    1  A    between atoms: O1_2  and  C2_3 
REMARK    2  A    between atoms: N1_7  and  O2_8 
REMARK    3  A    between atoms: O2_8  and  P1_9 
REMARK    4  A    between atoms: P1_9  and  N2_10 
REMARK    5  A    between atoms: N2_10  and  C6_11 
REMARK    6  A    between atoms: C6_11  and  N3_12 
REMARK    7  A    between atoms: N3_12  and  C8_14 
REMARK    8  A    between atoms: C15_22  and  O3_23 
ROOT
HETATM    1  O2  UNL     1      22.527   3.169  52.154  1.00  0.00    -0.196 OA
ENDROOT
BRANCH   1   2
HETATM    2  N1  UNL     1      21.402   2.531  51.723  1.00  0.00    -0.132 NA
HETATM    3  C5  UNL     1      20.982   1.504  52.340  1.00  0.00     0.068 A 
HETATM    4  C4  UNL     1      19.753   1.041  51.639  1.00  0.00     0.091 A 
HETATM    5  C14 UNL     1      21.502   0.812  53.512  1.00  0.00     0.069 A 
HETATM    6  C3  UNL     1      19.189  -0.171  52.302  1.00  0.00     0.019 A 
HETATM    7  C2  UNL     1      19.677  -0.802  53.383  1.00  0.00     0.098 A 
HETATM    8  C15 UNL     1      20.886  -0.260  53.987  1.00  0.00     0.103 A 
BRANCH   7   9
HETATM    9  O1  UNL     1      19.073  -1.923  53.919  1.00  0.00    -0.353 OA
HETATM   10  C1  UNL     1      17.776  -2.253  53.460  1.00  0.00     0.210 C 
ENDBRANCH   7   9
BRANCH   8  11
HETATM   11  O3  UNL     1      21.425  -0.864  55.090  1.00  0.00    -0.353 OA
HETATM   12  C16 UNL     1      22.754  -1.327  55.141  1.00  0.00     0.210 C 
ENDBRANCH   8  11
ENDBRANCH   1   2
BRANCH   1  13
HETATM   13  P1  UNL     1      23.965   3.260  51.149  1.00  0.00     0.261 P 
BRANCH  13  14
HETATM   14  N2  UNL     1      25.350   2.667  51.711  1.00  0.00    -0.245 NA
BRANCH  14  15
HETATM   15  C6  UNL     1      25.712   1.297  51.741  1.00  0.00     0.274 C 
BRANCH  15  16
HETATM   16  N3  UNL     1      26.258   0.976  53.023  1.00  0.00    -0.366 N 
HETATM   17  C7  UNL     1      25.677   1.425  54.264  1.00  0.00     0.151 C 
BRANCH  16  18
HETATM   18  C8  UNL     1      27.442   0.169  53.148  1.00  0.00     0.053 A 
HETATM   19  C9  UNL     1      27.456  -1.202  53.004  1.00  0.00     0.031 A 
HETATM   20  C10 UNL     1      28.657  -1.889  53.145  1.00  0.00     0.002 A 
HETATM   21  C11 UNL     1      29.861  -1.237  53.429  1.00  0.00     0.002 A 
HETATM   22  C12 UNL     1      29.848   0.143  53.574  1.00  0.00     0.026 A 
HETATM   23  C13 UNL     1      28.643   0.808  53.430  1.00  0.00     0.060 A 
HETATM   24 CL1  UNL     1      28.724   2.540  53.631  1.00  0.00    -0.082 Cl
ENDBRANCH  16  18
ENDBRANCH  15  16
ENDBRANCH  14  15
ENDBRANCH  13  14
ENDBRANCH   1  13
TORSDOF 8
ENDMDL
MODEL 3
REMARK VINA RESULT:      -6.4      1.822      2.776
REMARK  8 active torsions:
REMARK  status: ('A' for Active; 'I' for Inactive)
REMARK    1  A    between atoms: O1_2  and  C2_3 
REMARK    2  A    between atoms: N1_7  and  O2_8 
REMARK    3  A    between atoms: O2_8  and  P1_9 
REMARK    4  A    between atoms: P1_9  and  N2_10 
REMARK    5  A    between atoms: N2_10  and  C6_11 
REMARK    6  A    between atoms: C6_11  and  N3_12 
REMARK    7  A    between atoms: N3_12  and  C8_14 
REMARK    8  A    between atoms: C15_22  and  O3_23 
ROOT
HETATM    1  O2  UNL     1      23.362   2.939  52.079  1.00  0.00    -0.196 OA
ENDROOT
BRANCH   1   2
HETATM    2  N1  UNL     1      23.493   1.736  52.709  1.00  0.00    -0.132 NA
HETATM    3  C5  UNL     1      24.650   1.283  52.971  1.00  0.00     0.068 A 
HETATM    4  C4  UNL     1      24.464  -0.028  53.651  1.00  0.00     0.091 A 
HETATM    5  C14 UNL     1      25.975   1.833  52.714  1.00  0.00     0.069 A 
HETATM    6  C3  UNL     1      25.783  -0.636  53.997  1.00  0.00     0.019 A 
HETATM    7  C2  UNL     1      26.999  -0.121  53.755  1.00  0.00     0.098 A 
HETATM    8  C15 UNL     1      27.059   1.170  53.084  1.00  0.00     0.103 A 
BRANCH   7   9
HETATM    9  O1  UNL     1      28.162  -0.771  54.121  1.00  0.00    -0.353 OA
HETATM   10  C1  UNL     1      28.752  -1.644  53.175  1.00  0.00     0.210 C 
ENDBRANCH   7   9
BRANCH   8  11
HETATM   11  O3  UNL     1      28.273   1.740  52.814  1.00  0.00    -0.353 OA
HETATM   12  C16 UNL     1      29.006   2.475  53.766  1.00  0.00     0.210 C 
ENDBRANCH   8  11
ENDBRANCH   1   2
BRANCH   1  13
HETATM   13  P1  UNL     1      22.676   3.054  50.467  1.00  0.00     0.261 P 
BRANCH  13  14
HETATM   14  N2  UNL     1      23.622   3.498  49.245  1.00  0.00    -0.245 NA
BRANCH  14  15
HETATM   15  C6  UNL     1      23.714   4.803  48.700  1.00  0.00     0.274 C 
BRANCH  15  16
HETATM   16  N3  UNL     1      24.673   5.563  49.440  1.00  0.00    -0.366 N 
HETATM   17  C7  UNL     1      24.456   6.006  50.795  1.00  0.00     0.151 C 
BRANCH  16  18
HETATM   18  C8  UNL     1      25.935   5.937  48.859  1.00  0.00     0.053 A 
HETATM   19  C9  UNL     1      26.161   7.138  48.221  1.00  0.00     0.031 A 
HETATM   20  C10 UNL     1      27.419   7.402  47.692  1.00  0.00     0.002 A 
HETATM   21  C11 UNL     1      28.474   6.488  47.785  1.00  0.00     0.002 A 
HETATM   22  C12 UNL     1      28.248   5.279  48.427  1.00  0.00     0.026 A 
HETATM   23  C13 UNL     1      26.988   5.036  48.946  1.00  0.00     0.060 A 
HETATM   24 CL1  UNL     1      26.798   3.491  49.735  1.00  0.00    -0.082 Cl
ENDBRANCH  16  18
ENDBRANCH  15  16
ENDBRANCH  14  15
ENDBRANCH  13  14
ENDBRANCH   1  13
TORSDOF 8
ENDMDL
MODEL 4
REMARK VINA RESULT:      -6.4      4.814      8.161
REMARK  8 active torsions:
REMARK  status: ('A' for Active; 'I' for Inactive)
REMARK    1  A    between atoms: O1_2  and  C2_3 
REMARK    2  A    between atoms: N1_7  and  O2_8 
REMARK    3  A    between atoms: O2_8  and  P1_9 
REMARK    4  A    between atoms: P1_9  and  N2_10 
REMARK    5  A    between atoms: N2_10  and  C6_11 
REMARK    6  A    between atoms: C6_11  and  N3_12 
REMARK    7  A    between atoms: N3_12  and  C8_14 
REMARK    8  A    between atoms: C15_22  and  O3_23 
ROOT
HETATM    1  O2  UNL     1      25.922   4.855  49.010  1.00  0.00    -0.196 OA
ENDROOT
BRANCH   1   2
HETATM    2  N1  UNL     1      27.254   4.777  48.729  1.00  0.00    -0.132 NA
HETATM    3  C5  UNL     1      27.893   5.825  48.403  1.00  0.00     0.068 A 
HETATM    4  C4  UNL     1      29.305   5.422  48.161  1.00  0.00     0.091 A 
HETATM    5  C14 UNL     1      27.455   7.207  48.257  1.00  0.00     0.069 A 
HETATM    6  C3  UNL     1      30.133   6.600  47.770  1.00  0.00     0.019 A 
HETATM    7  C2  UNL     1      29.720   7.871  47.638  1.00  0.00     0.098 A 
HETATM    8  C15 UNL     1      28.315   8.149  47.900  1.00  0.00     0.103 A 
BRANCH   7   9
HETATM    9  O1  UNL     1      30.575   8.891  47.269  1.00  0.00    -0.353 OA
HETATM   10  C1  UNL     1      31.354   9.495  48.285  1.00  0.00     0.210 C 
ENDBRANCH   7   9
BRANCH   8  11
HETATM   11  O3  UNL     1      27.840   9.427  47.781  1.00  0.00    -0.353 OA
HETATM   12  C16 UNL     1      27.249  10.131  48.847  1.00  0.00     0.210 C 
ENDBRANCH   8  11
ENDBRANCH   1   2
BRANCH   1  13
HETATM   13  P1  UNL     1      25.186   3.823  50.227  1.00  0.00     0.261 P 
BRANCH  13  14
HETATM   14  N2  UNL     1      26.135   2.975  51.209  1.00  0.00    -0.245 NA
BRANCH  14  15
HETATM   15  C6  UNL     1      26.253   1.563  51.232  1.00  0.00     0.274 C 
BRANCH  15  16
HETATM   16  N3  UNL     1      26.444   1.121  52.579  1.00  0.00    -0.366 N 
HETATM   17  C7  UNL     1      25.554   1.470  53.658  1.00  0.00     0.151 C 
BRANCH  16  18
HETATM   18  C8  UNL     1      27.559   0.288  52.938  1.00  0.00     0.053 A 
HETATM   19  C9  UNL     1      27.561  -1.086  52.823  1.00  0.00     0.031 A 
HETATM   20  C10 UNL     1      28.692  -1.800  53.199  1.00  0.00     0.002 A 
HETATM   21  C11 UNL     1      29.840  -1.173  53.694  1.00  0.00     0.002 A 
HETATM   22  C12 UNL     1      29.841   0.210  53.810  1.00  0.00     0.026 A 
HETATM   23  C13 UNL     1      28.704   0.901  53.431  1.00  0.00     0.060 A 
HETATM   24 CL1  UNL     1      28.797   2.635  53.612  1.00  0.00    -0.082 Cl
ENDBRANCH  16  18
ENDBRANCH  15  16
ENDBRANCH  14  15
ENDBRANCH  13  14
ENDBRANCH   1  13
TORSDOF 8
ENDMDL
MODEL 5
REMARK VINA RESULT:      -6.4      3.896      7.425
REMARK  8 active torsions:
REMARK  status: ('A' for Active; 'I' for Inactive)
REMARK    1  A    between atoms: O1_2  and  C2_3 
REMARK    2  A    between atoms: N1_7  and  O2_8 
REMARK    3  A    between atoms: O2_8  and  P1_9 
REMARK    4  A    between atoms: P1_9  and  N2_10 
REMARK    5  A    between atoms: N2_10  and  C6_11 
REMARK    6  A    between atoms: C6_11  and  N3_12 
REMARK    7  A    between atoms: N3_12  and  C8_14 
REMARK    8  A    between atoms: C15_22  and  O3_23 
ROOT
HETATM    1  O2  UNL     1      24.396   3.136  50.360  1.00  0.00    -0.196 OA
ENDROOT
BRANCH   1   2
HETATM    2  N1  UNL     1      25.618   3.340  49.789  1.00  0.00    -0.132 NA
HETATM    3  C5  UNL     1      25.976   4.514  49.464  1.00  0.00     0.068 A 
HETATM    4  C4  UNL     1      27.338   4.411  48.873  1.00  0.00     0.091 A 
HETATM    5  C14 UNL     1      25.289   5.793  49.587  1.00  0.00     0.069 A 
HETATM    6  C3  UNL     1      27.840   5.755  48.460  1.00  0.00     0.019 A 
HETATM    7  C2  UNL     1      27.198   6.929  48.578  1.00  0.00     0.098 A 
HETATM    8  C15 UNL     1      25.868   6.909  49.171  1.00  0.00     0.103 A 
BRANCH   7   9
HETATM    9  O1  UNL     1      27.757   8.121  48.161  1.00  0.00    -0.353 OA
HETATM   10  C1  UNL     1      28.638   8.782  49.051  1.00  0.00     0.210 C 
ENDBRANCH   7   9
BRANCH   8  11
HETATM   11  O3  UNL     1      25.171   8.077  49.316  1.00  0.00    -0.353 OA
HETATM   12  C16 UNL     1      23.941   8.323  48.675  1.00  0.00     0.210 C 
ENDBRANCH   8  11
ENDBRANCH   1   2
BRANCH   1  13
HETATM   13  P1  UNL     1      24.201   3.101  52.105  1.00  0.00     0.261 P 
BRANCH  13  14
HETATM   14  N2  UNL     1      24.923   1.938  52.948  1.00  0.00    -0.245 NA
BRANCH  14  15
HETATM   15  C6  UNL     1      24.812   0.546  52.704  1.00  0.00     0.274 C 
BRANCH  15  16
HETATM   16  N3  UNL     1      25.466  -0.177  53.751  1.00  0.00    -0.366 N 
HETATM   17  C7  UNL     1      24.754  -0.889  54.783  1.00  0.00     0.151 C 
BRANCH  16  18
HETATM   18  C8  UNL     1      26.900  -0.232  53.833  1.00  0.00     0.053 A 
HETATM   19  C9  UNL     1      27.659   0.624  54.604  1.00  0.00     0.031 A 
HETATM   20  C10 UNL     1      29.042   0.486  54.613  1.00  0.00     0.002 A 
HETATM   21  C11 UNL     1      29.699  -0.497  53.866  1.00  0.00     0.002 A 
HETATM   22  C12 UNL     1      28.937  -1.359  53.091  1.00  0.00     0.026 A 
HETATM   23  C13 UNL     1      27.562  -1.205  53.095  1.00  0.00     0.060 A 
HETATM   24 CL1  UNL     1      26.687  -2.333  52.091  1.00  0.00    -0.082 Cl
ENDBRANCH  16  18
ENDBRANCH  15  16
ENDBRANCH  14  15
ENDBRANCH  13  14
ENDBRANCH   1  13
TORSDOF 8
ENDMDL
MODEL 6
REMARK VINA RESULT:      -6.4      1.578      2.529
REMARK  8 active torsions:
REMARK  status: ('A' for Active; 'I' for Inactive)
REMARK    1  A    between atoms: O1_2  and  C2_3 
REMARK    2  A    between atoms: N1_7  and  O2_8 
REMARK    3  A    between atoms: O2_8  and  P1_9 
REMARK    4  A    between atoms: P1_9  and  N2_10 
REMARK    5  A    between atoms: N2_10  and  C6_11 
REMARK    6  A    between atoms: C6_11  and  N3_12 
REMARK    7  A    between atoms: N3_12  and  C8_14 
REMARK    8  A    between atoms: C15_22  and  O3_23 
ROOT
HETATM    1  O2  UNL     1      24.012   3.608  53.476  1.00  0.00    -0.196 OA
ENDROOT
BRANCH   1   2
HETATM    2  N1  UNL     1      24.040   2.335  52.988  1.00  0.00    -0.132 NA
HETATM    3  C5  UNL     1      25.030   1.582  53.243  1.00  0.00     0.068 A 
HETATM    4  C4  UNL     1      24.769   0.274  52.581  1.00  0.00     0.091 A 
HETATM    5  C14 UNL     1      26.243   1.822  54.013  1.00  0.00     0.069 A 
HETATM    6  C3  UNL     1      25.891  -0.678  52.829  1.00  0.00     0.019 A 
HETATM    7  C2  UNL     1      27.006  -0.446  53.541  1.00  0.00     0.098 A 
HETATM    8  C15 UNL     1      27.154   0.871  54.144  1.00  0.00     0.103 A 
BRANCH   7   9
HETATM    9  O1  UNL     1      27.987  -1.404  53.710  1.00  0.00    -0.353 OA
HETATM   10  C1  UNL     1      28.022  -2.479  52.789  1.00  0.00     0.210 C 
ENDBRANCH   7   9
BRANCH   8  11
HETATM   11  O3  UNL     1      28.271   1.160  54.880  1.00  0.00    -0.353 OA
HETATM   12  C16 UNL     1      29.407   1.791  54.339  1.00  0.00     0.210 C 
ENDBRANCH   8  11
ENDBRANCH   1   2
BRANCH   1  13
HETATM   13  P1  UNL     1      23.284   4.919  52.562  1.00  0.00     0.261 P 
BRANCH  13  14
HETATM   14  N2  UNL     1      22.353   4.567  51.299  1.00  0.00    -0.245 NA
BRANCH  14  15
HETATM   15  C6  UNL     1      22.248   5.330  50.109  1.00  0.00     0.274 C 
BRANCH  15  16
HETATM   16  N3  UNL     1      22.963   4.676  49.058  1.00  0.00    -0.366 N 
HETATM   17  C7  UNL     1      22.322   4.125  47.890  1.00  0.00     0.151 C 
BRANCH  16  18
HETATM   18  C8  UNL     1      24.393   4.529  49.109  1.00  0.00     0.053 A 
HETATM   19  C9  UNL     1      25.032   3.365  49.484  1.00  0.00     0.031 A 
HETATM   20  C10 UNL     1      26.421   3.327  49.500  1.00  0.00     0.002 A 
HETATM   21  C11 UNL     1      27.202   4.432  49.148  1.00  0.00     0.002 A 
HETATM   22  C12 UNL     1      26.561   5.603  48.770  1.00  0.00     0.026 A 
HETATM   23  C13 UNL     1      25.177   5.620  48.761  1.00  0.00     0.060 A 
HETATM   24 CL1  UNL     1      24.459   7.134  48.273  1.00  0.00    -0.082 Cl
ENDBRANCH  16  18
ENDBRANCH  15  16
ENDBRANCH  14  15
ENDBRANCH  13  14
ENDBRANCH   1  13
TORSDOF 8
ENDMDL
MODEL 7
REMARK VINA RESULT:      -6.3      4.212      5.897
REMARK  8 active torsions:
REMARK  status: ('A' for Active; 'I' for Inactive)
REMARK    1  A    between atoms: O1_2  and  C2_3 
REMARK    2  A    between atoms: N1_7  and  O2_8 
REMARK    3  A    between atoms: O2_8  and  P1_9 
REMARK    4  A    between atoms: P1_9  and  N2_10 
REMARK    5  A    between atoms: N2_10  and  C6_11 
REMARK    6  A    between atoms: C6_11  and  N3_12 
REMARK    7  A    between atoms: N3_12  and  C8_14 
REMARK    8  A    between atoms: C15_22  and  O3_23 
ROOT
HETATM    1  O2  UNL     1      23.014   1.875  51.580  1.00  0.00    -0.196 OA
ENDROOT
BRANCH   1   2
HETATM    2  N1  UNL     1      24.366   1.892  51.401  1.00  0.00    -0.132 NA
HETATM    3  C5  UNL     1      25.113   1.207  52.165  1.00  0.00     0.068 A 
HETATM    4  C4  UNL     1      26.517   1.430  51.723  1.00  0.00     0.091 A 
HETATM    5  C14 UNL     1      24.793   0.334  53.287  1.00  0.00     0.069 A 
HETATM    6  C3  UNL     1      27.469   0.657  52.573  1.00  0.00     0.019 A 
HETATM    7  C2  UNL     1      27.163  -0.145  53.606  1.00  0.00     0.098 A 
HETATM    8  C15 UNL     1      25.756  -0.288  53.949  1.00  0.00     0.103 A 
BRANCH   7   9
HETATM    9  O1  UNL     1      28.129  -0.818  54.329  1.00  0.00    -0.353 OA
HETATM   10  C1  UNL     1      29.472  -0.702  53.900  1.00  0.00     0.210 C 
ENDBRANCH   7   9
BRANCH   8  11
HETATM   11  O3  UNL     1      25.388  -1.093  54.993  1.00  0.00    -0.353 OA
HETATM   12  C16 UNL     1      24.053  -1.245  55.415  1.00  0.00     0.210 C 
ENDBRANCH   8  11
ENDBRANCH   1   2
BRANCH   1  13
HETATM   13  P1  UNL     1      22.078   3.361  51.595  1.00  0.00     0.261 P 
BRANCH  13  14
HETATM   14  N2  UNL     1      20.503   3.296  51.281  1.00  0.00    -0.245 NA
BRANCH  14  15
HETATM   15  C6  UNL     1      19.545   2.538  52.000  1.00  0.00     0.274 C 
BRANCH  15  16
HETATM   16  N3  UNL     1      19.324   1.292  51.334  1.00  0.00    -0.366 N 
HETATM   17  C7  UNL     1      19.708   1.049  49.966  1.00  0.00     0.151 C 
BRANCH  16  18
HETATM   18  C8  UNL     1      18.692   0.189  52.007  1.00  0.00     0.053 A 
HETATM   19  C9  UNL     1      17.394  -0.212  51.771  1.00  0.00     0.031 A 
HETATM   20  C10 UNL     1      16.876  -1.292  52.477  1.00  0.00     0.002 A 
HETATM   21  C11 UNL     1      17.628  -1.994  53.424  1.00  0.00     0.002 A 
HETATM   22  C12 UNL     1      18.935  -1.592  53.661  1.00  0.00     0.026 A 
HETATM   23  C13 UNL     1      19.431  -0.515  52.949  1.00  0.00     0.060 A 
HETATM   24 CL1  UNL     1      21.082  -0.081  53.314  1.00  0.00    -0.082 Cl
ENDBRANCH  16  18
ENDBRANCH  15  16
ENDBRANCH  14  15
ENDBRANCH  13  14
ENDBRANCH   1  13
TORSDOF 8
ENDMDL
MODEL 8
REMARK VINA RESULT:      -6.3      3.521      5.131
REMARK  8 active torsions:
REMARK  status: ('A' for Active; 'I' for Inactive)
REMARK    1  A    between atoms: O1_2  and  C2_3 
REMARK    2  A    between atoms: N1_7  and  O2_8 
REMARK    3  A    between atoms: O2_8  and  P1_9 
REMARK    4  A    between atoms: P1_9  and  N2_10 
REMARK    5  A    between atoms: N2_10  and  C6_11 
REMARK    6  A    between atoms: C6_11  and  N3_12 
REMARK    7  A    between atoms: N3_12  and  C8_14 
REMARK    8  A    between atoms: C15_22  and  O3_23 
ROOT
HETATM    1  O2  UNL     1      23.623   2.443  51.790  1.00  0.00    -0.196 OA
ENDROOT
BRANCH   1   2
HETATM    2  N1  UNL     1      24.977   2.599  51.850  1.00  0.00    -0.132 NA
HETATM    3  C5  UNL     1      25.678   1.780  52.522  1.00  0.00     0.068 A 
HETATM    4  C4  UNL     1      27.097   2.210  52.394  1.00  0.00     0.091 A 
HETATM    5  C14 UNL     1      25.298   0.613  53.306  1.00  0.00     0.069 A 
HETATM    6  C3  UNL     1      27.998   1.297  53.158  1.00  0.00     0.019 A 
HETATM    7  C2  UNL     1      27.637   0.223  53.879  1.00  0.00     0.098 A 
HETATM    8  C15 UNL     1      26.219  -0.103  53.933  1.00  0.00     0.103 A 
BRANCH   7   9
HETATM    9  O1  UNL     1      28.558  -0.557  54.551  1.00  0.00    -0.353 OA
HETATM   10  C1  UNL     1      29.736  -0.928  53.860  1.00  0.00     0.210 C 
ENDBRANCH   7   9
BRANCH   8  11
HETATM   11  O3  UNL     1      25.797  -1.187  54.653  1.00  0.00    -0.353 OA
HETATM   12  C16 UNL     1      24.674  -1.158  55.501  1.00  0.00     0.210 C 
ENDBRANCH   8  11
ENDBRANCH   1   2
BRANCH   1  13
HETATM   13  P1  UNL     1      22.551   3.829  51.677  1.00  0.00     0.261 P 
BRANCH  13  14
HETATM   14  N2  UNL     1      20.965   3.583  51.568  1.00  0.00    -0.245 NA
BRANCH  14  15
HETATM   15  C6  UNL     1      20.291   2.998  50.467  1.00  0.00     0.274 C 
BRANCH  15  16
HETATM   16  N3  UNL     1      20.562   1.594  50.433  1.00  0.00    -0.366 N 
HETATM   17  C7  UNL     1      21.325   0.962  49.385  1.00  0.00     0.151 C 
BRANCH  16  18
HETATM   18  C8  UNL     1      20.076   0.717  51.463  1.00  0.00     0.053 A 
HETATM   19  C9  UNL     1      20.818   0.336  52.561  1.00  0.00     0.031 A 
HETATM   20  C10 UNL     1      20.254  -0.518  53.501  1.00  0.00     0.002 A 
HETATM   21  C11 UNL     1      18.952  -1.011  53.375  1.00  0.00     0.002 A 
HETATM   22  C12 UNL     1      18.203  -0.629  52.271  1.00  0.00     0.026 A 
HETATM   23  C13 UNL     1      18.783   0.222  51.347  1.00  0.00     0.060 A 
HETATM   24 CL1  UNL     1      17.768   0.647  49.992  1.00  0.00    -0.082 Cl
ENDBRANCH  16  18
ENDBRANCH  15  16
ENDBRANCH  14  15
ENDBRANCH  13  14
ENDBRANCH   1  13
TORSDOF 8
ENDMDL
MODEL 9
REMARK VINA RESULT:      -6.2      4.839      8.113
REMARK  8 active torsions:
REMARK  status: ('A' for Active; 'I' for Inactive)
REMARK    1  A    between atoms: O1_2  and  C2_3 
REMARK    2  A    between atoms: N1_7  and  O2_8 
REMARK    3  A    between atoms: O2_8  and  P1_9 
REMARK    4  A    between atoms: P1_9  and  N2_10 
REMARK    5  A    between atoms: N2_10  and  C6_11 
REMARK    6  A    between atoms: C6_11  and  N3_12 
REMARK    7  A    between atoms: N3_12  and  C8_14 
REMARK    8  A    between atoms: C15_22  and  O3_23 
ROOT
HETATM    1  O2  UNL     1      26.778   4.614  49.162  1.00  0.00    -0.196 OA
ENDROOT
BRANCH   1   2
HETATM    2  N1  UNL     1      26.796   5.830  48.545  1.00  0.00    -0.132 NA
HETATM    3  C5  UNL     1      27.891   6.300  48.106  1.00  0.00     0.068 A 
HETATM    4  C4  UNL     1      27.587   7.622  47.493  1.00  0.00     0.091 A 
HETATM    5  C14 UNL     1      29.244   5.760  48.131  1.00  0.00     0.069 A 
HETATM    6  C3  UNL     1      28.827   8.251  46.949  1.00  0.00     0.019 A 
HETATM    7  C2  UNL     1      30.070   7.744  46.977  1.00  0.00     0.098 A 
HETATM    8  C15 UNL     1      30.248   6.441  47.603  1.00  0.00     0.103 A 
BRANCH   7   9
HETATM    9  O1  UNL     1      31.153   8.412  46.441  1.00  0.00    -0.353 OA
HETATM   10  C1  UNL     1      30.892   9.551  45.641  1.00  0.00     0.210 C 
ENDBRANCH   7   9
BRANCH   8  11
HETATM   11  O3  UNL     1      31.494   5.878  47.659  1.00  0.00    -0.353 OA
HETATM   12  C16 UNL     1      32.065   5.389  48.850  1.00  0.00     0.210 C 
ENDBRANCH   8  11
ENDBRANCH   1   2
BRANCH   1  13
HETATM   13  P1  UNL     1      25.378   4.077  50.076  1.00  0.00     0.261 P 
BRANCH  13  14
HETATM   14  N2  UNL     1      25.579   2.996  51.250  1.00  0.00    -0.245 NA
BRANCH  14  15
HETATM   15  C6  UNL     1      26.520   1.936  51.248  1.00  0.00     0.274 C 
BRANCH  15  16
HETATM   16  N3  UNL     1      26.460   1.241  52.496  1.00  0.00    -0.366 N 
HETATM   17  C7  UNL     1      25.395   1.424  53.451  1.00  0.00     0.151 C 
BRANCH  16  18
HETATM   18  C8  UNL     1      27.481   0.303  52.876  1.00  0.00     0.053 A 
HETATM   19  C9  UNL     1      27.372  -1.061  52.705  1.00  0.00     0.031 A 
HETATM   20  C10 UNL     1      28.418  -1.884  53.107  1.00  0.00     0.002 A 
HETATM   21  C11 UNL     1      29.587  -1.376  53.684  1.00  0.00     0.002 A 
HETATM   22  C12 UNL     1      29.698  -0.003  53.856  1.00  0.00     0.026 A 
HETATM   23  C13 UNL     1      28.645   0.797  53.449  1.00  0.00     0.060 A 
HETATM   24 CL1  UNL     1      28.874   2.508  53.705  1.00  0.00    -0.082 Cl
ENDBRANCH  16  18
ENDBRANCH  15  16
ENDBRANCH  14  15
ENDBRANCH  13  14
ENDBRANCH   1  13
TORSDOF 8
ENDMDL
