MODEL 1
REMARK VINA RESULT:      -8.2      0.000      0.000
REMARK  4 active torsions:
REMARK  status: ('A' for Active; 'I' for Inactive)
REMARK    1  A    between atoms: C1_1  and  C2_2 
REMARK    2  A    between atoms: C1_1  and  C16_22 
REMARK    3  A    between atoms: C2_2  and  C3_3 
REMARK    4  A    between atoms: C3_3  and  C4_4 
ROOT
HETATM    1  C4  UNL     1      24.754   2.016  51.870  1.00  0.00     0.052 A 
HETATM    2  N1  UNL     1      24.936   2.800  50.739  1.00  0.00    -0.245 NA
HETATM    3  C5  UNL     1      26.270   3.118  50.525  1.00  0.00     0.234 A 
HETATM    4  N2  UNL     1      27.181   2.693  51.321  1.00  0.00    -0.241 NA
HETATM    5  C6  UNL     1      27.331   1.995  52.382  1.00  0.00     0.072 A 
HETATM    6  C7  UNL     1      25.988   1.863  52.315  1.00  0.00     0.027 A 
HETATM    7  C8  UNL     1      25.750   0.501  52.669  1.00  0.00    -0.011 A 
HETATM    8  C9  UNL     1      24.742  -0.550  52.703  1.00  0.00     0.208 A 
HETATM    9  O1  UNL     1      25.026  -1.301  53.896  1.00  0.00    -0.385 OA
HETATM   10  C10 UNL     1      25.149  -0.588  55.030  1.00  0.00     0.194 C 
HETATM   11  C11 UNL     1      26.303   0.036  55.668  1.00  0.00     0.197 C 
HETATM   12  O2  UNL     1      27.206   0.930  55.262  1.00  0.00    -0.356 OA
HETATM   13  C12 UNL     1      28.303   0.556  54.632  1.00  0.00     0.286 C 
HETATM   14  C13 UNL     1      28.073   1.461  53.247  1.00  0.00     0.065 C 
HETATM   15  O3  UNL     1      27.611  -0.792  54.181  1.00  0.00    -0.358 OA
HETATM   16  C14 UNL     1      28.076  -0.981  52.883  1.00  0.00     0.171 C 
HETATM   17  C15 UNL     1      26.754  -1.797  52.487  1.00  0.00     0.028 C 
HETATM   18  O4  UNL     1      25.824  -0.769  53.071  1.00  0.00     0.000 OA
ENDROOT
BRANCH   1  19
HETATM   19  C3  UNL     1      23.303   1.970  52.059  1.00  0.00     0.087 C 
BRANCH  19  20
HETATM   20  C2  UNL     1      22.626   1.819  50.686  1.00  0.00    -0.021 C 
BRANCH  20  21
HETATM   21  C1  UNL     1      21.622   0.883  50.718  1.00  0.00    -0.001 C 
BRANCH  21  22
HETATM   22  C16 UNL     1      21.129   0.306  51.960  1.00  0.00     0.037 C 
HETATM   23  C17 UNL     1      19.935  -0.082  52.337  1.00  0.00     0.076 A 
HETATM   24  C18 UNL     1      18.732   0.000  51.474  1.00  0.00     0.062 A 
HETATM   25  O5  UNL     1      19.197  -0.613  53.327  1.00  0.00    -0.323 OA
HETATM   26  C19 UNL     1      18.074  -0.537  52.534  1.00  0.00     0.145 A 
ENDBRANCH  21  22
ENDBRANCH  20  21
ENDBRANCH  19  20
ENDBRANCH   1  19
TORSDOF 4
ENDMDL
MODEL 2
REMARK VINA RESULT:      -8.2      2.871      7.106
REMARK  4 active torsions:
REMARK  status: ('A' for Active; 'I' for Inactive)
REMARK    1  A    between atoms: C1_1  and  C2_2 
REMARK    2  A    between atoms: C1_1  and  C16_22 
REMARK    3  A    between atoms: C2_2  and  C3_3 
REMARK    4  A    between atoms: C3_3  and  C4_4 
ROOT
HETATM    1  C4  UNL     1      23.074   0.133  53.443  1.00  0.00     0.052 A 
HETATM    2  N1  UNL     1      22.972  -1.137  53.994  1.00  0.00    -0.245 NA
HETATM    3  C5  UNL     1      21.661  -1.588  54.045  1.00  0.00     0.234 A 
HETATM    4  N2  UNL     1      20.699  -0.860  53.605  1.00  0.00    -0.241 NA
HETATM    5  C6  UNL     1      20.477   0.279  53.070  1.00  0.00     0.072 A 
HETATM    6  C7  UNL     1      21.818   0.424  53.158  1.00  0.00     0.027 A 
HETATM    7  C8  UNL     1      22.185   1.052  51.930  1.00  0.00    -0.011 A 
HETATM    8  C9  UNL     1      23.312   1.417  51.083  1.00  0.00     0.208 A 
HETATM    9  O1  UNL     1      22.945   2.677  50.495  1.00  0.00    -0.385 OA
HETATM   10  C10 UNL     1      22.535   3.633  51.349  1.00  0.00     0.194 C 
HETATM   11  C11 UNL     1      21.216   3.980  51.864  1.00  0.00     0.197 C 
HETATM   12  O2  UNL     1      20.274   3.296  52.517  1.00  0.00    -0.356 OA
HETATM   13  C12 UNL     1      19.361   2.600  51.867  1.00  0.00     0.286 C 
HETATM   14  C13 UNL     1      19.686   1.117  52.564  1.00  0.00     0.065 C 
HETATM   15  O3  UNL     1      20.302   2.504  50.601  1.00  0.00    -0.358 OA
HETATM   16  C14 UNL     1      20.089   1.211  50.131  1.00  0.00     0.171 C 
HETATM   17  C15 UNL     1      21.561   1.159  49.496  1.00  0.00     0.028 C 
HETATM   18  O4  UNL     1      22.226   1.667  50.746  1.00  0.00     0.000 OA
ENDROOT
BRANCH   1  19
HETATM   19  C3  UNL     1      24.466   0.526  53.673  1.00  0.00     0.087 C 
BRANCH  19  20
HETATM   20  C2  UNL     1      25.369  -0.704  53.479  1.00  0.00    -0.021 C 
BRANCH  20  21
HETATM   21  C1  UNL     1      26.344  -0.472  52.541  1.00  0.00    -0.001 C 
BRANCH  21  22
HETATM   22  C16 UNL     1      26.923   0.846  52.323  1.00  0.00     0.037 C 
HETATM   23  C17 UNL     1      27.863   1.509  52.952  1.00  0.00     0.076 A 
HETATM   24  C18 UNL     1      28.594   0.982  54.130  1.00  0.00     0.062 A 
HETATM   25  O5  UNL     1      28.577   2.646  53.008  1.00  0.00    -0.323 OA
HETATM   26  C19 UNL     1      29.259   2.166  54.104  1.00  0.00     0.145 A 
ENDBRANCH  21  22
ENDBRANCH  20  21
ENDBRANCH  19  20
ENDBRANCH   1  19
TORSDOF 4
ENDMDL
MODEL 3
REMARK VINA RESULT:      -7.8      3.447      7.069
REMARK  4 active torsions:
REMARK  status: ('A' for Active; 'I' for Inactive)
REMARK    1  A    between atoms: C1_1  and  C2_2 
REMARK    2  A    between atoms: C1_1  and  C16_22 
REMARK    3  A    between atoms: C2_2  and  C3_3 
REMARK    4  A    between atoms: C3_3  and  C4_4 
ROOT
HETATM    1  C4  UNL     1      22.848   1.645  52.728  1.00  0.00     0.052 A 
HETATM    2  N1  UNL     1      21.996   0.694  53.270  1.00  0.00    -0.245 NA
HETATM    3  C5  UNL     1      20.666   1.085  53.220  1.00  0.00     0.234 A 
HETATM    4  N2  UNL     1      20.332   2.213  52.708  1.00  0.00    -0.241 NA
HETATM    5  C6  UNL     1      20.845   3.247  52.156  1.00  0.00     0.072 A 
HETATM    6  C7  UNL     1      22.013   2.596  52.346  1.00  0.00     0.027 A 
HETATM    7  C8  UNL     1      22.751   2.840  51.150  1.00  0.00    -0.011 A 
HETATM    8  C9  UNL     1      23.932   2.449  50.391  1.00  0.00     0.208 A 
HETATM    9  O1  UNL     1      24.399   3.662  49.776  1.00  0.00    -0.385 OA
HETATM   10  C10 UNL     1      24.566   4.716  50.595  1.00  0.00     0.194 C 
HETATM   11  C11 UNL     1      23.662   5.784  51.007  1.00  0.00     0.197 C 
HETATM   12  O2  UNL     1      22.460   5.799  51.586  1.00  0.00    -0.356 OA
HETATM   13  C12 UNL     1      21.355   5.730  50.869  1.00  0.00     0.286 C 
HETATM   14  C13 UNL     1      20.718   4.364  51.590  1.00  0.00     0.065 C 
HETATM   15  O3  UNL     1      22.144   5.051  49.679  1.00  0.00    -0.358 OA
HETATM   16  C14 UNL     1      21.251   4.098  49.195  1.00  0.00     0.171 C 
HETATM   17  C15 UNL     1      22.457   3.178  48.675  1.00  0.00     0.028 C 
HETATM   18  O4  UNL     1      23.214   3.264  49.972  1.00  0.00     0.000 OA
ENDROOT
BRANCH   1  19
HETATM   19  C3  UNL     1      24.193   1.174  53.064  1.00  0.00     0.087 C 
BRANCH  19  20
HETATM   20  C2  UNL     1      24.098  -0.269  53.588  1.00  0.00    -0.021 C 
BRANCH  20  21
HETATM   21  C1  UNL     1      25.321  -0.741  53.996  1.00  0.00    -0.001 C 
BRANCH  21  22
HETATM   22  C16 UNL     1      26.275   0.084  54.722  1.00  0.00     0.037 C 
HETATM   23  C17 UNL     1      27.559   0.295  54.558  1.00  0.00     0.076 A 
HETATM   24  C18 UNL     1      28.366  -0.332  53.484  1.00  0.00     0.062 A 
HETATM   25  O5  UNL     1      28.648   0.940  55.010  1.00  0.00    -0.323 OA
HETATM   26  C19 UNL     1      29.405   0.360  54.018  1.00  0.00     0.145 A 
ENDBRANCH  21  22
ENDBRANCH  20  21
ENDBRANCH  19  20
ENDBRANCH   1  19
TORSDOF 4
ENDMDL
MODEL 4
REMARK VINA RESULT:      -7.7      3.027      6.839
REMARK  4 active torsions:
REMARK  status: ('A' for Active; 'I' for Inactive)
REMARK    1  A    between atoms: C1_1  and  C2_2 
REMARK    2  A    between atoms: C1_1  and  C16_22 
REMARK    3  A    between atoms: C2_2  and  C3_3 
REMARK    4  A    between atoms: C3_3  and  C4_4 
ROOT
HETATM    1  C4  UNL     1      24.766   2.579  51.812  1.00  0.00     0.052 A 
HETATM    2  N1  UNL     1      26.139   2.635  51.614  1.00  0.00    -0.245 NA
HETATM    3  C5  UNL     1      26.472   3.041  50.330  1.00  0.00     0.234 A 
HETATM    4  N2  UNL     1      25.559   3.326  49.474  1.00  0.00    -0.241 NA
HETATM    5  C6  UNL     1      24.287   3.376  49.354  1.00  0.00     0.072 A 
HETATM    6  C7  UNL     1      24.291   2.967  50.642  1.00  0.00     0.027 A 
HETATM    7  C8  UNL     1      23.248   3.724  51.255  1.00  0.00    -0.011 A 
HETATM    8  C9  UNL     1      22.656   4.098  52.532  1.00  0.00     0.208 A 
HETATM    9  O1  UNL     1      21.242   4.175  52.280  1.00  0.00    -0.385 OA
HETATM   10  C10 UNL     1      20.688   3.105  51.681  1.00  0.00     0.194 C 
HETATM   11  C11 UNL     1      20.482   2.772  50.277  1.00  0.00     0.197 C 
HETATM   12  O2  UNL     1      21.300   2.665  49.227  1.00  0.00    -0.356 OA
HETATM   13  C12 UNL     1      21.601   3.714  48.486  1.00  0.00     0.286 C 
HETATM   14  C13 UNL     1      23.260   3.640  48.677  1.00  0.00     0.065 C 
HETATM   15  O3  UNL     1      21.245   4.687  49.679  1.00  0.00    -0.358 OA
HETATM   16  C14 UNL     1      22.216   5.681  49.593  1.00  0.00     0.171 C 
HETATM   17  C15 UNL     1      22.116   5.968  51.167  1.00  0.00     0.028 C 
HETATM   18  O4  UNL     1      22.211   4.515  51.540  1.00  0.00     0.000 OA
ENDROOT
BRANCH   1  19
HETATM   19  C3  UNL     1      24.605   1.931  53.115  1.00  0.00     0.087 C 
BRANCH  19  20
HETATM   20  C2  UNL     1      24.410   0.421  52.898  1.00  0.00    -0.021 C 
BRANCH  20  21
HETATM   21  C1  UNL     1      25.159  -0.317  53.781  1.00  0.00    -0.001 C 
BRANCH  21  22
HETATM   22  C16 UNL     1      26.192   0.275  54.618  1.00  0.00     0.037 C 
HETATM   23  C17 UNL     1      27.499   0.292  54.523  1.00  0.00     0.076 A 
HETATM   24  C18 UNL     1      28.253  -0.359  53.425  1.00  0.00     0.062 A 
HETATM   25  O5  UNL     1      28.651   0.711  55.075  1.00  0.00    -0.323 OA
HETATM   26  C19 UNL     1      29.359   0.107  54.061  1.00  0.00     0.145 A 
ENDBRANCH  21  22
ENDBRANCH  20  21
ENDBRANCH  19  20
ENDBRANCH   1  19
TORSDOF 4
ENDMDL
MODEL 5
REMARK VINA RESULT:      -7.2      3.287      5.272
REMARK  4 active torsions:
REMARK  status: ('A' for Active; 'I' for Inactive)
REMARK    1  A    between atoms: C1_1  and  C2_2 
REMARK    2  A    between atoms: C1_1  and  C16_22 
REMARK    3  A    between atoms: C2_2  and  C3_3 
REMARK    4  A    between atoms: C3_3  and  C4_4 
ROOT
HETATM    1  C4  UNL     1      24.870   2.204  52.451  1.00  0.00     0.052 A 
HETATM    2  N1  UNL     1      26.116   1.738  52.847  1.00  0.00    -0.245 NA
HETATM    3  C5  UNL     1      27.127   2.129  51.981  1.00  0.00     0.234 A 
HETATM    4  N2  UNL     1      26.867   2.849  50.952  1.00  0.00    -0.241 NA
HETATM    5  C6  UNL     1      25.888   3.410  50.350  1.00  0.00     0.072 A 
HETATM    6  C7  UNL     1      25.153   2.883  51.353  1.00  0.00     0.027 A 
HETATM    7  C8  UNL     1      24.220   3.912  51.684  1.00  0.00    -0.011 A 
HETATM    8  C9  UNL     1      23.228   4.334  52.663  1.00  0.00     0.208 A 
HETATM    9  O1  UNL     1      22.203   4.991  51.897  1.00  0.00    -0.385 OA
HETATM   10  C10 UNL     1      21.717   4.304  50.846  1.00  0.00     0.194 C 
HETATM   11  C11 UNL     1      22.123   4.248  49.447  1.00  0.00     0.197 C 
HETATM   12  O2  UNL     1      23.271   3.952  48.833  1.00  0.00    -0.356 OA
HETATM   13  C12 UNL     1      24.184   4.878  48.611  1.00  0.00     0.286 C 
HETATM   14  C13 UNL     1      25.441   4.135  49.423  1.00  0.00     0.065 C 
HETATM   15  O3  UNL     1      23.604   5.764  49.784  1.00  0.00    -0.358 OA
HETATM   16  C14 UNL     1      24.741   6.298  50.385  1.00  0.00     0.171 C 
HETATM   17  C15 UNL     1      23.987   6.413  51.796  1.00  0.00     0.028 C 
HETATM   18  O4  UNL     1      23.458   5.006  51.741  1.00  0.00     0.000 OA
ENDROOT
BRANCH   1  19
HETATM   19  C3  UNL     1      23.921   1.522  53.333  1.00  0.00     0.087 C 
BRANCH  19  20
HETATM   20  C2  UNL     1      24.119   0.003  53.197  1.00  0.00    -0.021 C 
BRANCH  20  21
HETATM   21  C1  UNL     1      22.922  -0.669  53.239  1.00  0.00    -0.001 C 
BRANCH  21  22
HETATM   22  C16 UNL     1      21.639   0.019  53.251  1.00  0.00     0.037 C 
HETATM   23  C17 UNL     1      20.874   0.469  52.286  1.00  0.00     0.076 A 
HETATM   24  C18 UNL     1      21.206   0.346  50.846  1.00  0.00     0.062 A 
HETATM   25  O5  UNL     1      19.726   1.096  51.975  1.00  0.00    -0.323 OA
HETATM   26  C19 UNL     1      20.029   0.989  50.636  1.00  0.00     0.145 A 
ENDBRANCH  21  22
ENDBRANCH  20  21
ENDBRANCH  19  20
ENDBRANCH   1  19
TORSDOF 4
ENDMDL
MODEL 6
REMARK VINA RESULT:      -7.1      4.645      7.755
REMARK  4 active torsions:
REMARK  status: ('A' for Active; 'I' for Inactive)
REMARK    1  A    between atoms: C1_1  and  C2_2 
REMARK    2  A    between atoms: C1_1  and  C16_22 
REMARK    3  A    between atoms: C2_2  and  C3_3 
REMARK    4  A    between atoms: C3_3  and  C4_4 
ROOT
HETATM    1  C4  UNL     1      25.920   4.176  49.494  1.00  0.00     0.052 A 
HETATM    2  N1  UNL     1      27.286   4.000  49.330  1.00  0.00    -0.245 NA
HETATM    3  C5  UNL     1      27.874   5.044  48.629  1.00  0.00     0.234 A 
HETATM    4  N2  UNL     1      27.171   6.034  48.216  1.00  0.00    -0.241 NA
HETATM    5  C6  UNL     1      25.968   6.468  48.209  1.00  0.00     0.072 A 
HETATM    6  C7  UNL     1      25.705   5.335  48.897  1.00  0.00     0.027 A 
HETATM    7  C8  UNL     1      24.772   5.740  49.898  1.00  0.00    -0.011 A 
HETATM    8  C9  UNL     1      24.101   5.325  51.122  1.00  0.00     0.208 A 
HETATM    9  O1  UNL     1      22.785   5.899  51.040  1.00  0.00    -0.385 OA
HETATM   10  C10 UNL     1      22.105   5.662  49.903  1.00  0.00     0.194 C 
HETATM   11  C11 UNL     1      22.031   6.390  48.642  1.00  0.00     0.197 C 
HETATM   12  O2  UNL     1      22.946   6.791  47.757  1.00  0.00    -0.356 OA
HETATM   13  C12 UNL     1      23.563   7.949  47.890  1.00  0.00     0.286 C 
HETATM   14  C13 UNL     1      25.125   7.356  47.919  1.00  0.00     0.065 C 
HETATM   15  O3  UNL     1      23.259   7.959  49.441  1.00  0.00    -0.358 OA
HETATM   16  C14 UNL     1      24.422   8.483  50.000  1.00  0.00     0.171 C 
HETATM   17  C15 UNL     1      24.167   7.688  51.369  1.00  0.00     0.028 C 
HETATM   18  O4  UNL     1      23.897   6.381  50.676  1.00  0.00     0.000 OA
ENDROOT
BRANCH   1  19
HETATM   19  C3  UNL     1      25.445   2.904  50.041  1.00  0.00     0.087 C 
BRANCH  19  20
HETATM   20  C2  UNL     1      26.522   2.332  50.979  1.00  0.00    -0.021 C 
BRANCH  20  21
HETATM   21  C1  UNL     1      25.971   1.547  51.962  1.00  0.00    -0.001 C 
BRANCH  21  22
HETATM   22  C16 UNL     1      26.501   0.236  52.303  1.00  0.00     0.037 C 
HETATM   23  C17 UNL     1      27.511  -0.138  53.052  1.00  0.00     0.076 A 
HETATM   24  C18 UNL     1      28.397   0.809  53.771  1.00  0.00     0.062 A 
HETATM   25  O5  UNL     1      28.213  -1.175  53.538  1.00  0.00    -0.323 OA
HETATM   26  C19 UNL     1      29.042  -0.303  54.206  1.00  0.00     0.145 A 
ENDBRANCH  21  22
ENDBRANCH  20  21
ENDBRANCH  19  20
ENDBRANCH   1  19
TORSDOF 4
ENDMDL
MODEL 7
REMARK VINA RESULT:      -7.1      3.810      7.162
REMARK  4 active torsions:
REMARK  status: ('A' for Active; 'I' for Inactive)
REMARK    1  A    between atoms: C1_1  and  C2_2 
REMARK    2  A    between atoms: C1_1  and  C16_22 
REMARK    3  A    between atoms: C2_2  and  C3_3 
REMARK    4  A    between atoms: C3_3  and  C4_4 
ROOT
HETATM    1  C4  UNL     1      25.253   3.182  50.712  1.00  0.00     0.052 A 
HETATM    2  N1  UNL     1      26.456   2.513  50.886  1.00  0.00    -0.245 NA
HETATM    3  C5  UNL     1      26.312   1.345  51.621  1.00  0.00     0.234 A 
HETATM    4  N2  UNL     1      25.161   0.981  52.055  1.00  0.00    -0.241 NA
HETATM    5  C6  UNL     1      23.936   1.350  52.061  1.00  0.00     0.072 A 
HETATM    6  C7  UNL     1      24.395   2.396  51.339  1.00  0.00     0.027 A 
HETATM    7  C8  UNL     1      23.396   2.599  50.340  1.00  0.00    -0.011 A 
HETATM    8  C9  UNL     1      23.095   3.298  49.097  1.00  0.00     0.208 A 
HETATM    9  O1  UNL     1      21.697   3.624  49.182  1.00  0.00    -0.385 OA
HETATM   10  C10 UNL     1      21.301   4.251  50.304  1.00  0.00     0.194 C 
HETATM   11  C11 UNL     1      20.818   3.747  51.585  1.00  0.00     0.197 C 
HETATM   12  O2  UNL     1      21.321   2.905  52.490  1.00  0.00    -0.356 OA
HETATM   13  C12 UNL     1      21.125   1.604  52.396  1.00  0.00     0.286 C 
HETATM   14  C13 UNL     1      22.732   1.149  52.366  1.00  0.00     0.065 C 
HETATM   15  O3  UNL     1      20.863   1.733  50.842  1.00  0.00    -0.358 OA
HETATM   16  C14 UNL     1      21.479   0.604  50.310  1.00  0.00     0.171 C 
HETATM   17  C15 UNL     1      21.737   1.355  48.917  1.00  0.00     0.028 C 
HETATM   18  O4  UNL     1      22.305   2.585  49.570  1.00  0.00     0.000 OA
ENDROOT
BRANCH   1  19
HETATM   19  C3  UNL     1      25.625   4.470  50.126  1.00  0.00     0.087 C 
BRANCH  19  20
HETATM   20  C2  UNL     1      26.840   4.265  49.204  1.00  0.00    -0.021 C 
BRANCH  20  21
HETATM   21  C1  UNL     1      27.268   5.451  48.659  1.00  0.00    -0.001 C 
BRANCH  21  22
HETATM   22  C16 UNL     1      26.348   6.507  48.265  1.00  0.00     0.037 C 
HETATM   23  C17 UNL     1      26.111   7.698  48.760  1.00  0.00     0.076 A 
HETATM   24  C18 UNL     1      26.814   8.253  49.941  1.00  0.00     0.062 A 
HETATM   25  O5  UNL     1      25.392   8.828  48.648  1.00  0.00    -0.323 OA
HETATM   26  C19 UNL     1      26.038   9.350  49.746  1.00  0.00     0.145 A 
ENDBRANCH  21  22
ENDBRANCH  20  21
ENDBRANCH  19  20
ENDBRANCH   1  19
TORSDOF 4
ENDMDL
MODEL 8
REMARK VINA RESULT:      -7.0      2.734      7.262
REMARK  4 active torsions:
REMARK  status: ('A' for Active; 'I' for Inactive)
REMARK    1  A    between atoms: C1_1  and  C2_2 
REMARK    2  A    between atoms: C1_1  and  C16_22 
REMARK    3  A    between atoms: C2_2  and  C3_3 
REMARK    4  A    between atoms: C3_3  and  C4_4 
ROOT
HETATM    1  C4  UNL     1      23.320   2.262  52.286  1.00  0.00     0.052 A 
HETATM    2  N1  UNL     1      24.038   2.987  53.226  1.00  0.00    -0.245 NA
HETATM    3  C5  UNL     1      23.867   4.356  53.083  1.00  0.00     0.234 A 
HETATM    4  N2  UNL     1      23.105   4.830  52.166  1.00  0.00    -0.241 NA
HETATM    5  C6  UNL     1      22.349   4.453  51.206  1.00  0.00     0.072 A 
HETATM    6  C7  UNL     1      22.712   3.211  51.595  1.00  0.00     0.027 A 
HETATM    7  C8  UNL     1      21.512   2.446  51.496  1.00  0.00    -0.011 A 
HETATM    8  C9  UNL     1      20.892   1.173  51.839  1.00  0.00     0.208 A 
HETATM    9  O1  UNL     1      20.033   0.864  50.728  1.00  0.00    -0.385 OA
HETATM   10  C10 UNL     1      20.598   0.917  49.509  1.00  0.00     0.194 C 
HETATM   11  C11 UNL     1      20.735   2.002  48.544  1.00  0.00     0.197 C 
HETATM   12  O2  UNL     1      21.264   3.226  48.605  1.00  0.00    -0.356 OA
HETATM   13  C12 UNL     1      20.551   4.259  49.013  1.00  0.00     0.286 C 
HETATM   14  C13 UNL     1      21.544   4.718  50.276  1.00  0.00     0.065 C 
HETATM   15  O3  UNL     1      19.565   3.299  49.792  1.00  0.00    -0.358 OA
HETATM   16  C14 UNL     1      19.284   3.998  50.963  1.00  0.00     0.171 C 
HETATM   17  C15 UNL     1      19.017   2.632  51.759  1.00  0.00     0.028 C 
HETATM   18  O4  UNL     1      20.281   1.982  51.267  1.00  0.00     0.000 OA
ENDROOT
BRANCH   1  19
HETATM   19  C3  UNL     1      23.789   0.884  52.441  1.00  0.00     0.087 C 
BRANCH  19  20
HETATM   20  C2  UNL     1      25.219   0.906  53.007  1.00  0.00    -0.021 C 
BRANCH  20  21
HETATM   21  C1  UNL     1      26.108   0.295  52.158  1.00  0.00    -0.001 C 
BRANCH  21  22
HETATM   22  C16 UNL     1      26.834  -0.912  52.522  1.00  0.00     0.037 C 
HETATM   23  C17 UNL     1      28.006  -1.100  53.080  1.00  0.00     0.076 A 
HETATM   24  C18 UNL     1      28.908   0.002  53.492  1.00  0.00     0.062 A 
HETATM   25  O5  UNL     1      28.898  -2.004  53.519  1.00  0.00    -0.323 OA
HETATM   26  C19 UNL     1      29.743  -0.987  53.901  1.00  0.00     0.145 A 
ENDBRANCH  21  22
ENDBRANCH  20  21
ENDBRANCH  19  20
ENDBRANCH   1  19
TORSDOF 4
ENDMDL
MODEL 9
REMARK VINA RESULT:      -6.9      4.186      7.785
REMARK  4 active torsions:
REMARK  status: ('A' for Active; 'I' for Inactive)
REMARK    1  A    between atoms: C1_1  and  C2_2 
REMARK    2  A    between atoms: C1_1  and  C16_22 
REMARK    3  A    between atoms: C2_2  and  C3_3 
REMARK    4  A    between atoms: C3_3  and  C4_4 
ROOT
HETATM    1  C4  UNL     1      22.985   5.356  48.507  1.00  0.00     0.052 A 
HETATM    2  N1  UNL     1      22.575   5.437  47.184  1.00  0.00    -0.245 NA
HETATM    3  C5  UNL     1      22.095   4.228  46.703  1.00  0.00     0.234 A 
HETATM    4  N2  UNL     1      22.055   3.191  47.457  1.00  0.00    -0.241 NA
HETATM    5  C6  UNL     1      22.336   2.813  48.647  1.00  0.00     0.072 A 
HETATM    6  C7  UNL     1      22.732   4.095  48.809  1.00  0.00     0.027 A 
HETATM    7  C8  UNL     1      22.271   4.442  50.114  1.00  0.00    -0.011 A 
HETATM    8  C9  UNL     1      22.066   5.551  51.036  1.00  0.00     0.208 A 
HETATM    9  O1  UNL     1      22.358   5.014  52.338  1.00  0.00    -0.385 OA
HETATM   10  C10 UNL     1      23.534   4.373  52.464  1.00  0.00     0.194 C 
HETATM   11  C11 UNL     1      23.907   2.975  52.279  1.00  0.00     0.197 C 
HETATM   12  O2  UNL     1      23.797   2.121  51.260  1.00  0.00    -0.356 OA
HETATM   13  C12 UNL     1      22.704   1.402  51.086  1.00  0.00     0.286 C 
HETATM   14  C13 UNL     1      22.346   1.929  49.541  1.00  0.00     0.065 C 
HETATM   15  O3  UNL     1      21.858   2.444  51.920  1.00  0.00    -0.358 OA
HETATM   16  C14 UNL     1      20.646   2.505  51.237  1.00  0.00     0.171 C 
HETATM   17  C15 UNL     1      20.397   4.008  51.734  1.00  0.00     0.028 C 
HETATM   18  O4  UNL     1      21.778   4.469  51.354  1.00  0.00     0.000 OA
ENDROOT
BRANCH   1  19
HETATM   19  C3  UNL     1      23.654   6.631  48.768  1.00  0.00     0.087 C 
BRANCH  19  20
HETATM   20  C2  UNL     1      25.081   6.570  48.196  1.00  0.00    -0.021 C 
BRANCH  20  21
HETATM   21  C1  UNL     1      25.979   6.105  49.125  1.00  0.00    -0.001 C 
BRANCH  21  22
HETATM   22  C16 UNL     1      27.061   5.196  48.780  1.00  0.00     0.037 C 
HETATM   23  C17 UNL     1      28.298   5.404  48.399  1.00  0.00     0.076 A 
HETATM   24  C18 UNL     1      28.892   6.753  48.234  1.00  0.00     0.062 A 
HETATM   25  O5  UNL     1      29.462   4.839  48.034  1.00  0.00    -0.323 OA
HETATM   26  C19 UNL     1      30.020   6.087  47.875  1.00  0.00     0.145 A 
ENDBRANCH  21  22
ENDBRANCH  20  21
ENDBRANCH  19  20
ENDBRANCH   1  19
TORSDOF 4
ENDMDL
