MODEL 1
REMARK VINA RESULT:      -9.6      0.000      0.000
REMARK  4 active torsions:
REMARK  status: ('A' for Active; 'I' for Inactive)
REMARK    1  A    between atoms: C2_2  and  C3_3 
REMARK    2  A    between atoms: C2_2  and  C6_7 
REMARK    3  A    between atoms: C3_3  and  C4_4 
REMARK    4  A    between atoms: C10_11  and  C11_12 
ROOT
HETATM    1  C11 UNL     1      24.689   3.318  50.455  1.00  0.00     0.018 C 
HETATM    2  C12 UNL     1      23.642   3.047  49.398  1.00  0.00     0.026 C 
HETATM    3  C13 UNL     1      25.979   3.543  49.709  1.00  0.00    -0.002 C 
HETATM    4  C14 UNL     1      26.458   4.713  49.317  1.00  0.00    -0.031 A 
HETATM    5  C15 UNL     1      27.742   4.770  48.594  1.00  0.00     0.069 A 
HETATM    6  C16 UNL     1      28.054   6.187  48.270  1.00  0.00     0.001 A 
HETATM    7  C17 UNL     1      27.357   7.270  48.545  1.00  0.00     0.043 A 
HETATM    8  C18 UNL     1      27.775   8.595  48.171  1.00  0.00     0.099 C 
HETATM    9  N1  UNL     1      28.087   9.650  47.875  1.00  0.00    -0.191 NA
HETATM   10  C19 UNL     1      26.101   7.098  49.265  1.00  0.00     0.052 A 
HETATM   11  C20 UNL     1      25.651   5.891  49.645  1.00  0.00     0.037 A 
HETATM   12  N2  UNL     1      24.421   5.719  50.351  1.00  0.00    -0.383 N 
HETATM   13  C21 UNL     1      23.382   6.731  50.107  1.00  0.00     0.149 C 
HETATM   14  C22 UNL     1      24.343   4.564  51.223  1.00  0.00     0.140 C 
ENDROOT
BRANCH   1  15
HETATM   15  C10 UNL     1      24.773   2.151  51.337  1.00  0.00    -0.044 A 
HETATM   16  C9  UNL     1      23.686   1.701  52.087  1.00  0.00     0.008 A 
HETATM   17  C8  UNL     1      23.717   0.598  52.940  1.00  0.00     0.001 A 
HETATM   18  C7  UNL     1      24.930  -0.085  53.029  1.00  0.00     0.007 A 
HETATM   19  C6  UNL     1      26.025   0.355  52.284  1.00  0.00    -0.054 A 
HETATM   20  C23 UNL     1      25.955   1.449  51.454  1.00  0.00     0.015 A 
BRANCH  19  21
HETATM   21  C2  UNL     1      27.202  -0.509  52.522  1.00  0.00     0.017 C 
HETATM   22  C1  UNL     1      26.782  -1.980  52.563  1.00  0.00     0.015 C 
BRANCH  21  23
HETATM   23  C3  UNL     1      27.912  -0.237  53.812  1.00  0.00     0.043 C 
BRANCH  23  24
HETATM   24  C4  UNL     1      29.153   0.599  53.703  1.00  0.00     0.145 A 
HETATM   25  C5  UNL     1      29.370   1.843  54.485  1.00  0.00     0.200 A 
HETATM   26  O1  UNL     1      29.008   1.881  53.160  1.00  0.00    -0.381 OA
ENDBRANCH  23  24
ENDBRANCH  21  23
ENDBRANCH  19  21
ENDBRANCH   1  15
TORSDOF 4
ENDMDL
MODEL 2
REMARK VINA RESULT:      -8.9      2.789      4.317
REMARK  4 active torsions:
REMARK  status: ('A' for Active; 'I' for Inactive)
REMARK    1  A    between atoms: C2_2  and  C3_3 
REMARK    2  A    between atoms: C2_2  and  C6_7 
REMARK    3  A    between atoms: C3_3  and  C4_4 
REMARK    4  A    between atoms: C10_11  and  C11_12 
ROOT
HETATM    1  C11 UNL     1      24.036   2.930  50.936  1.00  0.00     0.018 C 
HETATM    2  C12 UNL     1      22.967   2.670  49.899  1.00  0.00     0.026 C 
HETATM    3  C13 UNL     1      25.329   3.054  50.172  1.00  0.00    -0.002 C 
HETATM    4  C14 UNL     1      25.866   4.178  49.726  1.00  0.00    -0.031 A 
HETATM    5  C15 UNL     1      27.144   4.135  48.992  1.00  0.00     0.069 A 
HETATM    6  C16 UNL     1      27.527   5.518  48.604  1.00  0.00     0.001 A 
HETATM    7  C17 UNL     1      26.892   6.648  48.836  1.00  0.00     0.043 A 
HETATM    8  C18 UNL     1      27.375   7.931  48.402  1.00  0.00     0.099 C 
HETATM    9  N1  UNL     1      27.740   8.954  48.057  1.00  0.00    -0.191 NA
HETATM   10  C19 UNL     1      25.635   6.574  49.572  1.00  0.00     0.052 A 
HETATM   11  C20 UNL     1      25.126   5.410  50.007  1.00  0.00     0.037 A 
HETATM   12  N2  UNL     1      23.894   5.335  50.728  1.00  0.00    -0.383 N 
HETATM   13  C21 UNL     1      22.908   6.390  50.448  1.00  0.00     0.149 C 
HETATM   14  C22 UNL     1      23.764   4.225  51.651  1.00  0.00     0.140 C 
ENDROOT
BRANCH   1  15
HETATM   15  C10 UNL     1      24.067   1.800  51.867  1.00  0.00    -0.044 A 
HETATM   16  C9  UNL     1      25.208   1.019  52.056  1.00  0.00     0.008 A 
HETATM   17  C8  UNL     1      25.288  -0.067  52.928  1.00  0.00     0.001 A 
HETATM   18  C7  UNL     1      24.133  -0.370  53.650  1.00  0.00     0.007 A 
HETATM   19  C6  UNL     1      22.985   0.404  53.470  1.00  0.00    -0.054 A 
HETATM   20  C23 UNL     1      22.946   1.466  52.598  1.00  0.00     0.015 A 
BRANCH  19  21
HETATM   21  C2  UNL     1      21.884  -0.085  54.330  1.00  0.00     0.017 C 
HETATM   22  C1  UNL     1      21.841  -1.614  54.320  1.00  0.00     0.015 C 
BRANCH  21  23
HETATM   23  C3  UNL     1      20.525   0.379  53.910  1.00  0.00     0.043 C 
BRANCH  23  24
HETATM   24  C4  UNL     1      19.777  -0.548  52.999  1.00  0.00     0.145 A 
HETATM   25  C5  UNL     1      18.735  -0.090  52.044  1.00  0.00     0.200 A 
HETATM   26  O1  UNL     1      18.404  -0.696  53.233  1.00  0.00    -0.381 OA
ENDBRANCH  23  24
ENDBRANCH  21  23
ENDBRANCH  19  21
ENDBRANCH   1  15
TORSDOF 4
ENDMDL
MODEL 3
REMARK VINA RESULT:      -8.6      1.436      2.039
REMARK  4 active torsions:
REMARK  status: ('A' for Active; 'I' for Inactive)
REMARK    1  A    between atoms: C2_2  and  C3_3 
REMARK    2  A    between atoms: C2_2  and  C6_7 
REMARK    3  A    between atoms: C3_3  and  C4_4 
REMARK    4  A    between atoms: C10_11  and  C11_12 
ROOT
HETATM    1  C11 UNL     1      25.140   5.011  49.855  1.00  0.00     0.018 C 
HETATM    2  C12 UNL     1      24.136   4.929  48.728  1.00  0.00     0.026 C 
HETATM    3  C13 UNL     1      26.486   4.756  49.227  1.00  0.00    -0.002 C 
HETATM    4  C14 UNL     1      27.322   5.677  48.774  1.00  0.00    -0.031 A 
HETATM    5  C15 UNL     1      28.609   5.267  48.184  1.00  0.00     0.069 A 
HETATM    6  C16 UNL     1      29.355   6.480  47.757  1.00  0.00     0.001 A 
HETATM    7  C17 UNL     1      29.001   7.745  47.852  1.00  0.00     0.043 A 
HETATM    8  C18 UNL     1      29.823   8.833  47.396  1.00  0.00     0.099 C 
HETATM    9  N1  UNL     1      30.458   9.706  47.031  1.00  0.00    -0.191 NA
HETATM   10  C19 UNL     1      27.704   8.037  48.454  1.00  0.00     0.052 A 
HETATM   11  C20 UNL     1      26.887   7.070  48.901  1.00  0.00     0.037 A 
HETATM   12  N2  UNL     1      25.616   7.353  49.491  1.00  0.00    -0.383 N 
HETATM   13  C21 UNL     1      24.951   8.587  49.045  1.00  0.00     0.149 C 
HETATM   14  C22 UNL     1      25.135   6.388  50.459  1.00  0.00     0.140 C 
ENDROOT
BRANCH   1  15
HETATM   15  C10 UNL     1      24.808   3.988  50.851  1.00  0.00    -0.044 A 
HETATM   16  C9  UNL     1      23.751   4.136  51.750  1.00  0.00     0.008 A 
HETATM   17  C8  UNL     1      23.396   3.193  52.715  1.00  0.00     0.001 A 
HETATM   18  C7  UNL     1      24.168   2.031  52.762  1.00  0.00     0.007 A 
HETATM   19  C6  UNL     1      25.229   1.872  51.868  1.00  0.00    -0.054 A 
HETATM   20  C23 UNL     1      25.547   2.826  50.931  1.00  0.00     0.015 A 
BRANCH  19  21
HETATM   21  C2  UNL     1      25.907   0.575  52.087  1.00  0.00     0.017 C 
HETATM   22  C1  UNL     1      25.092  -0.295  53.045  1.00  0.00     0.015 C 
BRANCH  21  23
HETATM   23  C3  UNL     1      27.276   0.692  52.682  1.00  0.00     0.043 C 
BRANCH  23  24
HETATM   24  C4  UNL     1      27.440   0.099  54.050  1.00  0.00     0.145 A 
HETATM   25  C5  UNL     1      28.695   0.200  54.838  1.00  0.00     0.200 A 
HETATM   26  O1  UNL     1      28.350  -0.956  54.178  1.00  0.00    -0.381 OA
ENDBRANCH  23  24
ENDBRANCH  21  23
ENDBRANCH  19  21
ENDBRANCH   1  15
TORSDOF 4
ENDMDL
MODEL 4
REMARK VINA RESULT:      -8.6      4.955      8.201
REMARK  4 active torsions:
REMARK  status: ('A' for Active; 'I' for Inactive)
REMARK    1  A    between atoms: C2_2  and  C3_3 
REMARK    2  A    between atoms: C2_2  and  C6_7 
REMARK    3  A    between atoms: C3_3  and  C4_4 
REMARK    4  A    between atoms: C10_11  and  C11_12 
ROOT
HETATM    1  C11 UNL     1      20.921   0.749  52.502  1.00  0.00     0.018 C 
HETATM    2  C12 UNL     1      20.670   2.183  52.908  1.00  0.00     0.026 C 
HETATM    3  C13 UNL     1      19.763  -0.043  53.051  1.00  0.00    -0.002 C 
HETATM    4  C14 UNL     1      18.645  -0.339  52.406  1.00  0.00    -0.031 A 
HETATM    5  C15 UNL     1      17.599  -1.127  53.082  1.00  0.00     0.069 A 
HETATM    6  C16 UNL     1      16.458  -1.320  52.150  1.00  0.00     0.001 A 
HETATM    7  C17 UNL     1      16.320  -0.893  50.912  1.00  0.00     0.043 A 
HETATM    8  C18 UNL     1      15.154  -1.150  50.111  1.00  0.00     0.099 C 
HETATM    9  N1  UNL     1      14.233  -1.337  49.467  1.00  0.00    -0.191 NA
HETATM   10  C19 UNL     1      17.419  -0.121  50.341  1.00  0.00     0.052 A 
HETATM   11  C20 UNL     1      18.536   0.156  51.032  1.00  0.00     0.037 A 
HETATM   12  N2  UNL     1      19.614   0.912  50.475  1.00  0.00    -0.383 N 
HETATM   13  C21 UNL     1      19.256   1.889  49.435  1.00  0.00     0.149 C 
HETATM   14  C22 UNL     1      20.932   0.625  51.004  1.00  0.00     0.140 C 
ENDROOT
BRANCH   1  15
HETATM   15  C10 UNL     1      22.193   0.316  53.085  1.00  0.00    -0.044 A 
HETATM   16  C9  UNL     1      22.266  -0.664  54.077  1.00  0.00     0.008 A 
HETATM   17  C8  UNL     1      23.450  -1.109  54.663  1.00  0.00     0.001 A 
HETATM   18  C7  UNL     1      24.630  -0.519  54.208  1.00  0.00     0.007 A 
HETATM   19  C6  UNL     1      24.570   0.462  53.216  1.00  0.00    -0.054 A 
HETATM   20  C23 UNL     1      23.382   0.875  52.663  1.00  0.00     0.015 A 
BRANCH  19  21
HETATM   21  C2  UNL     1      25.927   0.948  52.880  1.00  0.00     0.017 C 
HETATM   22  C1  UNL     1      25.898   1.745  51.575  1.00  0.00     0.015 C 
BRANCH  21  23
HETATM   23  C3  UNL     1      26.938  -0.139  52.689  1.00  0.00     0.043 C 
BRANCH  23  24
HETATM   24  C4  UNL     1      28.259   0.079  53.366  1.00  0.00     0.145 A 
HETATM   25  C5  UNL     1      29.235  -1.011  53.620  1.00  0.00     0.200 A 
HETATM   26  O1  UNL     1      28.433  -0.517  54.620  1.00  0.00    -0.381 OA
ENDBRANCH  23  24
ENDBRANCH  21  23
ENDBRANCH  19  21
ENDBRANCH   1  15
TORSDOF 4
ENDMDL
MODEL 5
REMARK VINA RESULT:      -8.6      1.837      2.855
REMARK  4 active torsions:
REMARK  status: ('A' for Active; 'I' for Inactive)
REMARK    1  A    between atoms: C2_2  and  C3_3 
REMARK    2  A    between atoms: C2_2  and  C6_7 
REMARK    3  A    between atoms: C3_3  and  C4_4 
REMARK    4  A    between atoms: C10_11  and  C11_12 
ROOT
HETATM    1  C11 UNL     1      22.726   2.754  49.777  1.00  0.00     0.018 C 
HETATM    2  C12 UNL     1      22.250   2.340  48.403  1.00  0.00     0.026 C 
HETATM    3  C13 UNL     1      24.229   2.650  49.741  1.00  0.00    -0.002 C 
HETATM    4  C14 UNL     1      25.071   3.629  49.449  1.00  0.00    -0.031 A 
HETATM    5  C15 UNL     1      26.522   3.369  49.456  1.00  0.00     0.069 A 
HETATM    6  C16 UNL     1      27.240   4.620  49.098  1.00  0.00     0.001 A 
HETATM    7  C17 UNL     1      26.744   5.804  48.808  1.00  0.00     0.043 A 
HETATM    8  C18 UNL     1      27.556   6.943  48.475  1.00  0.00     0.099 C 
HETATM    9  N1  UNL     1      28.186   7.853  48.200  1.00  0.00    -0.191 NA
HETATM   10  C19 UNL     1      25.292   5.949  48.831  1.00  0.00     0.052 A 
HETATM   11  C20 UNL     1      24.474   4.928  49.133  1.00  0.00     0.037 A 
HETATM   12  N2  UNL     1      23.052   5.067  49.156  1.00  0.00    -0.383 N 
HETATM   13  C21 UNL     1      22.482   6.091  48.267  1.00  0.00     0.149 C 
HETATM   14  C22 UNL     1      22.341   4.180  50.054  1.00  0.00     0.140 C 
ENDROOT
BRANCH   1  15
HETATM   15  C10 UNL     1      22.147   1.840  50.766  1.00  0.00    -0.044 A 
HETATM   16  C9  UNL     1      20.769   1.712  50.948  1.00  0.00     0.008 A 
HETATM   17  C8  UNL     1      20.171   0.858  51.875  1.00  0.00     0.001 A 
HETATM   18  C7  UNL     1      21.032   0.091  52.660  1.00  0.00     0.007 A 
HETATM   19  C6  UNL     1      22.412   0.211  52.487  1.00  0.00    -0.054 A 
HETATM   20  C23 UNL     1      22.964   1.065  51.562  1.00  0.00     0.015 A 
BRANCH  19  21
HETATM   21  C2  UNL     1      23.135  -0.690  53.413  1.00  0.00     0.017 C 
HETATM   22  C1  UNL     1      22.360  -0.837  54.723  1.00  0.00     0.015 C 
BRANCH  21  23
HETATM   23  C3  UNL     1      24.506  -0.217  53.782  1.00  0.00     0.043 C 
BRANCH  23  24
HETATM   24  C4  UNL     1      25.634  -0.832  53.008  1.00  0.00     0.145 A 
HETATM   25  C5  UNL     1      27.064  -0.533  53.272  1.00  0.00     0.200 A 
HETATM   26  O1  UNL     1      26.397   0.028  52.210  1.00  0.00    -0.381 OA
ENDBRANCH  23  24
ENDBRANCH  21  23
ENDBRANCH  19  21
ENDBRANCH   1  15
TORSDOF 4
ENDMDL
MODEL 6
REMARK VINA RESULT:      -8.4      3.323      7.333
REMARK  4 active torsions:
REMARK  status: ('A' for Active; 'I' for Inactive)
REMARK    1  A    between atoms: C2_2  and  C3_3 
REMARK    2  A    between atoms: C2_2  and  C6_7 
REMARK    3  A    between atoms: C3_3  and  C4_4 
REMARK    4  A    between atoms: C10_11  and  C11_12 
ROOT
HETATM    1  C11 UNL     1      25.060   3.912  49.780  1.00  0.00     0.018 C 
HETATM    2  C12 UNL     1      26.207   2.933  49.889  1.00  0.00     0.026 C 
HETATM    3  C13 UNL     1      23.990   3.207  48.989  1.00  0.00    -0.002 C 
HETATM    4  C14 UNL     1      22.988   2.502  49.489  1.00  0.00    -0.031 A 
HETATM    5  C15 UNL     1      22.015   1.869  48.579  1.00  0.00     0.069 A 
HETATM    6  C16 UNL     1      20.999   1.143  49.385  1.00  0.00     0.001 A 
HETATM    7  C17 UNL     1      20.906   1.032  50.694  1.00  0.00     0.043 A 
HETATM    8  C18 UNL     1      19.863   0.293  51.354  1.00  0.00     0.099 C 
HETATM    9  N1  UNL     1      19.049  -0.296  51.891  1.00  0.00    -0.191 NA
HETATM   10  C19 UNL     1      21.923   1.699  51.499  1.00  0.00     0.052 A 
HETATM   11  C20 UNL     1      22.924   2.406  50.949  1.00  0.00     0.037 A 
HETATM   12  N2  UNL     1      23.921   3.060  51.735  1.00  0.00    -0.383 N 
HETATM   13  C21 UNL     1      24.217   2.460  53.045  1.00  0.00     0.149 C 
HETATM   14  C22 UNL     1      24.523   4.240  51.146  1.00  0.00     0.140 C 
ENDROOT
BRANCH   1  15
HETATM   15  C10 UNL     1      25.537   5.113  49.090  1.00  0.00    -0.044 A 
HETATM   16  C9  UNL     1      24.665   6.070  48.567  1.00  0.00     0.008 A 
HETATM   17  C8  UNL     1      25.068   7.227  47.901  1.00  0.00     0.001 A 
HETATM   18  C7  UNL     1      26.444   7.417  47.763  1.00  0.00     0.007 A 
HETATM   19  C6  UNL     1      27.326   6.467  48.281  1.00  0.00    -0.054 A 
HETATM   20  C23 UNL     1      26.889   5.338  48.931  1.00  0.00     0.015 A 
BRANCH  19  21
HETATM   21  C2  UNL     1      28.729   6.865  48.030  1.00  0.00     0.017 C 
HETATM   22  C1  UNL     1      28.841   7.602  46.694  1.00  0.00     0.015 C 
BRANCH  21  23
HETATM   23  C3  UNL     1      29.689   5.718  47.962  1.00  0.00     0.043 C 
BRANCH  23  24
HETATM   24  C4  UNL     1      30.992   5.921  48.676  1.00  0.00     0.145 A 
HETATM   25  C5  UNL     1      32.315   5.675  48.047  1.00  0.00     0.200 A 
HETATM   26  O1  UNL     1      31.761   4.778  48.928  1.00  0.00    -0.381 OA
ENDBRANCH  23  24
ENDBRANCH  21  23
ENDBRANCH  19  21
ENDBRANCH   1  15
TORSDOF 4
ENDMDL
MODEL 7
REMARK VINA RESULT:      -8.3      3.402      6.278
REMARK  4 active torsions:
REMARK  status: ('A' for Active; 'I' for Inactive)
REMARK    1  A    between atoms: C2_2  and  C3_3 
REMARK    2  A    between atoms: C2_2  and  C6_7 
REMARK    3  A    between atoms: C3_3  and  C4_4 
REMARK    4  A    between atoms: C10_11  and  C11_12 
ROOT
HETATM    1  C11 UNL     1      28.678   7.165  47.781  1.00  0.00     0.018 C 
HETATM    2  C12 UNL     1      28.658   7.826  46.422  1.00  0.00     0.026 C 
HETATM    3  C13 UNL     1      29.594   5.976  47.648  1.00  0.00    -0.002 C 
HETATM    4  C14 UNL     1      30.890   5.956  47.917  1.00  0.00    -0.031 A 
HETATM    5  C15 UNL     1      31.654   4.708  47.736  1.00  0.00     0.069 A 
HETATM    6  C16 UNL     1      33.073   4.951  48.103  1.00  0.00     0.001 A 
HETATM    7  C17 UNL     1      33.640   6.061  48.527  1.00  0.00     0.043 A 
HETATM    8  C18 UNL     1      35.037   6.164  48.851  1.00  0.00     0.099 C 
HETATM    9  N1  UNL     1      36.144   6.263  49.103  1.00  0.00    -0.191 NA
HETATM   10  C19 UNL     1      32.789   7.238  48.670  1.00  0.00     0.052 A 
HETATM   11  C20 UNL     1      31.477   7.213  48.386  1.00  0.00     0.037 A 
HETATM   12  N2  UNL     1      30.641   8.364  48.525  1.00  0.00    -0.383 N 
HETATM   13  C21 UNL     1      31.298   9.670  48.364  1.00  0.00     0.149 C 
HETATM   14  C22 UNL     1      29.244   8.106  48.809  1.00  0.00     0.140 C 
ENDROOT
BRANCH   1  15
HETATM   15  C10 UNL     1      27.313   6.757  48.121  1.00  0.00    -0.044 A 
HETATM   16  C9  UNL     1      26.207   7.572  47.876  1.00  0.00     0.008 A 
HETATM   17  C8  UNL     1      24.889   7.230  48.182  1.00  0.00     0.001 A 
HETATM   18  C7  UNL     1      24.693   5.981  48.772  1.00  0.00     0.007 A 
HETATM   19  C6  UNL     1      25.792   5.157  49.023  1.00  0.00    -0.054 A 
HETATM   20  C23 UNL     1      27.076   5.531  48.707  1.00  0.00     0.015 A 
BRANCH  19  21
HETATM   21  C2  UNL     1      25.360   3.885  49.645  1.00  0.00     0.017 C 
HETATM   22  C1  UNL     1      24.457   4.162  50.848  1.00  0.00     0.015 C 
BRANCH  21  23
HETATM   23  C3  UNL     1      26.485   3.035  50.147  1.00  0.00     0.043 C 
BRANCH  23  24
HETATM   24  C4  UNL     1      26.250   2.361  51.466  1.00  0.00     0.145 A 
HETATM   25  C5  UNL     1      27.331   2.082  52.444  1.00  0.00     0.200 A 
HETATM   26  O1  UNL     1      26.817   1.093  51.640  1.00  0.00    -0.381 OA
ENDBRANCH  23  24
ENDBRANCH  21  23
ENDBRANCH  19  21
ENDBRANCH   1  15
TORSDOF 4
ENDMDL
MODEL 8
REMARK VINA RESULT:      -8.2      5.537      8.381
REMARK  4 active torsions:
REMARK  status: ('A' for Active; 'I' for Inactive)
REMARK    1  A    between atoms: C2_2  and  C3_3 
REMARK    2  A    between atoms: C2_2  and  C6_7 
REMARK    3  A    between atoms: C3_3  and  C4_4 
REMARK    4  A    between atoms: C10_11  and  C11_12 
ROOT
HETATM    1  C11 UNL     1      21.348   0.616  51.887  1.00  0.00     0.018 C 
HETATM    2  C12 UNL     1      21.459   0.652  50.380  1.00  0.00     0.026 C 
HETATM    3  C13 UNL     1      22.528  -0.188  52.368  1.00  0.00    -0.002 C 
HETATM    4  C14 UNL     1      23.705   0.296  52.734  1.00  0.00    -0.031 A 
HETATM    5  C15 UNL     1      24.764  -0.625  53.184  1.00  0.00     0.069 A 
HETATM    6  C16 UNL     1      25.975   0.163  53.535  1.00  0.00     0.001 A 
HETATM    7  C17 UNL     1      26.157   1.467  53.483  1.00  0.00     0.043 A 
HETATM    8  C18 UNL     1      27.389   2.110  53.855  1.00  0.00     0.099 C 
HETATM    9  N1  UNL     1      28.361   2.633  54.136  1.00  0.00    -0.191 NA
HETATM   10  C19 UNL     1      25.040   2.284  53.022  1.00  0.00     0.052 A 
HETATM   11  C20 UNL     1      23.862   1.750  52.660  1.00  0.00     0.037 A 
HETATM   12  N2  UNL     1      22.766   2.548  52.208  1.00  0.00    -0.383 N 
HETATM   13  C21 UNL     1      23.111   3.819  51.554  1.00  0.00     0.149 C 
HETATM   14  C22 UNL     1      21.443   2.008  52.449  1.00  0.00     0.140 C 
ENDROOT
BRANCH   1  15
HETATM   15  C10 UNL     1      20.080  -0.022  52.246  1.00  0.00    -0.044 A 
HETATM   16  C9  UNL     1      19.927  -0.779  53.409  1.00  0.00     0.008 A 
HETATM   17  C8  UNL     1      18.743  -1.406  53.795  1.00  0.00     0.001 A 
HETATM   18  C7  UNL     1      17.650  -1.250  52.940  1.00  0.00     0.007 A 
HETATM   19  C6  UNL     1      17.790  -0.496  51.774  1.00  0.00    -0.054 A 
HETATM   20  C23 UNL     1      18.977   0.107  51.428  1.00  0.00     0.015 A 
BRANCH  19  21
HETATM   21  C2  UNL     1      16.517  -0.455  51.021  1.00  0.00     0.017 C 
HETATM   22  C1  UNL     1      16.716   0.249  49.678  1.00  0.00     0.015 C 
BRANCH  21  23
HETATM   23  C3  UNL     1      15.413   0.273  51.722  1.00  0.00     0.043 C 
BRANCH  23  24
HETATM   24  C4  UNL     1      15.607   1.753  51.874  1.00  0.00     0.145 A 
HETATM   25  C5  UNL     1      14.750   2.605  52.736  1.00  0.00     0.200 A 
HETATM   26  O1  UNL     1      14.596   2.579  51.371  1.00  0.00    -0.381 OA
ENDBRANCH  23  24
ENDBRANCH  21  23
ENDBRANCH  19  21
ENDBRANCH   1  15
TORSDOF 4
ENDMDL
MODEL 9
REMARK VINA RESULT:      -8.2      3.289      7.862
REMARK  4 active torsions:
REMARK  status: ('A' for Active; 'I' for Inactive)
REMARK    1  A    between atoms: C2_2  and  C3_3 
REMARK    2  A    between atoms: C2_2  and  C6_7 
REMARK    3  A    between atoms: C3_3  and  C4_4 
REMARK    4  A    between atoms: C10_11  and  C11_12 
ROOT
HETATM    1  C11 UNL     1      24.162   3.965  51.432  1.00  0.00     0.018 C 
HETATM    2  C12 UNL     1      23.832   5.055  52.426  1.00  0.00     0.026 C 
HETATM    3  C13 UNL     1      24.733   2.829  52.241  1.00  0.00    -0.002 C 
HETATM    4  C14 UNL     1      24.054   1.804  52.733  1.00  0.00    -0.031 A 
HETATM    5  C15 UNL     1      24.759   0.767  53.508  1.00  0.00     0.069 A 
HETATM    6  C16 UNL     1      23.779  -0.263  53.943  1.00  0.00     0.001 A 
HETATM    7  C17 UNL     1      22.483  -0.318  53.719  1.00  0.00     0.043 A 
HETATM    8  C18 UNL     1      21.640  -1.379  54.201  1.00  0.00     0.099 C 
HETATM    9  N1  UNL     1      20.958  -2.208  54.583  1.00  0.00    -0.191 NA
HETATM   10  C19 UNL     1      21.889   0.763  52.940  1.00  0.00     0.052 A 
HETATM   11  C20 UNL     1      22.615   1.784  52.459  1.00  0.00     0.037 A 
HETATM   12  N2  UNL     1      22.036   2.844  51.695  1.00  0.00    -0.383 N 
HETATM   13  C21 UNL     1      20.623   3.148  51.969  1.00  0.00     0.149 C 
HETATM   14  C22 UNL     1      22.912   3.494  50.741  1.00  0.00     0.140 C 
ENDROOT
BRANCH   1  15
HETATM   15  C10 UNL     1      25.140   4.487  50.474  1.00  0.00    -0.044 A 
HETATM   16  C9  UNL     1      26.154   3.695  49.935  1.00  0.00     0.008 A 
HETATM   17  C8  UNL     1      27.108   4.144  49.022  1.00  0.00     0.001 A 
HETATM   18  C7  UNL     1      27.018   5.483  48.638  1.00  0.00     0.007 A 
HETATM   19  C6  UNL     1      26.008   6.286  49.171  1.00  0.00    -0.054 A 
HETATM   20  C23 UNL     1      25.086   5.805  50.070  1.00  0.00     0.015 A 
BRANCH  19  21
HETATM   21  C2  UNL     1      26.093   7.661  48.630  1.00  0.00     0.017 C 
HETATM   22  C1  UNL     1      25.372   7.747  47.284  1.00  0.00     0.015 C 
BRANCH  21  23
HETATM   23  C3  UNL     1      27.491   8.141  48.392  1.00  0.00     0.043 C 
BRANCH  23  24
HETATM   24  C4  UNL     1      28.029   9.100  49.412  1.00  0.00     0.145 A 
HETATM   25  C5  UNL     1      28.770  10.337  49.059  1.00  0.00     0.200 A 
HETATM   26  O1  UNL     1      29.421   9.212  49.504  1.00  0.00    -0.381 OA
ENDBRANCH  23  24
ENDBRANCH  21  23
ENDBRANCH  19  21
ENDBRANCH   1  15
TORSDOF 4
ENDMDL
