MODEL 1
REMARK VINA RESULT:      -7.2      0.000      0.000
REMARK  6 active torsions:
REMARK  status: ('A' for Active; 'I' for Inactive)
REMARK    1  A    between atoms: C5_6  and  N2_7 
REMARK    2  A    between atoms: N2_7  and  C6_8 
REMARK    3  A    between atoms: C6_8  and  N3_9 
REMARK    4  A    between atoms: C6_8  and  C7_10 
REMARK    5  A    between atoms: C14_17  and  N4_18 
REMARK    6  A    between atoms: N4_18  and  C15_19 
ROOT
HETATM    1  C1  UNL     1      18.189  -1.126  53.310  1.00  0.00     0.019 C 
HETATM    2  C2  UNL     1      19.395  -0.998  53.488  1.00  0.00    -0.055 C 
HETATM    3  C3  UNL     1      20.808  -0.871  53.709  1.00  0.00     0.135 A 
HETATM    4  N1  UNL     1      21.376  -1.377  54.834  1.00  0.00    -0.247 NA
HETATM    5  C4  UNL     1      22.719  -1.237  55.007  1.00  0.00     0.147 A 
HETATM    6  C5  UNL     1      23.545  -0.607  54.104  1.00  0.00     0.049 A 
HETATM    7  C13 UNL     1      22.932  -0.105  52.976  1.00  0.00     0.063 A 
HETATM    8  C14 UNL     1      21.566  -0.218  52.742  1.00  0.00     0.068 A 
ENDROOT
BRANCH   8   9
HETATM    9  N4  UNL     1      21.049   0.328  51.558  1.00  0.00    -0.388 N 
HETATM   10  H13 UNL     1      20.703  -0.388  50.851  1.00  0.00     0.159 HD
BRANCH   9  11
HETATM   11  C15 UNL     1      20.975   1.743  51.277  1.00  0.00     0.115 C 
HETATM   12  C16 UNL     1      20.329   2.435  52.440  1.00  0.00     0.026 C 
ENDBRANCH   9  11
ENDBRANCH   8   9
BRANCH   6  13
HETATM   13  N2  UNL     1      24.944  -0.484  54.330  1.00  0.00    -0.356 N 
HETATM   14  H3  UNL     1      25.308  -0.999  55.188  1.00  0.00     0.162 HD
BRANCH  13  15
HETATM   15  C6  UNL     1      25.840   0.270  53.495  1.00  0.00     0.351 C 
BRANCH  15  16
HETATM   16  N3  UNL     1      25.867   1.673  53.863  1.00  0.00     0.105 N 
HETATM   17  H5  UNL     1      25.187   1.927  54.590  1.00  0.00     0.315 HD
HETATM   18  H6  UNL     1      26.843   1.976  54.078  1.00  0.00     0.315 HD
ENDBRANCH  15  16
BRANCH  15  19
HETATM   19  C7  UNL     1      27.200  -0.299  53.429  1.00  0.00    -0.006 A 
HETATM   20  C8  UNL     1      27.398  -1.602  53.013  1.00  0.00     0.011 A 
HETATM   21  C9  UNL     1      28.715  -2.056  52.975  1.00  0.00     0.001 A 
HETATM   22  C10 UNL     1      29.757  -1.246  53.332  1.00  0.00     0.000 A 
HETATM   23  C11 UNL     1      29.558   0.040  53.742  1.00  0.00     0.001 A 
HETATM   24  C12 UNL     1      28.266   0.531  53.796  1.00  0.00     0.011 A 
ENDBRANCH  15  19
ENDBRANCH  13  15
ENDBRANCH   6  13
TORSDOF 6
ENDMDL
MODEL 2
REMARK VINA RESULT:      -7.0      1.860      3.349
REMARK  6 active torsions:
REMARK  status: ('A' for Active; 'I' for Inactive)
REMARK    1  A    between atoms: C5_6  and  N2_7 
REMARK    2  A    between atoms: N2_7  and  C6_8 
REMARK    3  A    between atoms: C6_8  and  N3_9 
REMARK    4  A    between atoms: C6_8  and  C7_10 
REMARK    5  A    between atoms: C14_17  and  N4_18 
REMARK    6  A    between atoms: N4_18  and  C15_19 
ROOT
HETATM    1  C1  UNL     1      18.885   0.159  51.383  1.00  0.00     0.019 C 
HETATM    2  C2  UNL     1      20.010   0.614  51.551  1.00  0.00    -0.055 C 
HETATM    3  C3  UNL     1      21.319   1.172  51.747  1.00  0.00     0.135 A 
HETATM    4  N1  UNL     1      21.659   2.349  51.161  1.00  0.00    -0.247 NA
HETATM    5  C4  UNL     1      22.909   2.846  51.370  1.00  0.00     0.147 A 
HETATM    6  C5  UNL     1      23.860   2.222  52.146  1.00  0.00     0.049 A 
HETATM    7  C13 UNL     1      23.478   1.030  52.723  1.00  0.00     0.063 A 
HETATM    8  C14 UNL     1      22.217   0.473  52.547  1.00  0.00     0.068 A 
ENDROOT
BRANCH   8   9
HETATM    9  N4  UNL     1      21.935  -0.745  53.184  1.00  0.00    -0.388 N 
HETATM   10  H13 UNL     1      21.984  -1.600  52.553  1.00  0.00     0.159 HD
BRANCH   9  11
HETATM   11  C15 UNL     1      21.597  -0.874  54.583  1.00  0.00     0.115 C 
HETATM   12  C16 UNL     1      22.779  -1.435  55.317  1.00  0.00     0.026 C 
ENDBRANCH   9  11
ENDBRANCH   8   9
BRANCH   6  13
HETATM   13  N2  UNL     1      25.155   2.780  52.334  1.00  0.00    -0.356 N 
HETATM   14  H3  UNL     1      25.201   3.584  53.032  1.00  0.00     0.162 HD
BRANCH  13  15
HETATM   15  C6  UNL     1      26.341   2.330  51.657  1.00  0.00     0.351 C 
BRANCH  15  16
HETATM   16  N3  UNL     1      26.985   3.407  50.928  1.00  0.00     0.105 N 
HETATM   17  H5  UNL     1      26.914   3.321  49.907  1.00  0.00     0.315 HD
HETATM   18  H6  UNL     1      26.671   4.334  51.293  1.00  0.00     0.315 HD
ENDBRANCH  15  16
BRANCH  15  19
HETATM   19  C7  UNL     1      27.292   1.629  52.541  1.00  0.00    -0.006 A 
HETATM   20  C8  UNL     1      28.191   2.341  53.312  1.00  0.00     0.011 A 
HETATM   21  C9  UNL     1      29.048   1.600  54.123  1.00  0.00     0.001 A 
HETATM   22  C10 UNL     1      28.996   0.234  54.150  1.00  0.00     0.000 A 
HETATM   23  C11 UNL     1      28.108  -0.466  53.388  1.00  0.00     0.001 A 
HETATM   24  C12 UNL     1      27.238   0.231  52.567  1.00  0.00     0.011 A 
ENDBRANCH  15  19
ENDBRANCH  13  15
ENDBRANCH   6  13
TORSDOF 6
ENDMDL
MODEL 3
REMARK VINA RESULT:      -6.9      4.295      5.921
REMARK  6 active torsions:
REMARK  status: ('A' for Active; 'I' for Inactive)
REMARK    1  A    between atoms: C5_6  and  N2_7 
REMARK    2  A    between atoms: N2_7  and  C6_8 
REMARK    3  A    between atoms: C6_8  and  N3_9 
REMARK    4  A    between atoms: C6_8  and  C7_10 
REMARK    5  A    between atoms: C14_17  and  N4_18 
REMARK    6  A    between atoms: N4_18  and  C15_19 
ROOT
HETATM    1  C1  UNL     1      22.546  -1.354  55.109  1.00  0.00     0.019 C 
HETATM    2  C2  UNL     1      22.897  -0.601  54.208  1.00  0.00    -0.055 C 
HETATM    3  C3  UNL     1      23.286   0.295  53.155  1.00  0.00     0.135 A 
HETATM    4  N1  UNL     1      22.352   0.822  52.322  1.00  0.00    -0.247 NA
HETATM    5  C4  UNL     1      22.760   1.667  51.335  1.00  0.00     0.147 A 
HETATM    6  C5  UNL     1      24.073   2.024  51.128  1.00  0.00     0.049 A 
HETATM    7  C13 UNL     1      24.991   1.469  51.993  1.00  0.00     0.063 A 
HETATM    8  C14 UNL     1      24.637   0.600  53.019  1.00  0.00     0.068 A 
ENDROOT
BRANCH   8   9
HETATM    9  N4  UNL     1      25.654   0.095  53.842  1.00  0.00    -0.388 N 
HETATM   10  H13 UNL     1      25.425   0.088  54.881  1.00  0.00     0.159 HD
BRANCH   9  11
HETATM   11  C15 UNL     1      26.929  -0.385  53.361  1.00  0.00     0.115 C 
HETATM   12  C16 UNL     1      26.697  -1.575  52.477  1.00  0.00     0.026 C 
ENDBRANCH   9  11
ENDBRANCH   8   9
BRANCH   6  13
HETATM   13  N2  UNL     1      24.451   2.911  50.082  1.00  0.00    -0.356 N 
HETATM   14  H3  UNL     1      24.682   2.441  49.155  1.00  0.00     0.162 HD
BRANCH  13  15
HETATM   15  C6  UNL     1      24.532   4.341  50.217  1.00  0.00     0.351 C 
BRANCH  15  16
HETATM   16  N3  UNL     1      24.468   4.754  51.606  1.00  0.00     0.105 N 
HETATM   17  H5  UNL     1      23.529   5.032  51.917  1.00  0.00     0.315 HD
HETATM   18  H6  UNL     1      24.919   4.040  52.221  1.00  0.00     0.315 HD
ENDBRANCH  15  16
BRANCH  15  19
HETATM   19  C7  UNL     1      25.696   4.930  49.529  1.00  0.00    -0.006 A 
HETATM   20  C8  UNL     1      26.822   4.170  49.272  1.00  0.00     0.011 A 
HETATM   21  C9  UNL     1      27.872   4.805  48.612  1.00  0.00     0.001 A 
HETATM   22  C10 UNL     1      27.787   6.117  48.238  1.00  0.00     0.000 A 
HETATM   23  C11 UNL     1      26.675   6.865  48.493  1.00  0.00     0.001 A 
HETATM   24  C12 UNL     1      25.608   6.274  49.147  1.00  0.00     0.011 A 
ENDBRANCH  15  19
ENDBRANCH  13  15
ENDBRANCH   6  13
TORSDOF 6
ENDMDL
MODEL 4
REMARK VINA RESULT:      -6.9      3.325      7.107
REMARK  6 active torsions:
REMARK  status: ('A' for Active; 'I' for Inactive)
REMARK    1  A    between atoms: C5_6  and  N2_7 
REMARK    2  A    between atoms: N2_7  and  C6_8 
REMARK    3  A    between atoms: C6_8  and  N3_9 
REMARK    4  A    between atoms: C6_8  and  C7_10 
REMARK    5  A    between atoms: C14_17  and  N4_18 
REMARK    6  A    between atoms: N4_18  and  C15_19 
ROOT
HETATM    1  C1  UNL     1      27.788   5.023  48.644  1.00  0.00     0.019 C 
HETATM    2  C2  UNL     1      26.801   4.460  49.103  1.00  0.00    -0.055 C 
HETATM    3  C3  UNL     1      25.636   3.797  49.618  1.00  0.00     0.135 A 
HETATM    4  N1  UNL     1      24.442   3.916  48.983  1.00  0.00    -0.247 NA
HETATM    5  C4  UNL     1      23.359   3.272  49.501  1.00  0.00     0.147 A 
HETATM    6  C5  UNL     1      23.402   2.500  50.640  1.00  0.00     0.049 A 
HETATM    7  C13 UNL     1      24.631   2.404  51.256  1.00  0.00     0.063 A 
HETATM    8  C14 UNL     1      25.771   3.038  50.776  1.00  0.00     0.068 A 
ENDROOT
BRANCH   8   9
HETATM    9  N4  UNL     1      26.971   2.869  51.482  1.00  0.00    -0.388 N 
HETATM   10  H13 UNL     1      27.782   3.462  51.133  1.00  0.00     0.159 HD
BRANCH   9  11
HETATM   11  C15 UNL     1      27.140   1.969  52.599  1.00  0.00     0.115 C 
HETATM   12  C16 UNL     1      28.328   2.410  53.402  1.00  0.00     0.026 C 
ENDBRANCH   9  11
ENDBRANCH   8   9
BRANCH   6  13
HETATM   13  N2  UNL     1      22.243   1.847  51.144  1.00  0.00    -0.356 N 
HETATM   14  H3  UNL     1      21.727   1.238  50.438  1.00  0.00     0.162 HD
BRANCH  13  15
HETATM   15  C6  UNL     1      21.762   1.970  52.494  1.00  0.00     0.351 C 
BRANCH  15  16
HETATM   16  N3  UNL     1      20.464   2.616  52.546  1.00  0.00     0.105 N 
HETATM   17  H5  UNL     1      19.671   1.969  52.461  1.00  0.00     0.315 HD
HETATM   18  H6  UNL     1      20.404   3.247  53.376  1.00  0.00     0.315 HD
ENDBRANCH  15  16
BRANCH  15  19
HETATM   19  C7  UNL     1      21.762   0.694  53.235  1.00  0.00    -0.006 A 
HETATM   20  C8  UNL     1      20.578   0.028  53.490  1.00  0.00     0.011 A 
HETATM   21  C9  UNL     1      20.670  -1.173  54.190  1.00  0.00     0.001 A 
HETATM   22  C10 UNL     1      21.877  -1.664  54.603  1.00  0.00     0.000 A 
HETATM   23  C11 UNL     1      23.044  -1.004  54.350  1.00  0.00     0.001 A 
HETATM   24  C12 UNL     1      22.999   0.193  53.658  1.00  0.00     0.011 A 
ENDBRANCH  15  19
ENDBRANCH  13  15
ENDBRANCH   6  13
TORSDOF 6
ENDMDL
MODEL 5
REMARK VINA RESULT:      -6.9      1.555      2.021
REMARK  6 active torsions:
REMARK  status: ('A' for Active; 'I' for Inactive)
REMARK    1  A    between atoms: C5_6  and  N2_7 
REMARK    2  A    between atoms: N2_7  and  C6_8 
REMARK    3  A    between atoms: C6_8  and  N3_9 
REMARK    4  A    between atoms: C6_8  and  C7_10 
REMARK    5  A    between atoms: C14_17  and  N4_18 
REMARK    6  A    between atoms: N4_18  and  C15_19 
ROOT
HETATM    1  C1  UNL     1      18.991   0.244  51.220  1.00  0.00     0.019 C 
HETATM    2  C2  UNL     1      20.111   0.302  51.714  1.00  0.00    -0.055 C 
HETATM    3  C3  UNL     1      21.426   0.346  52.289  1.00  0.00     0.135 A 
HETATM    4  N1  UNL     1      21.908  -0.719  52.980  1.00  0.00    -0.247 NA
HETATM    5  C4  UNL     1      23.160  -0.641  53.511  1.00  0.00     0.147 A 
HETATM    6  C5  UNL     1      23.974   0.463  53.390  1.00  0.00     0.049 A 
HETATM    7  C13 UNL     1      23.449   1.524  52.683  1.00  0.00     0.063 A 
HETATM    8  C14 UNL     1      22.179   1.503  52.118  1.00  0.00     0.068 A 
ENDROOT
BRANCH   8   9
HETATM    9  N4  UNL     1      21.746   2.638  51.417  1.00  0.00    -0.388 N 
HETATM   10  H13 UNL     1      20.725   2.617  51.120  1.00  0.00     0.159 HD
BRANCH   9  11
HETATM   11  C15 UNL     1      22.587   3.768  51.097  1.00  0.00     0.115 C 
HETATM   12  C16 UNL     1      22.030   4.991  51.766  1.00  0.00     0.026 C 
ENDBRANCH   9  11
ENDBRANCH   8   9
BRANCH   6  13
HETATM   13  N2  UNL     1      25.275   0.499  53.963  1.00  0.00    -0.356 N 
HETATM   14  H3  UNL     1      25.363   0.016  54.909  1.00  0.00     0.162 HD
BRANCH  13  15
HETATM   15  C6  UNL     1      26.416   1.128  53.354  1.00  0.00     0.351 C 
BRANCH  15  16
HETATM   16  N3  UNL     1      26.674   2.438  53.920  1.00  0.00     0.105 N 
HETATM   17  H5  UNL     1      26.247   2.586  54.843  1.00  0.00     0.315 HD
HETATM   18  H6  UNL     1      27.696   2.654  53.892  1.00  0.00     0.315 HD
ENDBRANCH  15  16
BRANCH  15  19
HETATM   19  C7  UNL     1      27.627   0.285  53.365  1.00  0.00    -0.006 A 
HETATM   20  C8  UNL     1      28.855   0.823  53.699  1.00  0.00     0.011 A 
HETATM   21  C9  UNL     1      29.945  -0.047  53.691  1.00  0.00     0.001 A 
HETATM   22  C10 UNL     1      29.799  -1.366  53.366  1.00  0.00     0.000 A 
HETATM   23  C11 UNL     1      28.585  -1.894  53.037  1.00  0.00     0.001 A 
HETATM   24  C12 UNL     1      27.476  -1.067  53.032  1.00  0.00     0.011 A 
ENDBRANCH  15  19
ENDBRANCH  13  15
ENDBRANCH   6  13
TORSDOF 6
ENDMDL
MODEL 6
REMARK VINA RESULT:      -6.7      3.344      5.116
REMARK  6 active torsions:
REMARK  status: ('A' for Active; 'I' for Inactive)
REMARK    1  A    between atoms: C5_6  and  N2_7 
REMARK    2  A    between atoms: N2_7  and  C6_8 
REMARK    3  A    between atoms: C6_8  and  N3_9 
REMARK    4  A    between atoms: C6_8  and  C7_10 
REMARK    5  A    between atoms: C14_17  and  N4_18 
REMARK    6  A    between atoms: N4_18  and  C15_19 
ROOT
HETATM    1  C1  UNL     1      26.039   5.942  48.838  1.00  0.00     0.019 C 
HETATM    2  C2  UNL     1      25.895   4.931  49.516  1.00  0.00    -0.055 C 
HETATM    3  C3  UNL     1      25.749   3.751  50.320  1.00  0.00     0.135 A 
HETATM    4  N1  UNL     1      26.827   2.974  50.601  1.00  0.00    -0.247 NA
HETATM    5  C4  UNL     1      26.649   1.862  51.366  1.00  0.00     0.147 A 
HETATM    6  C5  UNL     1      25.432   1.473  51.879  1.00  0.00     0.049 A 
HETATM    7  C13 UNL     1      24.362   2.286  51.571  1.00  0.00     0.063 A 
HETATM    8  C14 UNL     1      24.481   3.433  50.795  1.00  0.00     0.068 A 
ENDROOT
BRANCH   8   9
HETATM    9  N4  UNL     1      23.325   4.188  50.547  1.00  0.00    -0.388 N 
HETATM   10  H13 UNL     1      23.321   5.156  50.987  1.00  0.00     0.159 HD
BRANCH   9  11
HETATM   11  C15 UNL     1      22.202   3.726  49.764  1.00  0.00     0.115 C 
HETATM   12  C16 UNL     1      22.588   3.732  48.314  1.00  0.00     0.026 C 
ENDBRANCH   9  11
ENDBRANCH   8   9
BRANCH   6  13
HETATM   13  N2  UNL     1      25.296   0.301  52.673  1.00  0.00    -0.356 N 
HETATM   14  H3  UNL     1      24.665  -0.452  52.260  1.00  0.00     0.162 HD
BRANCH  13  15
HETATM   15  C6  UNL     1      25.937   0.101  53.945  1.00  0.00     0.351 C 
BRANCH  15  16
HETATM   16  N3  UNL     1      25.245  -0.891  54.746  1.00  0.00     0.105 N 
HETATM   17  H5  UNL     1      25.825  -1.698  55.004  1.00  0.00     0.315 HD
HETATM   18  H6  UNL     1      24.771  -0.438  55.560  1.00  0.00     0.315 HD
ENDBRANCH  15  16
BRANCH  15  19
HETATM   19  C7  UNL     1      27.377  -0.199  53.836  1.00  0.00    -0.006 A 
HETATM   20  C8  UNL     1      28.318   0.665  54.365  1.00  0.00     0.011 A 
HETATM   21  C9  UNL     1      29.655   0.300  54.223  1.00  0.00     0.001 A 
HETATM   22  C10 UNL     1      30.013  -0.858  53.590  1.00  0.00     0.000 A 
HETATM   23  C11 UNL     1      29.082  -1.708  53.070  1.00  0.00     0.001 A 
HETATM   24  C12 UNL     1      27.742  -1.385  53.188  1.00  0.00     0.011 A 
ENDBRANCH  15  19
ENDBRANCH  13  15
ENDBRANCH   6  13
TORSDOF 6
ENDMDL
MODEL 7
REMARK VINA RESULT:      -6.7      2.814      4.271
REMARK  6 active torsions:
REMARK  status: ('A' for Active; 'I' for Inactive)
REMARK    1  A    between atoms: C5_6  and  N2_7 
REMARK    2  A    between atoms: N2_7  and  C6_8 
REMARK    3  A    between atoms: C6_8  and  N3_9 
REMARK    4  A    between atoms: C6_8  and  C7_10 
REMARK    5  A    between atoms: C14_17  and  N4_18 
REMARK    6  A    between atoms: N4_18  and  C15_19 
ROOT
HETATM    1  C1  UNL     1      22.005   5.408  50.304  1.00  0.00     0.019 C 
HETATM    2  C2  UNL     1      22.561   4.430  50.790  1.00  0.00    -0.055 C 
HETATM    3  C3  UNL     1      23.190   3.271  51.358  1.00  0.00     0.135 A 
HETATM    4  N1  UNL     1      22.488   2.435  52.165  1.00  0.00    -0.247 NA
HETATM    5  C4  UNL     1      23.119   1.346  52.685  1.00  0.00     0.147 A 
HETATM    6  C5  UNL     1      24.438   1.038  52.441  1.00  0.00     0.049 A 
HETATM    7  C13 UNL     1      25.118   1.910  51.619  1.00  0.00     0.063 A 
HETATM    8  C14 UNL     1      24.528   3.038  51.058  1.00  0.00     0.068 A 
ENDROOT
BRANCH   8   9
HETATM    9  N4  UNL     1      25.314   3.856  50.232  1.00  0.00    -0.388 N 
HETATM   10  H13 UNL     1      24.915   4.826  50.056  1.00  0.00     0.159 HD
BRANCH   9  11
HETATM   11  C15 UNL     1      26.570   3.453  49.644  1.00  0.00     0.115 C 
HETATM   12  C16 UNL     1      27.163   4.625  48.919  1.00  0.00     0.026 C 
ENDBRANCH   9  11
ENDBRANCH   8   9
BRANCH   6  13
HETATM   13  N2  UNL     1      25.055  -0.112  53.009  1.00  0.00    -0.356 N 
HETATM   14  H3  UNL     1      24.893  -1.019  52.475  1.00  0.00     0.162 HD
BRANCH  13  15
HETATM   15  C6  UNL     1      25.845  -0.101  54.211  1.00  0.00     0.351 C 
BRANCH  15  16
HETATM   16  N3  UNL     1      25.399  -1.108  55.156  1.00  0.00     0.105 N 
HETATM   17  H5  UNL     1      25.711  -0.942  56.120  1.00  0.00     0.315 HD
HETATM   18  H6  UNL     1      24.368  -1.259  55.069  1.00  0.00     0.315 HD
ENDBRANCH  15  16
BRANCH  15  19
HETATM   19  C7  UNL     1      27.296  -0.198  53.960  1.00  0.00    -0.006 A 
HETATM   20  C8  UNL     1      27.841  -1.345  53.413  1.00  0.00     0.011 A 
HETATM   21  C9  UNL     1      29.218  -1.348  53.204  1.00  0.00     0.001 A 
HETATM   22  C10 UNL     1      29.989  -0.265  53.527  1.00  0.00     0.000 A 
HETATM   23  C11 UNL     1      29.448   0.865  54.067  1.00  0.00     0.001 A 
HETATM   24  C12 UNL     1      28.083   0.911  54.292  1.00  0.00     0.011 A 
ENDBRANCH  15  19
ENDBRANCH  13  15
ENDBRANCH   6  13
TORSDOF 6
ENDMDL
MODEL 8
REMARK VINA RESULT:      -6.7      3.337      6.458
REMARK  6 active torsions:
REMARK  status: ('A' for Active; 'I' for Inactive)
REMARK    1  A    between atoms: C5_6  and  N2_7 
REMARK    2  A    between atoms: N2_7  and  C6_8 
REMARK    3  A    between atoms: C6_8  and  N3_9 
REMARK    4  A    between atoms: C6_8  and  C7_10 
REMARK    5  A    between atoms: C14_17  and  N4_18 
REMARK    6  A    between atoms: N4_18  and  C15_19 
ROOT
HETATM    1  C1  UNL     1      27.159   5.092  48.569  1.00  0.00     0.019 C 
HETATM    2  C2  UNL     1      26.773   4.383  49.491  1.00  0.00    -0.055 C 
HETATM    3  C3  UNL     1      26.344   3.553  50.582  1.00  0.00     0.135 A 
HETATM    4  N1  UNL     1      27.198   2.655  51.138  1.00  0.00    -0.247 NA
HETATM    5  C4  UNL     1      26.754   1.885  52.170  1.00  0.00     0.147 A 
HETATM    6  C5  UNL     1      25.482   1.962  52.690  1.00  0.00     0.049 A 
HETATM    7  C13 UNL     1      24.645   2.885  52.099  1.00  0.00     0.063 A 
HETATM    8  C14 UNL     1      25.040   3.699  51.043  1.00  0.00     0.068 A 
ENDROOT
BRANCH   8   9
HETATM    9  N4  UNL     1      24.106   4.604  50.519  1.00  0.00    -0.388 N 
HETATM   10  H13 UNL     1      23.647   4.297  49.610  1.00  0.00     0.159 HD
BRANCH   9  11
HETATM   11  C15 UNL     1      23.765   5.868  51.131  1.00  0.00     0.115 C 
HETATM   12  C16 UNL     1      22.283   6.076  51.020  1.00  0.00     0.026 C 
ENDBRANCH   9  11
ENDBRANCH   8   9
BRANCH   6  13
HETATM   13  N2  UNL     1      25.064   1.136  53.769  1.00  0.00    -0.356 N 
HETATM   14  H3  UNL     1      25.044   1.614  54.721  1.00  0.00     0.162 HD
BRANCH  13  15
HETATM   15  C6  UNL     1      24.689  -0.246  53.638  1.00  0.00     0.351 C 
BRANCH  15  16
HETATM   16  N3  UNL     1      25.386  -1.086  54.595  1.00  0.00     0.105 N 
HETATM   17  H5  UNL     1      25.845  -1.904  54.177  1.00  0.00     0.315 HD
HETATM   18  H6  UNL     1      26.020  -0.509  55.193  1.00  0.00     0.315 HD
ENDBRANCH  15  16
BRANCH  15  19
HETATM   19  C7  UNL     1      23.231  -0.466  53.685  1.00  0.00    -0.006 A 
HETATM   20  C8  UNL     1      22.652  -1.119  54.757  1.00  0.00     0.011 A 
HETATM   21  C9  UNL     1      21.267  -1.277  54.722  1.00  0.00     0.001 A 
HETATM   22  C10 UNL     1      20.524  -0.808  53.676  1.00  0.00     0.000 A 
HETATM   23  C11 UNL     1      21.099  -0.165  52.619  1.00  0.00     0.001 A 
HETATM   24  C12 UNL     1      22.471   0.014  52.612  1.00  0.00     0.011 A 
ENDBRANCH  15  19
ENDBRANCH  13  15
ENDBRANCH   6  13
TORSDOF 6
ENDMDL
MODEL 9
REMARK VINA RESULT:      -6.6      2.825      3.996
REMARK  6 active torsions:
REMARK  status: ('A' for Active; 'I' for Inactive)
REMARK    1  A    between atoms: C5_6  and  N2_7 
REMARK    2  A    between atoms: N2_7  and  C6_8 
REMARK    3  A    between atoms: C6_8  and  N3_9 
REMARK    4  A    between atoms: C6_8  and  C7_10 
REMARK    5  A    between atoms: C14_17  and  N4_18 
REMARK    6  A    between atoms: N4_18  and  C15_19 
ROOT
HETATM    1  C1  UNL     1      18.790   3.907  51.421  1.00  0.00     0.019 C 
HETATM    2  C2  UNL     1      19.967   3.714  51.706  1.00  0.00    -0.055 C 
HETATM    3  C3  UNL     1      21.344   3.465  52.028  1.00  0.00     0.135 A 
HETATM    4  N1  UNL     1      21.769   2.203  52.293  1.00  0.00    -0.247 NA
HETATM    5  C4  UNL     1      23.083   2.006  52.594  1.00  0.00     0.147 A 
HETATM    6  C5  UNL     1      24.015   3.018  52.647  1.00  0.00     0.049 A 
HETATM    7  C13 UNL     1      23.545   4.285  52.374  1.00  0.00     0.063 A 
HETATM    8  C14 UNL     1      22.216   4.548  52.059  1.00  0.00     0.068 A 
ENDROOT
BRANCH   8   9
HETATM    9  N4  UNL     1      21.848   5.876  51.796  1.00  0.00    -0.388 N 
HETATM   10  H13 UNL     1      21.154   6.292  52.487  1.00  0.00     0.159 HD
BRANCH   9  11
HETATM   11  C15 UNL     1      22.343   6.654  50.684  1.00  0.00     0.115 C 
HETATM   12  C16 UNL     1      21.605   6.249  49.442  1.00  0.00     0.026 C 
ENDBRANCH   9  11
ENDBRANCH   8   9
BRANCH   6  13
HETATM   13  N2  UNL     1      25.377   2.764  52.968  1.00  0.00    -0.356 N 
HETATM   14  H3  UNL     1      25.666   3.040  53.955  1.00  0.00     0.162 HD
BRANCH  13  15
HETATM   15  C6  UNL     1      26.331   2.182  52.062  1.00  0.00     0.351 C 
BRANCH  15  16
HETATM   16  N3  UNL     1      26.948   3.185  51.214  1.00  0.00     0.105 N 
HETATM   17  H5  UNL     1      27.526   3.864  51.723  1.00  0.00     0.315 HD
HETATM   18  H6  UNL     1      27.441   2.731  50.412  1.00  0.00     0.315 HD
ENDBRANCH  15  16
BRANCH  15  19
HETATM   19  C7  UNL     1      27.343   1.344  52.734  1.00  0.00    -0.006 A 
HETATM   20  C8  UNL     1      28.370   1.923  53.455  1.00  0.00     0.011 A 
HETATM   21  C9  UNL     1      29.277   1.057  54.063  1.00  0.00     0.001 A 
HETATM   22  C10 UNL     1      29.151  -0.299  53.948  1.00  0.00     0.000 A 
HETATM   23  C11 UNL     1      28.137  -0.868  53.235  1.00  0.00     0.001 A 
HETATM   24  C12 UNL     1      27.213  -0.045  52.615  1.00  0.00     0.011 A 
ENDBRANCH  15  19
ENDBRANCH  13  15
ENDBRANCH   6  13
TORSDOF 6
ENDMDL
