MODEL 1
REMARK VINA RESULT:      -7.4      0.000      0.000
REMARK  7 active torsions:
REMARK  status: ('A' for Active; 'I' for Inactive)
REMARK    1  A    between atoms: C2_2  and  N1_10 
REMARK    2  A    between atoms: C3_3  and  C4_4 
REMARK    3  A    between atoms: C5_5  and  C6_7 
REMARK    4  A    between atoms: C6_7  and  P1_8 
REMARK    5  A    between atoms: P1_8  and  P2_9 
REMARK    6  A    between atoms: N1_10  and  C7_11 
REMARK    7  A    between atoms: C14_21  and  P3_22 
ROOT
HETATM    1  C7  UNL     1      26.224   2.317  51.161  1.00  0.00     0.160 A 
HETATM    2  N2  UNL     1      27.394   2.458  51.789  1.00  0.00    -0.222 NA
HETATM    3  C8  UNL     1      27.502   1.960  53.056  1.00  0.00     0.238 A 
HETATM    4  N3  UNL     1      26.461   1.349  53.645  1.00  0.00    -0.215 NA
HETATM    5  C9  UNL     1      25.297   1.220  52.993  1.00  0.00     0.202 A 
HETATM    6  C10 UNL     1      25.125   1.699  51.716  1.00  0.00     0.129 A 
HETATM    7  N4  UNL     1      24.031   1.694  50.832  1.00  0.00    -0.379 N 
HETATM    8  C11 UNL     1      22.626   1.650  51.196  1.00  0.00     0.161 C 
HETATM    9  C12 UNL     1      22.334   0.798  52.354  1.00  0.00    -0.006 A 
HETATM   10  C13 UNL     1      20.994   0.417  52.247  1.00  0.00     0.023 A 
HETATM   11  C14 UNL     1      20.355  -0.389  53.154  1.00  0.00    -0.036 A 
HETATM   12  C15 UNL     1      21.075  -0.853  54.239  1.00  0.00     0.014 A 
HETATM   13  C16 UNL     1      22.410  -0.508  54.398  1.00  0.00     0.039 A 
HETATM   14  C17 UNL     1      22.999   0.306  53.452  1.00  0.00     0.086 A 
HETATM   15  O1  UNL     1      24.329   0.566  53.741  1.00  0.00    -0.289 OA
HETATM   16  H11 UNL     1      24.307   1.722  49.837  1.00  0.00     0.160 HD
ENDROOT
BRANCH   1  17
HETATM   17  N1  UNL     1      26.173   2.854  49.857  1.00  0.00    -0.343 N 
HETATM   18  H9  UNL     1      26.169   2.656  48.840  1.00  0.00     0.167 HD
BRANCH  17  19
HETATM   19  C2  UNL     1      26.087   4.285  49.677  1.00  0.00     0.004 C 
HETATM   20  C1  UNL     1      27.241   4.801  48.904  1.00  0.00     0.068 C 
HETATM   21  C3  UNL     1      25.110   5.092  50.131  1.00  0.00     0.007 C 
BRANCH  21  22
HETATM   22  C4  UNL     1      25.432   6.500  49.710  1.00  0.00     0.140 C 
HETATM   23  C5  UNL     1      24.930   7.686  50.177  1.00  0.00     0.096 C 
HETATM   24  F1  UNL     1      24.089   8.423  51.032  1.00  0.00    -0.248 F 
BRANCH  23  25
HETATM   25  C6  UNL     1      25.545   8.796  49.459  1.00  0.00     0.082 C 
BRANCH  25  26
HETATM   26  P1  UNL     1      27.287   9.193  49.937  1.00  0.00    -0.050 P 
BRANCH  26  27
HETATM   27  P2  UNL     1      28.850   8.775  48.778  1.00  0.00    -0.064 P 
HETATM   28  H8  UNL     1      29.218   7.429  48.403  1.00  0.00     0.068 HD
ENDBRANCH  26  27
ENDBRANCH  25  26
ENDBRANCH  23  25
ENDBRANCH  21  22
ENDBRANCH  17  19
ENDBRANCH   1  17
BRANCH  11  29
HETATM   29  P3  UNL     1      18.616  -0.875  53.003  1.00  0.00    -0.106 P 
HETATM   30  H15 UNL     1      17.945  -0.269  51.881  1.00  0.00     0.059 HD
HETATM   31  H16 UNL     1      18.414  -2.290  53.134  1.00  0.00     0.059 HD
ENDBRANCH  11  29
TORSDOF 7
ENDMDL
MODEL 2
REMARK VINA RESULT:      -7.3      1.565      1.869
REMARK  7 active torsions:
REMARK  status: ('A' for Active; 'I' for Inactive)
REMARK    1  A    between atoms: C2_2  and  N1_10 
REMARK    2  A    between atoms: C3_3  and  C4_4 
REMARK    3  A    between atoms: C5_5  and  C6_7 
REMARK    4  A    between atoms: C6_7  and  P1_8 
REMARK    5  A    between atoms: P1_8  and  P2_9 
REMARK    6  A    between atoms: N1_10  and  C7_11 
REMARK    7  A    between atoms: C14_21  and  P3_22 
ROOT
HETATM    1  C7  UNL     1      25.942   2.435  50.955  1.00  0.00     0.160 A 
HETATM    2  N2  UNL     1      27.129   2.592  51.548  1.00  0.00    -0.222 NA
HETATM    3  C8  UNL     1      27.281   2.094  52.810  1.00  0.00     0.238 A 
HETATM    4  N3  UNL     1      26.267   1.468  53.429  1.00  0.00    -0.215 NA
HETATM    5  C9  UNL     1      25.086   1.324  52.812  1.00  0.00     0.202 A 
HETATM    6  C10 UNL     1      24.869   1.802  51.542  1.00  0.00     0.129 A 
HETATM    7  N4  UNL     1      23.748   1.783  50.691  1.00  0.00    -0.379 N 
HETATM    8  C11 UNL     1      22.356   1.719  51.097  1.00  0.00     0.161 C 
HETATM    9  C12 UNL     1      22.110   0.862  52.262  1.00  0.00    -0.006 A 
HETATM   10  C13 UNL     1      20.773   0.463  52.195  1.00  0.00     0.023 A 
HETATM   11  C14 UNL     1      20.173  -0.353  53.120  1.00  0.00    -0.036 A 
HETATM   12  C15 UNL     1      20.932  -0.808  54.181  1.00  0.00     0.014 A 
HETATM   13  C16 UNL     1      22.266  -0.444  54.300  1.00  0.00     0.039 A 
HETATM   14  C17 UNL     1      22.815   0.378  53.339  1.00  0.00     0.086 A 
HETATM   15  O1  UNL     1      24.149   0.656  53.588  1.00  0.00    -0.289 OA
HETATM   16  H11 UNL     1      23.994   1.816  49.688  1.00  0.00     0.160 HD
ENDROOT
BRANCH   1  17
HETATM   17  N1  UNL     1      25.844   2.973  49.653  1.00  0.00    -0.343 N 
HETATM   18  H9  UNL     1      25.567   2.809  48.669  1.00  0.00     0.167 HD
BRANCH  17  19
HETATM   19  C2  UNL     1      26.275   4.330  49.408  1.00  0.00     0.004 C 
HETATM   20  C1  UNL     1      25.316   5.310  49.971  1.00  0.00     0.068 C 
HETATM   21  C3  UNL     1      27.391   4.712  48.759  1.00  0.00     0.007 C 
BRANCH  21  22
HETATM   22  C4  UNL     1      27.433   6.215  48.743  1.00  0.00     0.140 C 
HETATM   23  C5  UNL     1      27.927   7.063  47.786  1.00  0.00     0.096 C 
HETATM   24  F1  UNL     1      28.547   7.303  46.545  1.00  0.00    -0.248 F 
BRANCH  23  25
HETATM   25  C6  UNL     1      27.747   8.444  48.215  1.00  0.00     0.082 C 
BRANCH  25  26
HETATM   26  P1  UNL     1      29.169   9.191  49.131  1.00  0.00    -0.050 P 
BRANCH  26  27
HETATM   27  P2  UNL     1      31.028   8.492  49.002  1.00  0.00    -0.064 P 
HETATM   28  H8  UNL     1      32.135   9.278  48.508  1.00  0.00     0.068 HD
ENDBRANCH  26  27
ENDBRANCH  25  26
ENDBRANCH  23  25
ENDBRANCH  21  22
ENDBRANCH  17  19
ENDBRANCH   1  17
BRANCH  11  29
HETATM   29  P3  UNL     1      18.437  -0.862  53.021  1.00  0.00    -0.106 P 
HETATM   30  H15 UNL     1      17.647  -0.045  52.135  1.00  0.00     0.059 HD
HETATM   31  H16 UNL     1      18.275  -2.277  52.839  1.00  0.00     0.059 HD
ENDBRANCH  11  29
TORSDOF 7
ENDMDL
MODEL 3
REMARK VINA RESULT:      -7.2      3.265      4.564
REMARK  7 active torsions:
REMARK  status: ('A' for Active; 'I' for Inactive)
REMARK    1  A    between atoms: C2_2  and  N1_10 
REMARK    2  A    between atoms: C3_3  and  C4_4 
REMARK    3  A    between atoms: C5_5  and  C6_7 
REMARK    4  A    between atoms: C6_7  and  P1_8 
REMARK    5  A    between atoms: P1_8  and  P2_9 
REMARK    6  A    between atoms: N1_10  and  C7_11 
REMARK    7  A    between atoms: C14_21  and  P3_22 
ROOT
HETATM    1  C7  UNL     1      23.701   6.935  51.083  1.00  0.00     0.160 A 
HETATM    2  N2  UNL     1      23.006   7.892  50.464  1.00  0.00    -0.222 NA
HETATM    3  C8  UNL     1      21.684   7.660  50.216  1.00  0.00     0.238 A 
HETATM    4  N3  UNL     1      21.107   6.505  50.586  1.00  0.00    -0.215 NA
HETATM    5  C9  UNL     1      21.827   5.560  51.206  1.00  0.00     0.202 A 
HETATM    6  C10 UNL     1      23.162   5.733  51.485  1.00  0.00     0.129 A 
HETATM    7  N4  UNL     1      24.122   4.916  52.110  1.00  0.00    -0.379 N 
HETATM    8  C11 UNL     1      24.114   3.466  52.173  1.00  0.00     0.161 C 
HETATM    9  C12 UNL     1      22.779   2.881  52.340  1.00  0.00    -0.006 A 
HETATM   10  C13 UNL     1      22.959   1.622  52.920  1.00  0.00     0.023 A 
HETATM   11  C14 UNL     1      21.930   0.771  53.229  1.00  0.00    -0.036 A 
HETATM   12  C15 UNL     1      20.638   1.177  52.953  1.00  0.00     0.014 A 
HETATM   13  C16 UNL     1      20.398   2.417  52.378  1.00  0.00     0.039 A 
HETATM   14  C17 UNL     1      21.473   3.231  52.089  1.00  0.00     0.086 A 
HETATM   15  O1  UNL     1      21.082   4.432  51.519  1.00  0.00    -0.289 OA
HETATM   16  H11 UNL     1      24.886   5.449  52.558  1.00  0.00     0.160 HD
ENDROOT
BRANCH   1  17
HETATM   17  N1  UNL     1      25.062   7.231  51.310  1.00  0.00    -0.343 N 
HETATM   18  H9  UNL     1      25.800   7.426  52.011  1.00  0.00     0.167 HD
BRANCH  17  19
HETATM   19  C2  UNL     1      25.962   7.352  50.186  1.00  0.00     0.004 C 
HETATM   20  C1  UNL     1      26.625   8.678  50.167  1.00  0.00     0.068 C 
HETATM   21  C3  UNL     1      26.206   6.416  49.250  1.00  0.00     0.007 C 
BRANCH  21  22
HETATM   22  C4  UNL     1      27.209   6.975  48.278  1.00  0.00     0.140 C 
HETATM   23  C5  UNL     1      28.409   6.456  47.867  1.00  0.00     0.096 C 
HETATM   24  F1  UNL     1      29.397   5.454  47.893  1.00  0.00    -0.248 F 
BRANCH  23  25
HETATM   25  C6  UNL     1      29.033   7.361  46.911  1.00  0.00     0.082 C 
BRANCH  25  26
HETATM   26  P1  UNL     1      29.336   9.082  47.515  1.00  0.00    -0.050 P 
BRANCH  26  27
HETATM   27  P2  UNL     1      30.442   9.489  49.119  1.00  0.00    -0.064 P 
HETATM   28  H8  UNL     1      30.979  10.801  49.397  1.00  0.00     0.068 HD
ENDBRANCH  26  27
ENDBRANCH  25  26
ENDBRANCH  23  25
ENDBRANCH  21  22
ENDBRANCH  17  19
ENDBRANCH   1  17
BRANCH  11  29
HETATM   29  P3  UNL     1      22.178  -0.860  53.980  1.00  0.00    -0.106 P 
HETATM   30  H15 UNL     1      23.492  -1.039  54.544  1.00  0.00     0.059 HD
HETATM   31  H16 UNL     1      21.096  -1.256  54.836  1.00  0.00     0.059 HD
ENDBRANCH  11  29
TORSDOF 7
ENDMDL
MODEL 4
REMARK VINA RESULT:      -7.1      4.303      8.909
REMARK  7 active torsions:
REMARK  status: ('A' for Active; 'I' for Inactive)
REMARK    1  A    between atoms: C2_2  and  N1_10 
REMARK    2  A    between atoms: C3_3  and  C4_4 
REMARK    3  A    between atoms: C5_5  and  C6_7 
REMARK    4  A    between atoms: C6_7  and  P1_8 
REMARK    5  A    between atoms: P1_8  and  P2_9 
REMARK    6  A    between atoms: N1_10  and  C7_11 
REMARK    7  A    between atoms: C14_21  and  P3_22 
ROOT
HETATM    1  C7  UNL     1      24.881   4.708  50.183  1.00  0.00     0.160 A 
HETATM    2  N2  UNL     1      23.930   5.129  51.021  1.00  0.00    -0.222 NA
HETATM    3  C8  UNL     1      23.911   6.454  51.349  1.00  0.00     0.238 A 
HETATM    4  N3  UNL     1      24.821   7.301  50.841  1.00  0.00    -0.215 NA
HETATM    5  C9  UNL     1      25.765   6.853  50.002  1.00  0.00     0.202 A 
HETATM    6  C10 UNL     1      25.838   5.532  49.632  1.00  0.00     0.129 A 
HETATM    7  N4  UNL     1      26.711   4.822  48.788  1.00  0.00    -0.379 N 
HETATM    8  C11 UNL     1      28.086   5.169  48.477  1.00  0.00     0.161 C 
HETATM    9  C12 UNL     1      28.323   6.610  48.338  1.00  0.00    -0.006 A 
HETATM   10  C13 UNL     1      29.457   6.757  47.536  1.00  0.00     0.023 A 
HETATM   11  C14 UNL     1      29.989   7.970  47.182  1.00  0.00    -0.036 A 
HETATM   12  C15 UNL     1      29.370   9.117  47.645  1.00  0.00     0.014 A 
HETATM   13  C16 UNL     1      28.240   9.032  48.446  1.00  0.00     0.039 A 
HETATM   14  C17 UNL     1      27.750   7.784  48.768  1.00  0.00     0.086 A 
HETATM   15  O1  UNL     1      26.623   7.855  49.570  1.00  0.00    -0.289 OA
HETATM   16  H11 UNL     1      26.283   3.980  48.369  1.00  0.00     0.160 HD
ENDROOT
BRANCH   1  17
HETATM   17  N1  UNL     1      24.852   3.329  49.883  1.00  0.00    -0.343 N 
HETATM   18  H9  UNL     1      24.730   2.605  49.152  1.00  0.00     0.167 HD
BRANCH  17  19
HETATM   19  C2  UNL     1      25.066   2.365  50.938  1.00  0.00     0.004 C 
HETATM   20  C1  UNL     1      26.500   2.270  51.298  1.00  0.00     0.068 C 
HETATM   21  C3  UNL     1      24.123   1.625  51.551  1.00  0.00     0.007 C 
BRANCH  21  22
HETATM   22  C4  UNL     1      24.799   0.764  52.583  1.00  0.00     0.140 C 
HETATM   23  C5  UNL     1      24.247  -0.036  53.549  1.00  0.00     0.096 C 
HETATM   24  F1  UNL     1      23.135  -0.584  54.215  1.00  0.00    -0.248 F 
BRANCH  23  25
HETATM   25  C6  UNL     1      25.306  -0.677  54.318  1.00  0.00     0.082 C 
BRANCH  25  26
HETATM   26  P1  UNL     1      26.767   0.385  54.713  1.00  0.00    -0.050 P 
BRANCH  26  27
HETATM   27  P2  UNL     1      28.620  -0.068  54.145  1.00  0.00    -0.064 P 
HETATM   28  H8  UNL     1      28.915  -1.000  53.081  1.00  0.00     0.068 HD
ENDBRANCH  26  27
ENDBRANCH  25  26
ENDBRANCH  23  25
ENDBRANCH  21  22
ENDBRANCH  17  19
ENDBRANCH   1  17
BRANCH  11  29
HETATM   29  P3  UNL     1      31.462   8.147  46.141  1.00  0.00    -0.106 P 
HETATM   30  H15 UNL     1      31.282   9.060  45.041  1.00  0.00     0.059 HD
HETATM   31  H16 UNL     1      32.665   8.346  46.898  1.00  0.00     0.059 HD
ENDBRANCH  11  29
TORSDOF 7
ENDMDL
MODEL 5
REMARK VINA RESULT:      -6.6      2.912      4.203
REMARK  7 active torsions:
REMARK  status: ('A' for Active; 'I' for Inactive)
REMARK    1  A    between atoms: C2_2  and  N1_10 
REMARK    2  A    between atoms: C3_3  and  C4_4 
REMARK    3  A    between atoms: C5_5  and  C6_7 
REMARK    4  A    between atoms: C6_7  and  P1_8 
REMARK    5  A    between atoms: P1_8  and  P2_9 
REMARK    6  A    between atoms: N1_10  and  C7_11 
REMARK    7  A    between atoms: C14_21  and  P3_22 
ROOT
HETATM    1  C7  UNL     1      24.522   5.109  49.706  1.00  0.00     0.160 A 
HETATM    2  N2  UNL     1      24.046   5.593  48.556  1.00  0.00    -0.222 NA
HETATM    3  C8  UNL     1      22.959   4.976  48.007  1.00  0.00     0.238 A 
HETATM    4  N3  UNL     1      22.391   3.918  48.610  1.00  0.00    -0.215 NA
HETATM    5  C9  UNL     1      22.889   3.451  49.763  1.00  0.00     0.202 A 
HETATM    6  C10 UNL     1      23.981   4.028  50.367  1.00  0.00     0.129 A 
HETATM    7  N4  UNL     1      24.684   3.737  51.550  1.00  0.00    -0.379 N 
HETATM    8  C11 UNL     1      24.785   2.443  52.199  1.00  0.00     0.161 C 
HETATM    9  C12 UNL     1      23.554   1.648  52.145  1.00  0.00    -0.006 A 
HETATM   10  C13 UNL     1      23.603   0.752  53.216  1.00  0.00     0.023 A 
HETATM   11  C14 UNL     1      22.619  -0.162  53.493  1.00  0.00    -0.036 A 
HETATM   12  C15 UNL     1      21.511  -0.202  52.667  1.00  0.00     0.014 A 
HETATM   13  C16 UNL     1      21.407   0.664  51.587  1.00  0.00     0.039 A 
HETATM   14  C17 UNL     1      22.429   1.562  51.358  1.00  0.00     0.086 A 
HETATM   15  O1  UNL     1      22.188   2.357  50.251  1.00  0.00    -0.289 OA
HETATM   16  H11 UNL     1      25.155   4.560  51.961  1.00  0.00     0.160 HD
ENDROOT
BRANCH   1  17
HETATM   17  N1  UNL     1      25.648   5.785  50.223  1.00  0.00    -0.343 N 
HETATM   18  H9  UNL     1      26.133   6.136  51.069  1.00  0.00     0.167 HD
BRANCH  17  19
HETATM   19  C2  UNL     1      26.666   6.269  49.320  1.00  0.00     0.004 C 
HETATM   20  C1  UNL     1      26.723   7.750  49.315  1.00  0.00     0.068 C 
HETATM   21  C3  UNL     1      27.485   5.519  48.558  1.00  0.00     0.007 C 
BRANCH  21  22
HETATM   22  C4  UNL     1      28.381   6.444  47.781  1.00  0.00     0.140 C 
HETATM   23  C5  UNL     1      29.740   6.400  47.608  1.00  0.00     0.096 C 
HETATM   24  F1  UNL     1      30.998   5.809  47.832  1.00  0.00    -0.248 F 
BRANCH  23  25
HETATM   25  C6  UNL     1      30.164   7.515  46.771  1.00  0.00     0.082 C 
BRANCH  25  26
HETATM   26  P1  UNL     1      31.192   8.803  47.610  1.00  0.00    -0.050 P 
BRANCH  26  27
HETATM   27  P2  UNL     1      30.576   9.804  49.216  1.00  0.00    -0.064 P 
HETATM   28  H8  UNL     1      29.311   9.552  49.867  1.00  0.00     0.068 HD
ENDBRANCH  26  27
ENDBRANCH  25  26
ENDBRANCH  23  25
ENDBRANCH  21  22
ENDBRANCH  17  19
ENDBRANCH   1  17
BRANCH  11  29
HETATM   29  P3  UNL     1      22.697  -1.319  54.886  1.00  0.00    -0.106 P 
HETATM   30  H15 UNL     1      22.647  -0.673  56.173  1.00  0.00     0.059 HD
HETATM   31  H16 UNL     1      21.810  -2.437  54.738  1.00  0.00     0.059 HD
ENDBRANCH  11  29
TORSDOF 7
ENDMDL
MODEL 6
REMARK VINA RESULT:      -6.6      3.003      8.568
REMARK  7 active torsions:
REMARK  status: ('A' for Active; 'I' for Inactive)
REMARK    1  A    between atoms: C2_2  and  N1_10 
REMARK    2  A    between atoms: C3_3  and  C4_4 
REMARK    3  A    between atoms: C5_5  and  C6_7 
REMARK    4  A    between atoms: C6_7  and  P1_8 
REMARK    5  A    between atoms: P1_8  and  P2_9 
REMARK    6  A    between atoms: N1_10  and  C7_11 
REMARK    7  A    between atoms: C14_21  and  P3_22 
ROOT
HETATM    1  C7  UNL     1      24.425   2.481  52.102  1.00  0.00     0.160 A 
HETATM    2  N2  UNL     1      24.869   1.281  52.485  1.00  0.00    -0.222 NA
HETATM    3  C8  UNL     1      26.073   0.861  51.997  1.00  0.00     0.238 A 
HETATM    4  N3  UNL     1      26.783   1.634  51.159  1.00  0.00    -0.215 NA
HETATM    5  C9  UNL     1      26.315   2.835  50.789  1.00  0.00     0.202 A 
HETATM    6  C10 UNL     1      25.111   3.314  51.246  1.00  0.00     0.129 A 
HETATM    7  N4  UNL     1      24.409   4.512  51.015  1.00  0.00    -0.379 N 
HETATM    8  C11 UNL     1      24.500   5.353  49.835  1.00  0.00     0.161 C 
HETATM    9  C12 UNL     1      25.851   5.452  49.272  1.00  0.00    -0.006 A 
HETATM   10  C13 UNL     1      25.901   6.649  48.553  1.00  0.00     0.023 A 
HETATM   11  C14 UNL     1      27.013   7.088  47.881  1.00  0.00    -0.036 A 
HETATM   12  C15 UNL     1      28.152   6.305  47.915  1.00  0.00     0.014 A 
HETATM   13  C16 UNL     1      28.160   5.106  48.614  1.00  0.00     0.039 A 
HETATM   14  C17 UNL     1      27.012   4.715  49.271  1.00  0.00     0.086 A 
HETATM   15  O1  UNL     1      27.168   3.503  49.923  1.00  0.00    -0.289 OA
HETATM   16  H11 UNL     1      23.783   4.778  51.793  1.00  0.00     0.160 HD
ENDROOT
BRANCH   1  17
HETATM   17  N1  UNL     1      23.175   2.859  52.637  1.00  0.00    -0.343 N 
HETATM   18  H9  UNL     1      22.663   3.505  53.264  1.00  0.00     0.167 HD
BRANCH  17  19
HETATM   19  C2  UNL     1      21.985   2.138  52.247  1.00  0.00     0.004 C 
HETATM   20  C1  UNL     1      21.178   2.916  51.276  1.00  0.00     0.068 C 
HETATM   21  C3  UNL     1      21.610   0.919  52.676  1.00  0.00     0.007 C 
BRANCH  21  22
HETATM   22  C4  UNL     1      20.310   0.566  52.007  1.00  0.00     0.140 C 
HETATM   23  C5  UNL     1      19.283  -0.222  52.457  1.00  0.00     0.096 C 
HETATM   24  F1  UNL     1      18.692  -1.048  53.432  1.00  0.00    -0.248 F 
BRANCH  23  25
HETATM   25  C6  UNL     1      18.227  -0.273  51.453  1.00  0.00     0.082 C 
BRANCH  25  26
HETATM   26  P1  UNL     1      16.499  -0.305  52.109  1.00  0.00    -0.050 P 
BRANCH  26  27
HETATM   27  P2  UNL     1      15.363  -1.939  52.091  1.00  0.00    -0.064 P 
HETATM   28  H8  UNL     1      14.871  -2.546  50.876  1.00  0.00     0.068 HD
ENDBRANCH  26  27
ENDBRANCH  25  26
ENDBRANCH  23  25
ENDBRANCH  21  22
ENDBRANCH  17  19
ENDBRANCH   1  17
BRANCH  11  29
HETATM   29  P3  UNL     1      27.065   8.642  46.950  1.00  0.00    -0.106 P 
HETATM   30  H15 UNL     1      27.604   8.498  45.621  1.00  0.00     0.059 HD
HETATM   31  H16 UNL     1      25.839   9.385  47.026  1.00  0.00     0.059 HD
ENDBRANCH  11  29
TORSDOF 7
ENDMDL
MODEL 7
REMARK VINA RESULT:      -6.5      8.208     11.240
REMARK  7 active torsions:
REMARK  status: ('A' for Active; 'I' for Inactive)
REMARK    1  A    between atoms: C2_2  and  N1_10 
REMARK    2  A    between atoms: C3_3  and  C4_4 
REMARK    3  A    between atoms: C5_5  and  C6_7 
REMARK    4  A    between atoms: C6_7  and  P1_8 
REMARK    5  A    between atoms: P1_8  and  P2_9 
REMARK    6  A    between atoms: N1_10  and  C7_11 
REMARK    7  A    between atoms: C14_21  and  P3_22 
ROOT
HETATM    1  C7  UNL     1      33.795   5.205  46.022  1.00  0.00     0.160 A 
HETATM    2  N2  UNL     1      34.517   4.175  46.472  1.00  0.00    -0.222 NA
HETATM    3  C8  UNL     1      33.955   3.370  47.420  1.00  0.00     0.238 A 
HETATM    4  N3  UNL     1      32.716   3.610  47.881  1.00  0.00    -0.215 NA
HETATM    5  C9  UNL     1      32.013   4.650  47.413  1.00  0.00     0.202 A 
HETATM    6  C10 UNL     1      32.522   5.498  46.458  1.00  0.00     0.129 A 
HETATM    7  N4  UNL     1      32.002   6.636  45.815  1.00  0.00    -0.379 N 
HETATM    8  C11 UNL     1      30.999   7.544  46.342  1.00  0.00     0.161 C 
HETATM    9  C12 UNL     1      29.942   6.885  47.116  1.00  0.00    -0.006 A 
HETATM   10  C13 UNL     1      28.827   7.726  47.075  1.00  0.00     0.023 A 
HETATM   11  C14 UNL     1      27.635   7.442  47.691  1.00  0.00    -0.036 A 
HETATM   12  C15 UNL     1      27.526   6.257  48.394  1.00  0.00     0.014 A 
HETATM   13  C16 UNL     1      28.601   5.382  48.469  1.00  0.00     0.039 A 
HETATM   14  C17 UNL     1      29.775   5.721  47.829  1.00  0.00     0.086 A 
HETATM   15  O1  UNL     1      30.756   4.757  47.991  1.00  0.00    -0.289 OA
HETATM   16  H11 UNL     1      32.403   6.797  44.876  1.00  0.00     0.160 HD
ENDROOT
BRANCH   1  17
HETATM   17  N1  UNL     1      34.429   6.002  45.045  1.00  0.00    -0.343 N 
HETATM   18  H9  UNL     1      35.019   6.833  44.856  1.00  0.00     0.167 HD
BRANCH  17  19
HETATM   19  C2  UNL     1      34.302   5.654  43.648  1.00  0.00     0.004 C 
HETATM   20  C1  UNL     1      35.130   6.540  42.795  1.00  0.00     0.068 C 
HETATM   21  C3  UNL     1      33.548   4.666  43.134  1.00  0.00     0.007 C 
BRANCH  21  22
HETATM   22  C4  UNL     1      33.725   4.670  41.640  1.00  0.00     0.140 C 
HETATM   23  C5  UNL     1      34.003   3.630  40.792  1.00  0.00     0.096 C 
HETATM   24  F1  UNL     1      34.265   2.269  40.547  1.00  0.00    -0.248 F 
BRANCH  23  25
HETATM   25  C6  UNL     1      34.083   4.122  39.422  1.00  0.00     0.082 C 
BRANCH  25  26
HETATM   26  P1  UNL     1      32.576   3.855  38.384  1.00  0.00    -0.050 P 
BRANCH  26  27
HETATM   27  P2  UNL     1      30.782   3.476  39.158  1.00  0.00    -0.064 P 
HETATM   28  H8  UNL     1      30.514   3.492  40.577  1.00  0.00     0.068 HD
ENDBRANCH  26  27
ENDBRANCH  25  26
ENDBRANCH  23  25
ENDBRANCH  21  22
ENDBRANCH  17  19
ENDBRANCH   1  17
BRANCH  11  29
HETATM   29  P3  UNL     1      26.196   8.543  47.630  1.00  0.00    -0.106 P 
HETATM   30  H15 UNL     1      25.674   8.879  48.930  1.00  0.00     0.059 HD
HETATM   31  H16 UNL     1      26.378   9.659  46.747  1.00  0.00     0.059 HD
ENDBRANCH  11  29
TORSDOF 7
ENDMDL
MODEL 8
REMARK VINA RESULT:      -6.5      4.309      9.567
REMARK  7 active torsions:
REMARK  status: ('A' for Active; 'I' for Inactive)
REMARK    1  A    between atoms: C2_2  and  N1_10 
REMARK    2  A    between atoms: C3_3  and  C4_4 
REMARK    3  A    between atoms: C5_5  and  C6_7 
REMARK    4  A    between atoms: C6_7  and  P1_8 
REMARK    5  A    between atoms: P1_8  and  P2_9 
REMARK    6  A    between atoms: N1_10  and  C7_11 
REMARK    7  A    between atoms: C14_21  and  P3_22 
ROOT
HETATM    1  C7  UNL     1      25.572   6.164  49.332  1.00  0.00     0.160 A 
HETATM    2  N2  UNL     1      24.662   6.903  49.972  1.00  0.00    -0.222 NA
HETATM    3  C8  UNL     1      24.994   8.189  50.287  1.00  0.00     0.238 A 
HETATM    4  N3  UNL     1      26.198   8.688  49.962  1.00  0.00    -0.215 NA
HETATM    5  C9  UNL     1      27.094   7.925  49.320  1.00  0.00     0.202 A 
HETATM    6  C10 UNL     1      26.820   6.623  48.975  1.00  0.00     0.129 A 
HETATM    7  N4  UNL     1      27.570   5.632  48.315  1.00  0.00    -0.379 N 
HETATM    8  C11 UNL     1      29.017   5.527  48.273  1.00  0.00     0.161 C 
HETATM    9  C12 UNL     1      29.709   6.817  48.180  1.00  0.00    -0.006 A 
HETATM   10  C13 UNL     1      30.959   6.564  47.610  1.00  0.00     0.023 A 
HETATM   11  C14 UNL     1      31.895   7.535  47.363  1.00  0.00    -0.036 A 
HETATM   12  C15 UNL     1      31.588   8.841  47.696  1.00  0.00     0.014 A 
HETATM   13  C16 UNL     1      30.361   9.152  48.265  1.00  0.00     0.039 A 
HETATM   14  C17 UNL     1      29.459   8.133  48.490  1.00  0.00     0.086 A 
HETATM   15  O1  UNL     1      28.283   8.591  49.060  1.00  0.00    -0.289 OA
HETATM   16  H11 UNL     1      26.986   4.935  47.823  1.00  0.00     0.160 HD
ENDROOT
BRANCH   1  17
HETATM   17  N1  UNL     1      25.173   4.843  49.035  1.00  0.00    -0.343 N 
HETATM   18  H9  UNL     1      24.838   4.183  48.311  1.00  0.00     0.167 HD
BRANCH  17  19
HETATM   19  C2  UNL     1      25.172   3.846  50.082  1.00  0.00     0.004 C 
HETATM   20  C1  UNL     1      23.804   3.615  50.603  1.00  0.00     0.068 C 
HETATM   21  C3  UNL     1      26.241   3.183  50.559  1.00  0.00     0.007 C 
BRANCH  21  22
HETATM   22  C4  UNL     1      25.770   2.246  51.637  1.00  0.00     0.140 C 
HETATM   23  C5  UNL     1      26.109   0.938  51.865  1.00  0.00     0.096 C 
HETATM   24  F1  UNL     1      26.826  -0.230  51.541  1.00  0.00    -0.248 F 
BRANCH  23  25
HETATM   25  C6  UNL     1      25.391   0.441  53.032  1.00  0.00     0.082 C 
BRANCH  25  26
HETATM   26  P1  UNL     1      23.549   0.579  52.959  1.00  0.00    -0.050 P 
BRANCH  26  27
HETATM   27  P2  UNL     1      22.330  -0.634  53.961  1.00  0.00    -0.064 P 
HETATM   28  H8  UNL     1      20.941  -0.329  54.211  1.00  0.00     0.068 HD
ENDBRANCH  26  27
ENDBRANCH  25  26
ENDBRANCH  23  25
ENDBRANCH  21  22
ENDBRANCH  17  19
ENDBRANCH   1  17
BRANCH  11  29
HETATM   29  P3  UNL     1      33.515   7.193  46.624  1.00  0.00    -0.106 P 
HETATM   30  H15 UNL     1      33.655   5.841  46.149  1.00  0.00     0.059 HD
HETATM   31  H16 UNL     1      33.935   8.205  45.697  1.00  0.00     0.059 HD
ENDBRANCH  11  29
TORSDOF 7
ENDMDL
MODEL 9
REMARK VINA RESULT:      -6.5      3.536      5.028
REMARK  7 active torsions:
REMARK  status: ('A' for Active; 'I' for Inactive)
REMARK    1  A    between atoms: C2_2  and  N1_10 
REMARK    2  A    between atoms: C3_3  and  C4_4 
REMARK    3  A    between atoms: C5_5  and  C6_7 
REMARK    4  A    between atoms: C6_7  and  P1_8 
REMARK    5  A    between atoms: P1_8  and  P2_9 
REMARK    6  A    between atoms: N1_10  and  C7_11 
REMARK    7  A    between atoms: C14_21  and  P3_22 
ROOT
HETATM    1  C7  UNL     1      25.090   6.518  49.230  1.00  0.00     0.160 A 
HETATM    2  N2  UNL     1      24.134   7.441  49.360  1.00  0.00    -0.222 NA
HETATM    3  C8  UNL     1      23.195   7.253  50.332  1.00  0.00     0.238 A 
HETATM    4  N3  UNL     1      23.236   6.173  51.129  1.00  0.00    -0.215 NA
HETATM    5  C9  UNL     1      24.206   5.260  50.978  1.00  0.00     0.202 A 
HETATM    6  C10 UNL     1      25.181   5.392  50.018  1.00  0.00     0.129 A 
HETATM    7  N4  UNL     1      26.283   4.594  49.659  1.00  0.00    -0.379 N 
HETATM    8  C11 UNL     1      26.409   3.160  49.846  1.00  0.00     0.161 C 
HETATM    9  C12 UNL     1      25.824   2.664  51.096  1.00  0.00    -0.006 A 
HETATM   10  C13 UNL     1      26.472   1.464  51.397  1.00  0.00     0.023 A 
HETATM   11  C14 UNL     1      26.191   0.702  52.502  1.00  0.00    -0.036 A 
HETATM   12  C15 UNL     1      25.211   1.144  53.371  1.00  0.00     0.014 A 
HETATM   13  C16 UNL     1      24.533   2.330  53.123  1.00  0.00     0.039 A 
HETATM   14  C17 UNL     1      24.859   3.054  51.995  1.00  0.00     0.086 A 
HETATM   15  O1  UNL     1      24.104   4.209  51.878  1.00  0.00    -0.289 OA
HETATM   16  H11 UNL     1      27.054   5.130  49.227  1.00  0.00     0.160 HD
ENDROOT
BRANCH   1  17
HETATM   17  N1  UNL     1      26.030   6.764  48.207  1.00  0.00    -0.343 N 
HETATM   18  H9  UNL     1      26.270   6.647  47.205  1.00  0.00     0.167 HD
BRANCH  17  19
HETATM   19  C2  UNL     1      27.247   7.480  48.514  1.00  0.00     0.004 C 
HETATM   20  C1  UNL     1      28.409   6.897  47.801  1.00  0.00     0.068 C 
HETATM   21  C3  UNL     1      27.368   8.541  49.333  1.00  0.00     0.007 C 
BRANCH  21  22
HETATM   22  C4  UNL     1      28.814   8.957  49.351  1.00  0.00     0.140 C 
HETATM   23  C5  UNL     1      29.373  10.178  49.079  1.00  0.00     0.096 C 
HETATM   24  F1  UNL     1      29.269  11.533  48.713  1.00  0.00    -0.248 F 
BRANCH  23  25
HETATM   25  C6  UNL     1      30.821  10.098  49.227  1.00  0.00     0.082 C 
BRANCH  25  26
HETATM   26  P1  UNL     1      31.534   8.392  49.222  1.00  0.00    -0.050 P 
BRANCH  26  27
HETATM   27  P2  UNL     1      32.376   7.574  47.615  1.00  0.00    -0.064 P 
HETATM   28  H8  UNL     1      32.182   6.193  47.237  1.00  0.00     0.068 HD
ENDBRANCH  26  27
ENDBRANCH  25  26
ENDBRANCH  23  25
ENDBRANCH  21  22
ENDBRANCH  17  19
ENDBRANCH   1  17
BRANCH  11  29
HETATM   29  P3  UNL     1      27.039  -0.854  52.881  1.00  0.00    -0.106 P 
HETATM   30  H15 UNL     1      28.216  -0.685  53.694  1.00  0.00     0.059 HD
HETATM   31  H16 UNL     1      26.146  -1.889  53.321  1.00  0.00     0.059 HD
ENDBRANCH  11  29
TORSDOF 7
ENDMDL
