MODEL 1
REMARK VINA RESULT:      -8.4      0.000      0.000
REMARK  6 active torsions:
REMARK  status: ('A' for Active; 'I' for Inactive)
REMARK    1  A    between atoms: C4_4  and  N1_5 
REMARK    2  A    between atoms: N1_5  and  C5_6 
REMARK    3  A    between atoms: C9_11  and  C10_12 
REMARK    4  A    between atoms: C10_12  and  C11_13 
REMARK    5  A    between atoms: C11_13  and  C12_14 
REMARK    6  A    between atoms: C12_14  and  P1_15 
ROOT
HETATM    1  C5  UNL     1      24.194   0.467  52.709  1.00  0.00     0.728 A 
HETATM    2  N2  UNL     1      23.989  -0.233  53.838  1.00  0.00    -0.074 NA
HETATM    3  C6  UNL     1      22.770  -0.676  54.177  1.00  0.00     0.151 A 
HETATM    4  C7  UNL     1      21.670  -0.438  53.384  1.00  0.00     0.030 A 
HETATM    5  C8  UNL     1      20.420  -0.898  53.741  1.00  0.00     0.029 A 
HETATM    6  C9  UNL     1      19.296  -0.660  52.941  1.00  0.00     0.012 A 
HETATM    7  C13 UNL     1      19.569   0.059  51.805  1.00  0.00     0.255 A 
HETATM    8  O1  UNL     1      18.572   0.297  51.048  1.00  0.00    -0.267 OA
HETATM    9  N3  UNL     1      20.790   0.506  51.458  1.00  0.00    -0.302 N 
HETATM   10  C14 UNL     1      20.985   1.261  50.229  1.00  0.00     0.161 C 
HETATM   11  C15 UNL     1      21.866   0.277  52.225  1.00  0.00     0.163 A 
HETATM   12  N4  UNL     1      23.107   0.686  51.957  1.00  0.00    -0.044 NA
ENDROOT
BRANCH   1  13
HETATM   13  N1  UNL     1      25.494   0.928  52.378  1.00  0.00    -0.188 N 
HETATM   14  H5  UNL     1      25.525   1.735  51.683  1.00  0.00     0.184 HD
BRANCH  13  15
HETATM   15  C4  UNL     1      26.753   0.482  52.831  1.00  0.00     0.050 A 
HETATM   16  C3  UNL     1      27.120  -0.842  52.723  1.00  0.00     0.039 A 
HETATM   17  C2  UNL     1      28.332  -1.321  53.150  1.00  0.00    -0.021 A 
HETATM   18  C1  UNL     1      28.623  -2.779  52.984  1.00  0.00     0.051 C 
HETATM   19  C18 UNL     1      29.246  -0.484  53.711  1.00  0.00     0.122 A 
HETATM   20  C17 UNL     1      28.942   0.850  53.847  1.00  0.00     0.045 A 
HETATM   21  F1  UNL     1      30.418  -1.031  54.106  1.00  0.00    -0.206 F 
HETATM   22  C16 UNL     1      27.714   1.274  53.403  1.00  0.00     0.033 A 
ENDBRANCH  13  15
ENDBRANCH   1  13
BRANCH   6  23
HETATM   23  C10 UNL     1      17.965  -1.161  53.343  1.00  0.00     0.062 C 
BRANCH  23  24
HETATM   24  C11 UNL     1      18.152  -2.568  53.785  1.00  0.00     0.078 C 
BRANCH  24  25
HETATM   25  C12 UNL     1      17.204  -3.406  53.394  1.00  0.00    -0.123 C 
BRANCH  25  26
HETATM   26  P1  UNL     1      15.996  -4.545  53.355  1.00  0.00     0.106 P 
HETATM   27 CL1  UNL     1      15.542  -5.654  55.099  1.00  0.00    -0.075 Cl
ENDBRANCH  25  26
ENDBRANCH  24  25
ENDBRANCH  23  24
ENDBRANCH   6  23
TORSDOF 6
ENDMDL
MODEL 2
REMARK VINA RESULT:      -8.2      2.431      2.989
REMARK  6 active torsions:
REMARK  status: ('A' for Active; 'I' for Inactive)
REMARK    1  A    between atoms: C4_4  and  N1_5 
REMARK    2  A    between atoms: N1_5  and  C5_6 
REMARK    3  A    between atoms: C9_11  and  C10_12 
REMARK    4  A    between atoms: C10_12  and  C11_13 
REMARK    5  A    between atoms: C11_13  and  C12_14 
REMARK    6  A    between atoms: C12_14  and  P1_15 
ROOT
HETATM    1  C5  UNL     1      24.875   1.288  52.226  1.00  0.00     0.728 A 
HETATM    2  N2  UNL     1      24.038   1.802  51.309  1.00  0.00    -0.074 NA
HETATM    3  C6  UNL     1      22.733   1.495  51.301  1.00  0.00     0.151 A 
HETATM    4  C7  UNL     1      22.186   0.640  52.232  1.00  0.00     0.030 A 
HETATM    5  C8  UNL     1      20.843   0.330  52.215  1.00  0.00     0.029 A 
HETATM    6  C9  UNL     1      20.281  -0.539  53.157  1.00  0.00     0.012 A 
HETATM    7  C13 UNL     1      21.184  -1.030  54.065  1.00  0.00     0.255 A 
HETATM    8  O1  UNL     1      20.712  -1.826  54.941  1.00  0.00    -0.267 OA
HETATM    9  N3  UNL     1      22.495  -0.726  54.079  1.00  0.00    -0.302 N 
HETATM   10  C14 UNL     1      23.380  -1.295  55.084  1.00  0.00     0.161 C 
HETATM   11  C15 UNL     1      23.033   0.107  53.176  1.00  0.00     0.163 A 
HETATM   12  N4  UNL     1      24.318   0.458  53.119  1.00  0.00    -0.044 NA
ENDROOT
BRANCH   1  13
HETATM   13  N1  UNL     1      26.252   1.626  52.208  1.00  0.00    -0.188 N 
HETATM   14  H5  UNL     1      26.486   2.551  51.735  1.00  0.00     0.184 HD
BRANCH  13  15
HETATM   15  C4  UNL     1      27.362   0.922  52.722  1.00  0.00     0.050 A 
HETATM   16  C3  UNL     1      27.435  -0.452  52.638  1.00  0.00     0.039 A 
HETATM   17  C2  UNL     1      28.493  -1.177  53.124  1.00  0.00    -0.021 A 
HETATM   18  C1  UNL     1      28.465  -2.665  52.977  1.00  0.00     0.051 C 
HETATM   19  C18 UNL     1      29.541  -0.551  53.724  1.00  0.00     0.122 A 
HETATM   20  C17 UNL     1      29.530   0.819  53.840  1.00  0.00     0.045 A 
HETATM   21  F1  UNL     1      30.546  -1.335  54.176  1.00  0.00    -0.206 F 
HETATM   22  C16 UNL     1      28.446   1.494  53.336  1.00  0.00     0.033 A 
ENDBRANCH  13  15
ENDBRANCH   1  13
BRANCH   6  23
HETATM   23  C10 UNL     1      18.838  -0.859  53.120  1.00  0.00     0.062 C 
BRANCH  23  24
HETATM   24  C11 UNL     1      18.309  -0.307  51.845  1.00  0.00     0.078 C 
BRANCH  24  25
HETATM   25  C12 UNL     1      17.066   0.146  51.905  1.00  0.00    -0.123 C 
BRANCH  25  26
HETATM   26  P1  UNL     1      15.417   0.307  51.789  1.00  0.00     0.106 P 
HETATM   27 CL1  UNL     1      14.414   1.721  53.002  1.00  0.00    -0.075 Cl
ENDBRANCH  25  26
ENDBRANCH  24  25
ENDBRANCH  23  24
ENDBRANCH   6  23
TORSDOF 6
ENDMDL
MODEL 3
REMARK VINA RESULT:      -7.9      7.118      9.588
REMARK  6 active torsions:
REMARK  status: ('A' for Active; 'I' for Inactive)
REMARK    1  A    between atoms: C4_4  and  N1_5 
REMARK    2  A    between atoms: N1_5  and  C5_6 
REMARK    3  A    between atoms: C9_11  and  C10_12 
REMARK    4  A    between atoms: C10_12  and  C11_13 
REMARK    5  A    between atoms: C11_13  and  C12_14 
REMARK    6  A    between atoms: C12_14  and  P1_15 
ROOT
HETATM    1  C5  UNL     1      24.934   1.191  52.579  1.00  0.00     0.728 A 
HETATM    2  N2  UNL     1      26.111   0.874  52.012  1.00  0.00    -0.074 NA
HETATM    3  C6  UNL     1      26.716   1.698  51.145  1.00  0.00     0.151 A 
HETATM    4  C7  UNL     1      26.163   2.909  50.794  1.00  0.00     0.030 A 
HETATM    5  C8  UNL     1      26.793   3.750  49.901  1.00  0.00     0.029 A 
HETATM    6  C9  UNL     1      26.236   4.981  49.538  1.00  0.00     0.012 A 
HETATM    7  C13 UNL     1      25.036   5.247  50.147  1.00  0.00     0.255 A 
HETATM    8  O1  UNL     1      24.496   6.361  49.844  1.00  0.00    -0.267 OA
HETATM    9  N3  UNL     1      24.424   4.425  51.019  1.00  0.00    -0.302 N 
HETATM   10  C14 UNL     1      23.150   4.793  51.619  1.00  0.00     0.161 C 
HETATM   11  C15 UNL     1      24.958   3.245  51.366  1.00  0.00     0.163 A 
HETATM   12  N4  UNL     1      24.416   2.374  52.219  1.00  0.00    -0.044 NA
ENDROOT
BRANCH   1  13
HETATM   13  N1  UNL     1      24.313   0.298  53.489  1.00  0.00    -0.188 N 
HETATM   14  H5  UNL     1      24.955  -0.103  54.239  1.00  0.00     0.184 HD
BRANCH  13  15
HETATM   15  C4  UNL     1      22.974  -0.141  53.553  1.00  0.00     0.050 A 
HETATM   16  C3  UNL     1      22.049   0.256  52.611  1.00  0.00     0.039 A 
HETATM   17  C2  UNL     1      20.738  -0.144  52.634  1.00  0.00    -0.021 A 
HETATM   18  C1  UNL     1      19.821   0.350  51.559  1.00  0.00     0.051 C 
HETATM   19  C18 UNL     1      20.286  -0.974  53.613  1.00  0.00     0.122 A 
HETATM   20  C17 UNL     1      21.158  -1.407  54.583  1.00  0.00     0.045 A 
HETATM   21  F1  UNL     1      18.980  -1.324  53.566  1.00  0.00    -0.206 F 
HETATM   22  C16 UNL     1      22.460  -0.974  54.512  1.00  0.00     0.033 A 
ENDBRANCH  13  15
ENDBRANCH   1  13
BRANCH   6  23
HETATM   23  C10 UNL     1      26.928   5.867  48.577  1.00  0.00     0.062 C 
BRANCH  23  24
HETATM   24  C11 UNL     1      28.269   5.272  48.335  1.00  0.00     0.078 C 
BRANCH  24  25
HETATM   25  C12 UNL     1      29.253   6.149  48.208  1.00  0.00    -0.123 C 
BRANCH  25  26
HETATM   26  P1  UNL     1      30.295   7.424  48.425  1.00  0.00     0.106 P 
HETATM   27 CL1  UNL     1      29.599   9.204  49.332  1.00  0.00    -0.075 Cl
ENDBRANCH  25  26
ENDBRANCH  24  25
ENDBRANCH  23  24
ENDBRANCH   6  23
TORSDOF 6
ENDMDL
MODEL 4
REMARK VINA RESULT:      -7.8      7.613     10.155
REMARK  6 active torsions:
REMARK  status: ('A' for Active; 'I' for Inactive)
REMARK    1  A    between atoms: C4_4  and  N1_5 
REMARK    2  A    between atoms: N1_5  and  C5_6 
REMARK    3  A    between atoms: C9_11  and  C10_12 
REMARK    4  A    between atoms: C10_12  and  C11_13 
REMARK    5  A    between atoms: C11_13  and  C12_14 
REMARK    6  A    between atoms: C12_14  and  P1_15 
ROOT
HETATM    1  C5  UNL     1      24.205   3.457  51.203  1.00  0.00     0.728 A 
HETATM    2  N2  UNL     1      25.096   2.571  50.724  1.00  0.00    -0.074 NA
HETATM    3  C6  UNL     1      26.137   2.959  49.974  1.00  0.00     0.151 A 
HETATM    4  C7  UNL     1      26.345   4.283  49.658  1.00  0.00     0.030 A 
HETATM    5  C8  UNL     1      27.419   4.673  48.886  1.00  0.00     0.029 A 
HETATM    6  C9  UNL     1      27.637   6.016  48.560  1.00  0.00     0.012 A 
HETATM    7  C13 UNL     1      26.695   6.870  49.076  1.00  0.00     0.255 A 
HETATM    8  O1  UNL     1      26.858   8.104  48.802  1.00  0.00    -0.267 OA
HETATM    9  N3  UNL     1      25.649   6.488  49.830  1.00  0.00    -0.302 N 
HETATM   10  C14 UNL     1      24.699   7.467  50.337  1.00  0.00     0.161 C 
HETATM   11  C15 UNL     1      25.440   5.200  50.142  1.00  0.00     0.163 A 
HETATM   12  N4  UNL     1      24.430   4.738  50.880  1.00  0.00    -0.044 NA
ENDROOT
BRANCH   1  13
HETATM   13  N1  UNL     1      23.110   3.018  51.990  1.00  0.00    -0.188 N 
HETATM   14  H5  UNL     1      22.359   3.752  52.172  1.00  0.00     0.184 HD
BRANCH  13  15
HETATM   15  C4  UNL     1      22.863   1.755  52.568  1.00  0.00     0.050 A 
HETATM   16  C3  UNL     1      21.582   1.254  52.665  1.00  0.00     0.039 A 
HETATM   17  C2  UNL     1      21.295   0.033  53.219  1.00  0.00    -0.021 A 
HETATM   18  C1  UNL     1      19.866  -0.409  53.272  1.00  0.00     0.051 C 
HETATM   19  C18 UNL     1      22.291  -0.754  53.709  1.00  0.00     0.122 A 
HETATM   20  C17 UNL     1      23.591  -0.313  53.642  1.00  0.00     0.045 A 
HETATM   21  F1  UNL     1      21.927  -1.944  54.239  1.00  0.00    -0.206 F 
HETATM   22  C16 UNL     1      23.821   0.918  53.077  1.00  0.00     0.033 A 
ENDBRANCH  13  15
ENDBRANCH   1  13
BRANCH   6  23
HETATM   23  C10 UNL     1      28.794   6.411  47.729  1.00  0.00     0.062 C 
BRANCH  23  24
HETATM   24  C11 UNL     1      30.010   5.917  48.425  1.00  0.00     0.078 C 
BRANCH  24  25
HETATM   25  C12 UNL     1      30.920   5.366  47.636  1.00  0.00    -0.123 C 
BRANCH  25  26
HETATM   26  P1  UNL     1      32.200   4.490  47.042  1.00  0.00     0.106 P 
HETATM   27 CL1  UNL     1      31.943   2.441  46.578  1.00  0.00    -0.075 Cl
ENDBRANCH  25  26
ENDBRANCH  24  25
ENDBRANCH  23  24
ENDBRANCH   6  23
TORSDOF 6
ENDMDL
MODEL 5
REMARK VINA RESULT:      -7.7      2.486      2.733
REMARK  6 active torsions:
REMARK  status: ('A' for Active; 'I' for Inactive)
REMARK    1  A    between atoms: C4_4  and  N1_5 
REMARK    2  A    between atoms: N1_5  and  C5_6 
REMARK    3  A    between atoms: C9_11  and  C10_12 
REMARK    4  A    between atoms: C10_12  and  C11_13 
REMARK    5  A    between atoms: C11_13  and  C12_14 
REMARK    6  A    between atoms: C12_14  and  P1_15 
ROOT
HETATM    1  C5  UNL     1      23.576  -0.618  54.026  1.00  0.00     0.728 A 
HETATM    2  N2  UNL     1      22.636  -1.188  54.799  1.00  0.00    -0.074 NA
HETATM    3  C6  UNL     1      21.338  -1.158  54.463  1.00  0.00     0.151 A 
HETATM    4  C7  UNL     1      20.906  -0.543  53.310  1.00  0.00     0.030 A 
HETATM    5  C8  UNL     1      19.569  -0.516  52.973  1.00  0.00     0.029 A 
HETATM    6  C9  UNL     1      19.122   0.109  51.803  1.00  0.00     0.012 A 
HETATM    7  C13 UNL     1      20.127   0.672  51.058  1.00  0.00     0.255 A 
HETATM    8  O1  UNL     1      19.761   1.251  49.983  1.00  0.00    -0.267 OA
HETATM    9  N3  UNL     1      21.431   0.644  51.389  1.00  0.00    -0.302 N 
HETATM   10  C14 UNL     1      22.429   1.268  50.533  1.00  0.00     0.161 C 
HETATM   11  C15 UNL     1      21.858   0.046  52.510  1.00  0.00     0.163 A 
HETATM   12  N4  UNL     1      23.128  -0.025  52.911  1.00  0.00    -0.044 NA
ENDROOT
BRANCH   1  13
HETATM   13  N1  UNL     1      24.941  -0.662  54.409  1.00  0.00    -0.188 N 
HETATM   14  H5  UNL     1      25.222  -1.509  54.990  1.00  0.00     0.184 HD
BRANCH  13  15
HETATM   15  C4  UNL     1      25.985   0.248  54.136  1.00  0.00     0.050 A 
HETATM   16  C3  UNL     1      27.287  -0.183  53.999  1.00  0.00     0.039 A 
HETATM   17  C2  UNL     1      28.332   0.664  53.734  1.00  0.00    -0.021 A 
HETATM   18  C1  UNL     1      29.706   0.085  53.607  1.00  0.00     0.051 C 
HETATM   19  C18 UNL     1      28.119   2.000  53.591  1.00  0.00     0.122 A 
HETATM   20  C17 UNL     1      26.842   2.494  53.715  1.00  0.00     0.045 A 
HETATM   21  F1  UNL     1      29.201   2.769  53.330  1.00  0.00    -0.206 F 
HETATM   22  C16 UNL     1      25.834   1.601  53.981  1.00  0.00     0.033 A 
ENDBRANCH  13  15
ENDBRANCH   1  13
BRANCH   6  23
HETATM   23  C10 UNL     1      17.684   0.127  51.462  1.00  0.00     0.062 C 
BRANCH  23  24
HETATM   24  C11 UNL     1      17.007  -0.799  52.407  1.00  0.00     0.078 C 
BRANCH  24  25
HETATM   25  C12 UNL     1      15.811  -0.403  52.817  1.00  0.00    -0.123 C 
BRANCH  25  26
HETATM   26  P1  UNL     1      14.276   0.227  52.893  1.00  0.00     0.106 P 
HETATM   27 CL1  UNL     1      13.292   0.809  51.114  1.00  0.00    -0.075 Cl
ENDBRANCH  25  26
ENDBRANCH  24  25
ENDBRANCH  23  24
ENDBRANCH   6  23
TORSDOF 6
ENDMDL
MODEL 6
REMARK VINA RESULT:      -7.6      3.905      5.235
REMARK  6 active torsions:
REMARK  status: ('A' for Active; 'I' for Inactive)
REMARK    1  A    between atoms: C4_4  and  N1_5 
REMARK    2  A    between atoms: N1_5  and  C5_6 
REMARK    3  A    between atoms: C9_11  and  C10_12 
REMARK    4  A    between atoms: C10_12  and  C11_13 
REMARK    5  A    between atoms: C11_13  and  C12_14 
REMARK    6  A    between atoms: C12_14  and  P1_15 
ROOT
HETATM    1  C5  UNL     1      25.629   2.652  51.588  1.00  0.00     0.728 A 
HETATM    2  N2  UNL     1      25.903   3.476  50.562  1.00  0.00    -0.074 NA
HETATM    3  C6  UNL     1      25.030   3.664  49.562  1.00  0.00     0.151 A 
HETATM    4  C7  UNL     1      23.811   3.025  49.538  1.00  0.00     0.030 A 
HETATM    5  C8  UNL     1      22.920   3.224  48.505  1.00  0.00     0.029 A 
HETATM    6  C9  UNL     1      21.679   2.577  48.473  1.00  0.00     0.012 A 
HETATM    7  C13 UNL     1      21.459   1.751  49.546  1.00  0.00     0.255 A 
HETATM    8  O1  UNL     1      20.339   1.142  49.555  1.00  0.00    -0.267 OA
HETATM    9  N3  UNL     1      22.330   1.558  50.553  1.00  0.00    -0.302 N 
HETATM   10  C14 UNL     1      22.009   0.661  51.654  1.00  0.00     0.161 C 
HETATM   11  C15 UNL     1      23.518   2.178  50.583  1.00  0.00     0.163 A 
HETATM   12  N4  UNL     1      24.437   2.041  51.540  1.00  0.00    -0.044 NA
ENDROOT
BRANCH   1  13
HETATM   13  N1  UNL     1      26.573   2.468  52.631  1.00  0.00    -0.188 N 
HETATM   14  H5  UNL     1      26.664   3.283  53.310  1.00  0.00     0.184 HD
BRANCH  13  15
HETATM   15  C4  UNL     1      27.412   1.367  52.905  1.00  0.00     0.050 A 
HETATM   16  C3  UNL     1      27.002   0.077  52.644  1.00  0.00     0.039 A 
HETATM   17  C2  UNL     1      27.782  -1.023  52.895  1.00  0.00    -0.021 A 
HETATM   18  C1  UNL     1      27.233  -2.376  52.572  1.00  0.00     0.051 C 
HETATM   19  C18 UNL     1      29.027  -0.879  53.425  1.00  0.00     0.122 A 
HETATM   20  C17 UNL     1      29.496   0.381  53.708  1.00  0.00     0.045 A 
HETATM   21  F1  UNL     1      29.734  -2.011  53.643  1.00  0.00    -0.206 F 
HETATM   22  C16 UNL     1      28.672   1.446  53.437  1.00  0.00     0.033 A 
ENDBRANCH  13  15
ENDBRANCH   1  13
BRANCH   6  23
HETATM   23  C10 UNL     1      20.739   2.804  47.355  1.00  0.00     0.062 C 
BRANCH  23  24
HETATM   24  C11 UNL     1      20.299   4.221  47.447  1.00  0.00     0.078 C 
BRANCH  24  25
HETATM   25  C12 UNL     1      19.408   4.469  48.395  1.00  0.00    -0.123 C 
BRANCH  25  26
HETATM   26  P1  UNL     1      18.668   4.837  49.835  1.00  0.00     0.106 P 
HETATM   27 CL1  UNL     1      19.142   3.725  51.572  1.00  0.00    -0.075 Cl
ENDBRANCH  25  26
ENDBRANCH  24  25
ENDBRANCH  23  24
ENDBRANCH   6  23
TORSDOF 6
ENDMDL
MODEL 7
REMARK VINA RESULT:      -7.6      5.488      6.799
REMARK  6 active torsions:
REMARK  status: ('A' for Active; 'I' for Inactive)
REMARK    1  A    between atoms: C4_4  and  N1_5 
REMARK    2  A    between atoms: N1_5  and  C5_6 
REMARK    3  A    between atoms: C9_11  and  C10_12 
REMARK    4  A    between atoms: C10_12  and  C11_13 
REMARK    5  A    between atoms: C11_13  and  C12_14 
REMARK    6  A    between atoms: C12_14  and  P1_15 
ROOT
HETATM    1  C5  UNL     1      26.196   3.426  49.968  1.00  0.00     0.728 A 
HETATM    2  N2  UNL     1      24.918   3.585  49.583  1.00  0.00    -0.074 NA
HETATM    3  C6  UNL     1      23.917   2.929  50.188  1.00  0.00     0.151 A 
HETATM    4  C7  UNL     1      24.149   2.063  51.233  1.00  0.00     0.030 A 
HETATM    5  C8  UNL     1      23.113   1.393  51.849  1.00  0.00     0.029 A 
HETATM    6  C9  UNL     1      23.341   0.510  52.910  1.00  0.00     0.012 A 
HETATM    7  C13 UNL     1      24.664   0.390  53.255  1.00  0.00     0.255 A 
HETATM    8  O1  UNL     1      24.914  -0.405  54.219  1.00  0.00    -0.267 OA
HETATM    9  N3  UNL     1      25.673   1.046  52.653  1.00  0.00    -0.302 N 
HETATM   10  C14 UNL     1      27.048   0.856  53.090  1.00  0.00     0.161 C 
HETATM   11  C15 UNL     1      25.454   1.891  51.636  1.00  0.00     0.163 A 
HETATM   12  N4  UNL     1      26.395   2.576  50.985  1.00  0.00    -0.044 NA
ENDROOT
BRANCH   1  13
HETATM   13  N1  UNL     1      27.236   4.128  49.306  1.00  0.00    -0.188 N 
HETATM   14  H5  UNL     1      28.164   3.610  49.242  1.00  0.00     0.184 HD
BRANCH  13  15
HETATM   15  C4  UNL     1      27.228   5.411  48.719  1.00  0.00     0.050 A 
HETATM   16  C3  UNL     1      28.364   5.939  48.144  1.00  0.00     0.039 A 
HETATM   17  C2  UNL     1      28.403   7.180  47.563  1.00  0.00    -0.021 A 
HETATM   18  C1  UNL     1      29.693   7.651  46.971  1.00  0.00     0.051 C 
HETATM   19  C18 UNL     1      27.289   7.961  47.527  1.00  0.00     0.122 A 
HETATM   20  C17 UNL     1      26.122   7.492  48.082  1.00  0.00     0.045 A 
HETATM   21  F1  UNL     1      27.408   9.171  46.936  1.00  0.00    -0.206 F 
HETATM   22  C16 UNL     1      26.140   6.243  48.652  1.00  0.00     0.033 A 
ENDBRANCH  13  15
ENDBRANCH   1  13
BRANCH   6  23
HETATM   23  C10 UNL     1      22.216  -0.199  53.555  1.00  0.00     0.062 C 
BRANCH  23  24
HETATM   24  C11 UNL     1      20.980   0.550  53.204  1.00  0.00     0.078 C 
BRANCH  24  25
HETATM   25  C12 UNL     1      19.917  -0.205  52.971  1.00  0.00    -0.123 C 
BRANCH  25  26
HETATM   26  P1  UNL     1      18.367  -0.790  52.855  1.00  0.00     0.106 P 
HETATM   27 CL1  UNL     1      17.872  -2.636  53.762  1.00  0.00    -0.075 Cl
ENDBRANCH  25  26
ENDBRANCH  24  25
ENDBRANCH  23  24
ENDBRANCH   6  23
TORSDOF 6
ENDMDL
MODEL 8
REMARK VINA RESULT:      -7.6      8.295     10.015
REMARK  6 active torsions:
REMARK  status: ('A' for Active; 'I' for Inactive)
REMARK    1  A    between atoms: C4_4  and  N1_5 
REMARK    2  A    between atoms: N1_5  and  C5_6 
REMARK    3  A    between atoms: C9_11  and  C10_12 
REMARK    4  A    between atoms: C10_12  and  C11_13 
REMARK    5  A    between atoms: C11_13  and  C12_14 
REMARK    6  A    between atoms: C12_14  and  P1_15 
ROOT
HETATM    1  C5  UNL     1      25.909   3.482  50.592  1.00  0.00     0.728 A 
HETATM    2  N2  UNL     1      26.934   3.476  49.722  1.00  0.00    -0.074 NA
HETATM    3  C6  UNL     1      27.175   4.520  48.916  1.00  0.00     0.151 A 
HETATM    4  C7  UNL     1      26.388   5.649  48.941  1.00  0.00     0.030 A 
HETATM    5  C8  UNL     1      26.644   6.717  48.109  1.00  0.00     0.029 A 
HETATM    6  C9  UNL     1      25.847   7.867  48.128  1.00  0.00     0.012 A 
HETATM    7  C13 UNL     1      24.818   7.813  49.034  1.00  0.00     0.255 A 
HETATM    8  O1  UNL     1      24.068   8.842  49.083  1.00  0.00    -0.267 OA
HETATM    9  N3  UNL     1      24.570   6.769  49.846  1.00  0.00    -0.302 N 
HETATM   10  C14 UNL     1      23.454   6.801  50.780  1.00  0.00     0.161 C 
HETATM   11  C15 UNL     1      25.335   5.667  49.827  1.00  0.00     0.163 A 
HETATM   12  N4  UNL     1      25.157   4.591  50.595  1.00  0.00    -0.044 NA
ENDROOT
BRANCH   1  13
HETATM   13  N1  UNL     1      25.673   2.361  51.428  1.00  0.00    -0.188 N 
HETATM   14  H5  UNL     1      24.648   2.111  51.575  1.00  0.00     0.184 HD
BRANCH  13  15
HETATM   15  C4  UNL     1      26.592   1.524  52.097  1.00  0.00     0.050 A 
HETATM   16  C3  UNL     1      26.472   0.152  52.048  1.00  0.00     0.039 A 
HETATM   17  C2  UNL     1      27.340  -0.699  52.682  1.00  0.00    -0.021 A 
HETATM   18  C1  UNL     1      27.112  -2.173  52.560  1.00  0.00     0.051 C 
HETATM   19  C18 UNL     1      28.384  -0.209  53.404  1.00  0.00     0.122 A 
HETATM   20  C17 UNL     1      28.560   1.151  53.492  1.00  0.00     0.045 A 
HETATM   21  F1  UNL     1      29.196  -1.113  53.999  1.00  0.00    -0.206 F 
HETATM   22  C16 UNL     1      27.661   1.957  52.838  1.00  0.00     0.033 A 
ENDBRANCH  13  15
ENDBRANCH   1  13
BRANCH   6  23
HETATM   23  C10 UNL     1      26.138   9.001  47.225  1.00  0.00     0.062 C 
BRANCH  23  24
HETATM   24  C11 UNL     1      27.602   8.978  46.967  1.00  0.00     0.078 C 
BRANCH  24  25
HETATM   25  C12 UNL     1      28.298   9.898  47.618  1.00  0.00    -0.123 C 
BRANCH  25  26
HETATM   26  P1  UNL     1      29.516  10.764  48.342  1.00  0.00     0.106 P 
HETATM   27 CL1  UNL     1      30.799   9.811  49.729  1.00  0.00    -0.075 Cl
ENDBRANCH  25  26
ENDBRANCH  24  25
ENDBRANCH  23  24
ENDBRANCH   6  23
TORSDOF 6
ENDMDL
MODEL 9
REMARK VINA RESULT:      -7.4      9.083     11.338
REMARK  6 active torsions:
REMARK  status: ('A' for Active; 'I' for Inactive)
REMARK    1  A    between atoms: C4_4  and  N1_5 
REMARK    2  A    between atoms: N1_5  and  C5_6 
REMARK    3  A    between atoms: C9_11  and  C10_12 
REMARK    4  A    between atoms: C10_12  and  C11_13 
REMARK    5  A    between atoms: C11_13  and  C12_14 
REMARK    6  A    between atoms: C12_14  and  P1_15 
ROOT
HETATM    1  C5  UNL     1      25.766   4.379  49.995  1.00  0.00     0.728 A 
HETATM    2  N2  UNL     1      26.809   3.902  49.294  1.00  0.00    -0.074 NA
HETATM    3  C6  UNL     1      27.628   4.717  48.614  1.00  0.00     0.151 A 
HETATM    4  C7  UNL     1      27.442   6.081  48.602  1.00  0.00     0.030 A 
HETATM    5  C8  UNL     1      28.289   6.911  47.899  1.00  0.00     0.029 A 
HETATM    6  C9  UNL     1      28.106   8.298  47.881  1.00  0.00     0.012 A 
HETATM    7  C13 UNL     1      27.026   8.723  48.613  1.00  0.00     0.255 A 
HETATM    8  O1  UNL     1      26.824   9.982  48.622  1.00  0.00    -0.267 OA
HETATM    9  N3  UNL     1      26.200   7.911  49.298  1.00  0.00    -0.302 N 
HETATM   10  C14 UNL     1      25.078   8.453  50.050  1.00  0.00     0.161 C 
HETATM   11  C15 UNL     1      26.377   6.582  49.315  1.00  0.00     0.163 A 
HETATM   12  N4  UNL     1      25.606   5.709  49.965  1.00  0.00    -0.044 NA
ENDROOT
BRANCH   1  13
HETATM   13  N1  UNL     1      24.912   3.493  50.701  1.00  0.00    -0.188 N 
HETATM   14  H5  UNL     1      23.881   3.761  50.702  1.00  0.00     0.184 HD
BRANCH  13  15
HETATM   15  C4  UNL     1      25.221   2.309  51.403  1.00  0.00     0.050 A 
HETATM   16  C3  UNL     1      24.246   1.607  52.080  1.00  0.00     0.039 A 
HETATM   17  C2  UNL     1      24.500   0.453  52.775  1.00  0.00    -0.021 A 
HETATM   18  C1  UNL     1      23.364  -0.225  53.474  1.00  0.00     0.051 C 
HETATM   19  C18 UNL     1      25.759  -0.060  52.825  1.00  0.00     0.122 A 
HETATM   20  C17 UNL     1      26.777   0.592  52.170  1.00  0.00     0.045 A 
HETATM   21  F1  UNL     1      25.929  -1.202  53.530  1.00  0.00    -0.206 F 
HETATM   22  C16 UNL     1      26.466   1.743  51.490  1.00  0.00     0.033 A 
ENDBRANCH  13  15
ENDBRANCH   1  13
BRANCH   6  23
HETATM   23  C10 UNL     1      29.026   9.170  47.119  1.00  0.00     0.062 C 
BRANCH  23  24
HETATM   24  C11 UNL     1      30.274   9.278  47.919  1.00  0.00     0.078 C 
BRANCH  24  25
HETATM   25  C12 UNL     1      30.570  10.502  48.330  1.00  0.00    -0.123 C 
BRANCH  25  26
HETATM   26  P1  UNL     1      30.485  12.082  48.834  1.00  0.00     0.106 P 
HETATM   27 CL1  UNL     1      28.596  12.987  49.133  1.00  0.00    -0.075 Cl
ENDBRANCH  25  26
ENDBRANCH  24  25
ENDBRANCH  23  24
ENDBRANCH   6  23
TORSDOF 6
ENDMDL
