MODEL 1
REMARK VINA RESULT:      -6.7      0.000      0.000
REMARK  5 active torsions:
REMARK  status: ('A' for Active; 'I' for Inactive)
REMARK    1  A    between atoms: C9_10  and  O1_11 
REMARK    2  A    between atoms: O1_11  and  C10_12 
REMARK    3  A    between atoms: C10_12  and  C11_13 
REMARK    4  A    between atoms: C11_13  and  O2_14 
REMARK    5  A    between atoms: C15_19  and  N3_20 
ROOT
HETATM    1  C1  UNL     1      26.229  -0.267  53.475  1.00  0.00     0.018 C 
HETATM    2  C2  UNL     1      26.000   0.532  52.647  1.00  0.00    -0.075 C 
HETATM    3  C3  UNL     1      25.749   1.485  51.655  1.00  0.00     0.045 A 
HETATM    4  C4  UNL     1      26.629   2.183  50.917  1.00  0.00     0.023 A 
HETATM    5  C5  UNL     1      26.433   3.110  49.957  1.00  0.00     0.004 A 
HETATM    6  C6  UNL     1      25.125   3.411  49.664  1.00  0.00     0.032 A 
HETATM    7  C7  UNL     1      23.905   2.832  50.281  1.00  0.00     0.064 A 
HETATM    8  C8  UNL     1      24.476   1.835  51.309  1.00  0.00     0.076 A 
HETATM    9  N1  UNL     1      23.450   1.074  52.122  1.00  0.00    -0.352 N 
HETATM   10  C9  UNL     1      21.954   1.180  51.978  1.00  0.00     0.163 C 
HETATM   11  C13 UNL     1      21.639   0.996  50.474  1.00  0.00     0.082 C 
HETATM   12  C14 UNL     1      22.280   1.688  49.399  1.00  0.00     0.125 C 
HETATM   13  N2  UNL     1      22.246   2.721  50.428  1.00  0.00    -0.322 N 
HETATM   14  C15 UNL     1      22.213   3.715  51.417  1.00  0.00     0.130 C 
HETATM   15  C17 UNL     1      21.594   2.674  52.122  1.00  0.00     0.084 C 
HETATM   16  H5  UNL     1      23.957   0.432  52.831  1.00  0.00     0.163 HD
ENDROOT
BRANCH  10  17
HETATM   17  O1  UNL     1      21.353   0.376  52.803  1.00  0.00    -0.355 OA
BRANCH  17  18
HETATM   18  C10 UNL     1      21.985  -0.111  53.883  1.00  0.00     0.197 C 
BRANCH  18  19
HETATM   19  C11 UNL     1      21.186  -1.333  54.403  1.00  0.00     0.193 C 
BRANCH  19  20
HETATM   20  O2  UNL     1      22.041  -2.058  55.234  1.00  0.00    -0.394 OA
HETATM   21  C12 UNL     1      23.219  -1.386  55.474  1.00  0.00     0.201 C 
ENDBRANCH  19  20
ENDBRANCH  18  19
ENDBRANCH  17  18
ENDBRANCH  10  17
BRANCH  14  22
HETATM   22  N3  UNL     1      22.182   4.744  52.431  1.00  0.00    -0.254 NA
HETATM   23  C16 UNL     1      23.237   5.074  53.043  1.00  0.00     0.151 C 
ENDBRANCH  14  22
TORSDOF 5
ENDMDL
MODEL 2
REMARK VINA RESULT:      -6.7      2.771      5.641
REMARK  5 active torsions:
REMARK  status: ('A' for Active; 'I' for Inactive)
REMARK    1  A    between atoms: C9_10  and  O1_11 
REMARK    2  A    between atoms: O1_11  and  C10_12 
REMARK    3  A    between atoms: C10_12  and  C11_13 
REMARK    4  A    between atoms: C11_13  and  O2_14 
REMARK    5  A    between atoms: C15_19  and  N3_20 
ROOT
HETATM    1  C1  UNL     1      26.394  -0.700  53.324  1.00  0.00     0.018 C 
HETATM    2  C2  UNL     1      25.282  -0.345  53.221  1.00  0.00    -0.075 C 
HETATM    3  C3  UNL     1      23.948   0.062  53.114  1.00  0.00     0.045 A 
HETATM    4  C4  UNL     1      22.847  -0.521  53.618  1.00  0.00     0.023 A 
HETATM    5  C5  UNL     1      21.548  -0.168  53.537  1.00  0.00     0.004 A 
HETATM    6  C6  UNL     1      21.275   0.975  52.826  1.00  0.00     0.032 A 
HETATM    7  C7  UNL     1      22.245   1.866  52.139  1.00  0.00     0.064 A 
HETATM    8  C8  UNL     1      23.600   1.187  52.425  1.00  0.00     0.076 A 
HETATM    9  N1  UNL     1      24.813   1.874  51.833  1.00  0.00    -0.352 N 
HETATM   10  C9  UNL     1      24.804   3.159  51.046  1.00  0.00     0.163 C 
HETATM   11  C13 UNL     1      24.004   4.186  51.883  1.00  0.00     0.082 C 
HETATM   12  C14 UNL     1      22.715   3.963  52.463  1.00  0.00     0.125 C 
HETATM   13  N2  UNL     1      22.606   3.210  51.218  1.00  0.00    -0.322 N 
HETATM   14  C15 UNL     1      22.501   2.486  50.022  1.00  0.00     0.130 C 
HETATM   15  C17 UNL     1      23.811   2.965  49.881  1.00  0.00     0.084 C 
HETATM   16  H5  UNL     1      25.701   1.299  52.064  1.00  0.00     0.163 HD
ENDROOT
BRANCH  10  17
HETATM   17  O1  UNL     1      26.010   3.498  50.704  1.00  0.00    -0.355 OA
BRANCH  17  18
HETATM   18  C10 UNL     1      26.423   3.407  49.430  1.00  0.00     0.197 C 
BRANCH  18  19
HETATM   19  C11 UNL     1      26.907   4.808  48.975  1.00  0.00     0.193 C 
BRANCH  19  20
HETATM   20  O2  UNL     1      28.252   4.683  48.626  1.00  0.00    -0.394 OA
HETATM   21  C12 UNL     1      28.785   5.877  48.190  1.00  0.00     0.201 C 
ENDBRANCH  19  20
ENDBRANCH  18  19
ENDBRANCH  17  18
ENDBRANCH  10  17
BRANCH  14  22
HETATM   22  N3  UNL     1      22.385   1.738  48.791  1.00  0.00    -0.254 NA
HETATM   23  C16 UNL     1      22.249   2.337  47.686  1.00  0.00     0.151 C 
ENDBRANCH  14  22
TORSDOF 5
ENDMDL
MODEL 3
REMARK VINA RESULT:      -6.2      2.215      4.870
REMARK  5 active torsions:
REMARK  status: ('A' for Active; 'I' for Inactive)
REMARK    1  A    between atoms: C9_10  and  O1_11 
REMARK    2  A    between atoms: O1_11  and  C10_12 
REMARK    3  A    between atoms: C10_12  and  C11_13 
REMARK    4  A    between atoms: C11_13  and  O2_14 
REMARK    5  A    between atoms: C15_19  and  N3_20 
ROOT
HETATM    1  C1  UNL     1      22.391  -1.301  54.882  1.00  0.00     0.018 C 
HETATM    2  C2  UNL     1      21.573  -0.855  54.171  1.00  0.00    -0.075 C 
HETATM    3  C3  UNL     1      20.581  -0.338  53.331  1.00  0.00     0.045 A 
HETATM    4  C4  UNL     1      19.331  -0.788  53.130  1.00  0.00     0.023 A 
HETATM    5  C5  UNL     1      18.348  -0.325  52.331  1.00  0.00     0.004 A 
HETATM    6  C6  UNL     1      18.646   0.791  51.588  1.00  0.00     0.032 A 
HETATM    7  C7  UNL     1      19.925   1.546  51.564  1.00  0.00     0.064 A 
HETATM    8  C8  UNL     1      20.804   0.768  52.563  1.00  0.00     0.076 A 
HETATM    9  N1  UNL     1      22.207   1.305  52.755  1.00  0.00    -0.352 N 
HETATM   10  C9  UNL     1      22.780   2.533  52.098  1.00  0.00     0.163 C 
HETATM   11  C13 UNL     1      21.767   3.678  52.337  1.00  0.00     0.082 C 
HETATM   12  C14 UNL     1      20.360   3.609  52.092  1.00  0.00     0.125 C 
HETATM   13  N2  UNL     1      20.883   2.791  51.003  1.00  0.00    -0.322 N 
HETATM   14  C15 UNL     1      21.386   2.006  49.956  1.00  0.00     0.130 C 
HETATM   15  C17 UNL     1      22.594   2.356  50.576  1.00  0.00     0.084 C 
HETATM   16  H5  UNL     1      22.744   0.669  53.447  1.00  0.00     0.163 HD
ENDROOT
BRANCH  10  17
HETATM   17  O1  UNL     1      24.000   2.741  52.493  1.00  0.00    -0.355 OA
BRANCH  17  18
HETATM   18  C10 UNL     1      24.872   1.727  52.619  1.00  0.00     0.197 C 
BRANCH  18  19
HETATM   19  C11 UNL     1      25.902   2.108  53.713  1.00  0.00     0.193 C 
BRANCH  19  20
HETATM   20  O2  UNL     1      26.694   0.981  53.940  1.00  0.00    -0.394 OA
HETATM   21  C12 UNL     1      25.965  -0.063  54.469  1.00  0.00     0.201 C 
ENDBRANCH  19  20
ENDBRANCH  18  19
ENDBRANCH  17  18
ENDBRANCH  10  17
BRANCH  14  22
HETATM   22  N3  UNL     1      21.898   1.195  48.874  1.00  0.00    -0.254 NA
HETATM   23  C16 UNL     1      22.293   1.733  47.801  1.00  0.00     0.151 C 
ENDBRANCH  14  22
TORSDOF 5
ENDMDL
MODEL 4
REMARK VINA RESULT:      -6.1      7.750     10.574
REMARK  5 active torsions:
REMARK  status: ('A' for Active; 'I' for Inactive)
REMARK    1  A    between atoms: C9_10  and  O1_11 
REMARK    2  A    between atoms: O1_11  and  C10_12 
REMARK    3  A    between atoms: C10_12  and  C11_13 
REMARK    4  A    between atoms: C11_13  and  O2_14 
REMARK    5  A    between atoms: C15_19  and  N3_20 
ROOT
HETATM    1  C1  UNL     1      27.028   4.190  49.035  1.00  0.00     0.018 C 
HETATM    2  C2  UNL     1      27.219   5.300  48.710  1.00  0.00    -0.075 C 
HETATM    3  C3  UNL     1      27.424   6.628  48.323  1.00  0.00     0.045 A 
HETATM    4  C4  UNL     1      26.512   7.561  48.000  1.00  0.00     0.023 A 
HETATM    5  C5  UNL     1      26.663   8.845  47.619  1.00  0.00     0.004 A 
HETATM    6  C6  UNL     1      27.955   9.305  47.540  1.00  0.00     0.032 A 
HETATM    7  C7  UNL     1      29.202   8.550  47.826  1.00  0.00     0.064 A 
HETATM    8  C8  UNL     1      28.678   7.155  48.222  1.00  0.00     0.076 A 
HETATM    9  N1  UNL     1      29.740   6.134  48.573  1.00  0.00    -0.352 N 
HETATM   10  C9  UNL     1      31.226   6.380  48.607  1.00  0.00     0.163 C 
HETATM   11  C13 UNL     1      31.446   7.648  49.467  1.00  0.00     0.082 C 
HETATM   12  C14 UNL     1      30.752   8.889  49.312  1.00  0.00     0.125 C 
HETATM   13  N2  UNL     1      30.865   8.447  47.927  1.00  0.00    -0.322 N 
HETATM   14  C15 UNL     1      30.974   8.022  46.595  1.00  0.00     0.130 C 
HETATM   15  C17 UNL     1      31.618   6.949  47.227  1.00  0.00     0.084 C 
HETATM   16  H5  UNL     1      29.268   5.187  48.801  1.00  0.00     0.163 HD
ENDROOT
BRANCH  10  17
HETATM   17  O1  UNL     1      31.863   5.309  48.973  1.00  0.00    -0.355 OA
BRANCH  17  18
HETATM   18  C10 UNL     1      32.940   4.876  48.299  1.00  0.00     0.197 C 
BRANCH  18  19
HETATM   19  C11 UNL     1      32.608   3.490  47.691  1.00  0.00     0.193 C 
BRANCH  19  20
HETATM   20  O2  UNL     1      33.767   2.717  47.773  1.00  0.00    -0.394 OA
HETATM   21  C12 UNL     1      34.899   3.457  47.506  1.00  0.00     0.201 C 
ENDBRANCH  19  20
ENDBRANCH  18  19
ENDBRANCH  17  18
ENDBRANCH  10  17
BRANCH  14  22
HETATM   22  N3  UNL     1      31.083   7.591  45.220  1.00  0.00    -0.254 NA
HETATM   23  C16 UNL     1      32.091   6.934  44.831  1.00  0.00     0.151 C 
ENDBRANCH  14  22
TORSDOF 5
ENDMDL
MODEL 5
REMARK VINA RESULT:      -6.1      9.878     12.804
REMARK  5 active torsions:
REMARK  status: ('A' for Active; 'I' for Inactive)
REMARK    1  A    between atoms: C9_10  and  O1_11 
REMARK    2  A    between atoms: O1_11  and  C10_12 
REMARK    3  A    between atoms: C10_12  and  C11_13 
REMARK    4  A    between atoms: C11_13  and  O2_14 
REMARK    5  A    between atoms: C15_19  and  N3_20 
ROOT
HETATM    1  C1  UNL     1      33.103   6.426  43.058  1.00  0.00     0.018 C 
HETATM    2  C2  UNL     1      33.503   5.852  43.998  1.00  0.00    -0.075 C 
HETATM    3  C3  UNL     1      33.989   5.149  45.106  1.00  0.00     0.045 A 
HETATM    4  C4  UNL     1      34.522   3.917  45.153  1.00  0.00     0.023 A 
HETATM    5  C5  UNL     1      34.997   3.203  46.194  1.00  0.00     0.004 A 
HETATM    6  C6  UNL     1      34.939   3.812  47.423  1.00  0.00     0.032 A 
HETATM    7  C7  UNL     1      34.414   5.166  47.737  1.00  0.00     0.064 A 
HETATM    8  C8  UNL     1      33.964   5.690  46.358  1.00  0.00     0.076 A 
HETATM    9  N1  UNL     1      33.364   7.081  46.352  1.00  0.00    -0.352 N 
HETATM   10  C9  UNL     1      33.216   7.985  47.548  1.00  0.00     0.163 C 
HETATM   11  C13 UNL     1      34.602   8.039  48.236  1.00  0.00     0.082 C 
HETATM   12  C14 UNL     1      35.406   6.907  48.579  1.00  0.00     0.125 C 
HETATM   13  N2  UNL     1      34.062   6.390  48.815  1.00  0.00    -0.322 N 
HETATM   14  C15 UNL     1      32.771   5.893  49.042  1.00  0.00     0.130 C 
HETATM   15  C17 UNL     1      32.442   7.188  48.620  1.00  0.00     0.084 C 
HETATM   16  H5  UNL     1      33.053   7.334  45.346  1.00  0.00     0.163 HD
ENDROOT
BRANCH  10  17
HETATM   17  O1  UNL     1      32.690   9.121  47.205  1.00  0.00    -0.355 OA
BRANCH  17  18
HETATM   18  C10 UNL     1      31.381   9.363  47.384  1.00  0.00     0.197 C 
BRANCH  18  19
HETATM   19  C11 UNL     1      31.236  10.701  48.154  1.00  0.00     0.193 C 
BRANCH  19  20
HETATM   20  O2  UNL     1      30.737  10.392  49.420  1.00  0.00    -0.394 OA
HETATM   21  C12 UNL     1      29.697   9.489  49.359  1.00  0.00     0.201 C 
ENDBRANCH  19  20
ENDBRANCH  18  19
ENDBRANCH  17  18
ENDBRANCH  10  17
BRANCH  14  22
HETATM   22  N3  UNL     1      31.443   5.374  49.279  1.00  0.00    -0.254 NA
HETATM   23  C16 UNL     1      30.467   5.762  48.576  1.00  0.00     0.151 C 
ENDBRANCH  14  22
TORSDOF 5
ENDMDL
MODEL 6
REMARK VINA RESULT:      -6.1      3.294      5.712
REMARK  5 active torsions:
REMARK  status: ('A' for Active; 'I' for Inactive)
REMARK    1  A    between atoms: C9_10  and  O1_11 
REMARK    2  A    between atoms: O1_11  and  C10_12 
REMARK    3  A    between atoms: C10_12  and  C11_13 
REMARK    4  A    between atoms: C11_13  and  O2_14 
REMARK    5  A    between atoms: C15_19  and  N3_20 
ROOT
HETATM    1  C1  UNL     1      27.442   4.663  48.796  1.00  0.00     0.018 C 
HETATM    2  C2  UNL     1      26.853   3.940  49.506  1.00  0.00    -0.075 C 
HETATM    3  C3  UNL     1      26.170   3.068  50.360  1.00  0.00     0.045 A 
HETATM    4  C4  UNL     1      26.654   2.030  51.065  1.00  0.00     0.023 A 
HETATM    5  C5  UNL     1      26.035   1.165  51.894  1.00  0.00     0.004 A 
HETATM    6  C6  UNL     1      24.685   1.350  52.064  1.00  0.00     0.032 A 
HETATM    7  C7  UNL     1      23.830   2.394  51.443  1.00  0.00     0.064 A 
HETATM    8  C8  UNL     1      24.829   3.190  50.579  1.00  0.00     0.076 A 
HETATM    9  N1  UNL     1      24.240   4.346  49.798  1.00  0.00    -0.352 N 
HETATM   10  C9  UNL     1      22.803   4.794  49.831  1.00  0.00     0.163 C 
HETATM   11  C13 UNL     1      22.422   4.952  51.323  1.00  0.00     0.082 C 
HETATM   12  C14 UNL     1      22.651   3.980  52.347  1.00  0.00     0.125 C 
HETATM   13  N2  UNL     1      22.350   3.127  51.203  1.00  0.00    -0.322 N 
HETATM   14  C15 UNL     1      22.061   2.307  50.103  1.00  0.00     0.130 C 
HETATM   15  C17 UNL     1      21.940   3.561  49.487  1.00  0.00     0.084 C 
HETATM   16  H5  UNL     1      25.017   4.811  49.204  1.00  0.00     0.163 HD
ENDROOT
BRANCH  10  17
HETATM   17  O1  UNL     1      22.626   5.832  49.070  1.00  0.00    -0.355 OA
BRANCH  17  18
HETATM   18  C10 UNL     1      23.646   6.646  48.758  1.00  0.00     0.197 C 
BRANCH  18  19
HETATM   19  C11 UNL     1      23.414   8.007  49.464  1.00  0.00     0.193 C 
BRANCH  19  20
HETATM   20  O2  UNL     1      24.279   8.054  50.558  1.00  0.00    -0.394 OA
HETATM   21  C12 UNL     1      25.558   7.667  50.221  1.00  0.00     0.201 C 
ENDBRANCH  19  20
ENDBRANCH  18  19
ENDBRANCH  17  18
ENDBRANCH  10  17
BRANCH  14  22
HETATM   22  N3  UNL     1      21.762   1.456  48.974  1.00  0.00    -0.254 NA
HETATM   23  C16 UNL     1      22.139   1.777  47.811  1.00  0.00     0.151 C 
ENDBRANCH  14  22
TORSDOF 5
ENDMDL
MODEL 7
REMARK VINA RESULT:      -5.9      2.330      3.274
REMARK  5 active torsions:
REMARK  status: ('A' for Active; 'I' for Inactive)
REMARK    1  A    between atoms: C9_10  and  O1_11 
REMARK    2  A    between atoms: O1_11  and  C10_12 
REMARK    3  A    between atoms: C10_12  and  C11_13 
REMARK    4  A    between atoms: C11_13  and  O2_14 
REMARK    5  A    between atoms: C15_19  and  N3_20 
ROOT
HETATM    1  C1  UNL     1      21.566  -1.277  54.573  1.00  0.00     0.018 C 
HETATM    2  C2  UNL     1      22.182  -0.591  53.849  1.00  0.00    -0.075 C 
HETATM    3  C3  UNL     1      22.938   0.220  52.996  1.00  0.00     0.045 A 
HETATM    4  C4  UNL     1      24.259   0.465  53.019  1.00  0.00     0.023 A 
HETATM    5  C5  UNL     1      25.025   1.239  52.223  1.00  0.00     0.004 A 
HETATM    6  C6  UNL     1      24.372   1.898  51.210  1.00  0.00     0.032 A 
HETATM    7  C7  UNL     1      22.921   1.856  50.892  1.00  0.00     0.064 A 
HETATM    8  C8  UNL     1      22.359   0.906  51.968  1.00  0.00     0.076 A 
HETATM    9  N1  UNL     1      20.865   0.662  51.908  1.00  0.00    -0.352 N 
HETATM   10  C9  UNL     1      19.918   1.226  50.881  1.00  0.00     0.163 C 
HETATM   11  C13 UNL     1      20.533   0.916  49.495  1.00  0.00     0.082 C 
HETATM   12  C14 UNL     1      21.884   1.180  49.106  1.00  0.00     0.125 C 
HETATM   13  N2  UNL     1      21.606   2.318  49.974  1.00  0.00    -0.322 N 
HETATM   14  C15 UNL     1      21.339   3.413  50.809  1.00  0.00     0.130 C 
HETATM   15  C17 UNL     1      20.103   2.758  50.894  1.00  0.00     0.084 C 
HETATM   16  H5  UNL     1      20.574   0.012  52.724  1.00  0.00     0.163 HD
ENDROOT
BRANCH  10  17
HETATM   17  O1  UNL     1      18.708   0.805  51.090  1.00  0.00    -0.355 OA
BRANCH  17  18
HETATM   18  C10 UNL     1      18.412   0.037  52.151  1.00  0.00     0.197 C 
BRANCH  18  19
HETATM   19  C11 UNL     1      16.902  -0.308  52.095  1.00  0.00     0.193 C 
BRANCH  19  20
HETATM   20  O2  UNL     1      16.749  -1.573  52.665  1.00  0.00    -0.394 OA
HETATM   21  C12 UNL     1      17.845  -1.935  53.417  1.00  0.00     0.201 C 
ENDBRANCH  19  20
ENDBRANCH  18  19
ENDBRANCH  17  18
ENDBRANCH  10  17
BRANCH  14  22
HETATM   22  N3  UNL     1      21.071   4.544  51.667  1.00  0.00    -0.254 NA
HETATM   23  C16 UNL     1      21.711   5.625  51.524  1.00  0.00     0.151 C 
ENDBRANCH  14  22
TORSDOF 5
ENDMDL
MODEL 8
REMARK VINA RESULT:      -5.9     10.538     13.661
REMARK  5 active torsions:
REMARK  status: ('A' for Active; 'I' for Inactive)
REMARK    1  A    between atoms: C9_10  and  O1_11 
REMARK    2  A    between atoms: O1_11  and  C10_12 
REMARK    3  A    between atoms: C10_12  and  C11_13 
REMARK    4  A    between atoms: C11_13  and  O2_14 
REMARK    5  A    between atoms: C15_19  and  N3_20 
ROOT
HETATM    1  C1  UNL     1      33.327   6.294  43.069  1.00  0.00     0.018 C 
HETATM    2  C2  UNL     1      33.675   5.731  44.037  1.00  0.00    -0.075 C 
HETATM    3  C3  UNL     1      34.097   5.040  45.178  1.00  0.00     0.045 A 
HETATM    4  C4  UNL     1      34.564   3.784  45.276  1.00  0.00     0.023 A 
HETATM    5  C5  UNL     1      34.977   3.081  46.350  1.00  0.00     0.004 A 
HETATM    6  C6  UNL     1      34.920   3.731  47.558  1.00  0.00     0.032 A 
HETATM    7  C7  UNL     1      34.459   5.119  47.817  1.00  0.00     0.064 A 
HETATM    8  C8  UNL     1      34.069   5.621  46.412  1.00  0.00     0.076 A 
HETATM    9  N1  UNL     1      33.542   7.039  46.348  1.00  0.00    -0.352 N 
HETATM   10  C9  UNL     1      33.412   7.988  47.511  1.00  0.00     0.163 C 
HETATM   11  C13 UNL     1      34.782   7.994  48.233  1.00  0.00     0.082 C 
HETATM   12  C14 UNL     1      35.518   6.834  48.631  1.00  0.00     0.125 C 
HETATM   13  N2  UNL     1      34.145   6.393  48.848  1.00  0.00    -0.322 N 
HETATM   14  C15 UNL     1      32.824   5.969  49.057  1.00  0.00     0.130 C 
HETATM   15  C17 UNL     1      32.573   7.266  48.587  1.00  0.00     0.084 C 
HETATM   16  H5  UNL     1      33.269   7.276  45.327  1.00  0.00     0.163 HD
ENDROOT
BRANCH  10  17
HETATM   17  O1  UNL     1      32.954   9.138  47.120  1.00  0.00    -0.355 OA
BRANCH  17  18
HETATM   18  C10 UNL     1      32.541   9.328  45.856  1.00  0.00     0.197 C 
BRANCH  18  19
HETATM   19  C11 UNL     1      33.562  10.255  45.147  1.00  0.00     0.193 C 
BRANCH  19  20
HETATM   20  O2  UNL     1      34.362   9.443  44.342  1.00  0.00    -0.394 OA
HETATM   21  C12 UNL     1      35.701   9.584  44.636  1.00  0.00     0.201 C 
ENDBRANCH  19  20
ENDBRANCH  18  19
ENDBRANCH  17  18
ENDBRANCH  10  17
BRANCH  14  22
HETATM   22  N3  UNL     1      31.466   5.526  49.275  1.00  0.00    -0.254 NA
HETATM   23  C16 UNL     1      30.571   5.750  48.412  1.00  0.00     0.151 C 
ENDBRANCH  14  22
TORSDOF 5
ENDMDL
MODEL 9
REMARK VINA RESULT:      -5.9      2.312      3.976
REMARK  5 active torsions:
REMARK  status: ('A' for Active; 'I' for Inactive)
REMARK    1  A    between atoms: C9_10  and  O1_11 
REMARK    2  A    between atoms: O1_11  and  C10_12 
REMARK    3  A    between atoms: C10_12  and  C11_13 
REMARK    4  A    between atoms: C11_13  and  O2_14 
REMARK    5  A    between atoms: C15_19  and  N3_20 
ROOT
HETATM    1  C1  UNL     1      21.730  -1.051  54.917  1.00  0.00     0.018 C 
HETATM    2  C2  UNL     1      22.469  -0.518  54.180  1.00  0.00    -0.075 C 
HETATM    3  C3  UNL     1      23.368   0.104  53.307  1.00  0.00     0.045 A 
HETATM    4  C4  UNL     1      24.694  -0.083  53.191  1.00  0.00     0.023 A 
HETATM    5  C5  UNL     1      25.595   0.495  52.371  1.00  0.00     0.004 A 
HETATM    6  C6  UNL     1      25.105   1.435  51.498  1.00  0.00     0.032 A 
HETATM    7  C7  UNL     1      23.697   1.886  51.354  1.00  0.00     0.064 A 
HETATM    8  C8  UNL     1      22.954   1.047  52.413  1.00  0.00     0.076 A 
HETATM    9  N1  UNL     1      21.464   1.294  52.514  1.00  0.00    -0.352 N 
HETATM   10  C9  UNL     1      20.664   2.238  51.654  1.00  0.00     0.163 C 
HETATM   11  C13 UNL     1      21.019   1.908  50.184  1.00  0.00     0.082 C 
HETATM   12  C14 UNL     1      22.342   1.774  49.658  1.00  0.00     0.125 C 
HETATM   13  N2  UNL     1      22.528   2.838  50.638  1.00  0.00    -0.322 N 
HETATM   14  C15 UNL     1      22.705   3.861  51.581  1.00  0.00     0.130 C 
HETATM   15  C17 UNL     1      21.336   3.623  51.763  1.00  0.00     0.084 C 
HETATM   16  H5  UNL     1      21.050   0.682  53.305  1.00  0.00     0.163 HD
ENDROOT
BRANCH  10  17
HETATM   17  O1  UNL     1      19.406   2.199  51.973  1.00  0.00    -0.355 OA
BRANCH  17  18
HETATM   18  C10 UNL     1      18.448   2.274  51.035  1.00  0.00     0.197 C 
BRANCH  18  19
HETATM   19  C11 UNL     1      17.893   3.721  51.024  1.00  0.00     0.193 C 
BRANCH  19  20
HETATM   20  O2  UNL     1      17.200   3.904  52.222  1.00  0.00    -0.394 OA
HETATM   21  C12 UNL     1      15.858   4.135  52.011  1.00  0.00     0.201 C 
ENDBRANCH  19  20
ENDBRANCH  18  19
ENDBRANCH  17  18
ENDBRANCH  10  17
BRANCH  14  22
HETATM   22  N3  UNL     1      22.896   4.916  52.550  1.00  0.00    -0.254 NA
HETATM   23  C16 UNL     1      23.773   4.806  53.454  1.00  0.00     0.151 C 
ENDBRANCH  14  22
TORSDOF 5
ENDMDL
