MODEL 1
REMARK VINA RESULT:      -6.9      0.000      0.000
REMARK  6 active torsions:
REMARK  status: ('A' for Active; 'I' for Inactive)
REMARK    1  A    between atoms: C1_2  and  N1_3 
REMARK    2  A    between atoms: C1_2  and  N3_12 
REMARK    3  A    between atoms: N1_3  and  C2_4 
REMARK    4  A    between atoms: C2_4  and  C3_5 
REMARK    5  A    between atoms: C3_5  and  N2_6 
REMARK    6  A    between atoms: N3_12  and  C9_13 
ROOT
HETATM    1  S1  UNL     1      23.413   4.635  52.696  1.00  0.00    -0.041 SA
HETATM    2  C1  UNL     1      24.027   3.419  51.794  1.00  0.00     0.168 C 
ENDROOT
BRANCH   2   3
HETATM    3  N1  UNL     1      25.438   3.521  51.679  1.00  0.00    -0.366 N 
HETATM    4  H1  UNL     1      25.851   4.371  52.119  1.00  0.00     0.161 HD
BRANCH   3   5
HETATM    5  C2  UNL     1      26.364   2.636  51.054  1.00  0.00     0.152 C 
BRANCH   5   6
HETATM    6  C3  UNL     1      27.053   1.658  51.925  1.00  0.00     0.292 C 
BRANCH   6   7
HETATM    7  N2  UNL     1      27.302   2.099  53.258  1.00  0.00     0.090 N 
HETATM    8  C4  UNL     1      26.759   1.142  54.199  1.00  0.00     0.272 C 
HETATM    9  C5  UNL     1      27.502  -0.181  54.119  1.00  0.00     0.030 C 
HETATM   10  C6  UNL     1      28.980   0.004  53.898  1.00  0.00     0.003 C 
HETATM   11  C7  UNL     1      29.370   1.382  54.367  1.00  0.00     0.030 C 
HETATM   12  C8  UNL     1      28.641   2.441  53.588  1.00  0.00     0.272 C 
ENDBRANCH   6   7
ENDBRANCH   5   6
ENDBRANCH   3   5
ENDBRANCH   2   3
BRANCH   2  13
HETATM   13  N3  UNL     1      23.243   2.367  51.192  1.00  0.00    -0.353 N 
HETATM   14  H16 UNL     1      23.200   2.415  50.153  1.00  0.00     0.163 HD
BRANCH  13  15
HETATM   15  C9  UNL     1      22.670   1.455  52.128  1.00  0.00     0.171 C 
HETATM   16  C10 UNL     1      23.695   0.465  52.549  1.00  0.00     0.005 C 
HETATM   17  C11 UNL     1      23.550  -0.480  53.468  1.00  0.00    -0.002 C 
HETATM   18  C12 UNL     1      22.518  -0.978  54.395  1.00  0.00    -0.003 C 
HETATM   19  C13 UNL     1      21.221  -0.714  54.492  1.00  0.00    -0.005 C 
HETATM   20  C14 UNL     1      20.204   0.147  53.784  1.00  0.00     0.177 C 
HETATM   21  N4  UNL     1      20.520   0.231  52.370  1.00  0.00    -0.276 NA
HETATM   22  C15 UNL     1      21.470   0.731  51.659  1.00  0.00     0.124 C 
HETATM   23 CL1  UNL     1      21.324   0.516  49.930  1.00  0.00    -0.065 Cl
ENDBRANCH  13  15
ENDBRANCH   2  13
TORSDOF 6
ENDMDL
MODEL 2
REMARK VINA RESULT:      -6.4      1.212      1.794
REMARK  6 active torsions:
REMARK  status: ('A' for Active; 'I' for Inactive)
REMARK    1  A    between atoms: C1_2  and  N1_3 
REMARK    2  A    between atoms: C1_2  and  N3_12 
REMARK    3  A    between atoms: N1_3  and  C2_4 
REMARK    4  A    between atoms: C2_4  and  C3_5 
REMARK    5  A    between atoms: C3_5  and  N2_6 
REMARK    6  A    between atoms: N3_12  and  C9_13 
ROOT
HETATM    1  S1  UNL     1      23.389   4.663  52.255  1.00  0.00    -0.041 SA
HETATM    2  C1  UNL     1      24.004   3.641  51.139  1.00  0.00     0.168 C 
ENDROOT
BRANCH   2   3
HETATM    3  N1  UNL     1      25.404   3.818  50.991  1.00  0.00    -0.366 N 
HETATM    4  H1  UNL     1      25.697   4.788  50.743  1.00  0.00     0.161 HD
BRANCH   3   5
HETATM    5  C2  UNL     1      26.459   2.871  51.132  1.00  0.00     0.152 C 
BRANCH   5   6
HETATM    6  C3  UNL     1      26.522   2.117  52.403  1.00  0.00     0.292 C 
BRANCH   6   7
HETATM    7  N2  UNL     1      27.321   0.936  52.373  1.00  0.00     0.090 N 
HETATM    8  C4  UNL     1      27.997   0.770  53.642  1.00  0.00     0.272 C 
HETATM    9  C5  UNL     1      27.001   0.496  54.756  1.00  0.00     0.030 C 
HETATM   10  C6  UNL     1      25.869  -0.390  54.309  1.00  0.00     0.003 C 
HETATM   11  C7  UNL     1      26.320  -1.180  53.107  1.00  0.00     0.030 C 
HETATM   12  C8  UNL     1      26.682  -0.267  51.970  1.00  0.00     0.272 C 
ENDBRANCH   6   7
ENDBRANCH   5   6
ENDBRANCH   3   5
ENDBRANCH   2   3
BRANCH   2  13
HETATM   13  N3  UNL     1      23.231   2.673  50.398  1.00  0.00    -0.353 N 
HETATM   14  H16 UNL     1      23.416   2.681  49.374  1.00  0.00     0.163 HD
BRANCH  13  15
HETATM   15  C9  UNL     1      22.356   1.883  51.202  1.00  0.00     0.171 C 
HETATM   16  C10 UNL     1      23.148   0.887  51.968  1.00  0.00     0.005 C 
HETATM   17  C11 UNL     1      22.685   0.041  52.879  1.00  0.00    -0.002 C 
HETATM   18  C12 UNL     1      21.403  -0.315  53.513  1.00  0.00    -0.003 C 
HETATM   19  C13 UNL     1      20.154   0.022  53.222  1.00  0.00    -0.005 C 
HETATM   20  C14 UNL     1      19.438   0.864  52.194  1.00  0.00     0.177 C 
HETATM   21  N4  UNL     1      20.136   0.799  50.923  1.00  0.00    -0.276 NA
HETATM   22  C15 UNL     1      21.281   1.180  50.472  1.00  0.00     0.124 C 
HETATM   23 CL1  UNL     1      21.601   0.811  48.793  1.00  0.00    -0.065 Cl
ENDBRANCH  13  15
ENDBRANCH   2  13
TORSDOF 6
ENDMDL
MODEL 3
REMARK VINA RESULT:      -6.3      7.081      8.921
REMARK  6 active torsions:
REMARK  status: ('A' for Active; 'I' for Inactive)
REMARK    1  A    between atoms: C1_2  and  N1_3 
REMARK    2  A    between atoms: C1_2  and  N3_12 
REMARK    3  A    between atoms: N1_3  and  C2_4 
REMARK    4  A    between atoms: C2_4  and  C3_5 
REMARK    5  A    between atoms: C3_5  and  N2_6 
REMARK    6  A    between atoms: N3_12  and  C9_13 
ROOT
HETATM    1  S1  UNL     1      30.493   9.661  49.363  1.00  0.00    -0.041 SA
HETATM    2  C1  UNL     1      30.620   8.109  48.871  1.00  0.00     0.168 C 
ENDROOT
BRANCH   2   3
HETATM    3  N1  UNL     1      31.687   7.442  49.529  1.00  0.00    -0.366 N 
HETATM    4  H1  UNL     1      32.335   8.069  50.053  1.00  0.00     0.161 HD
BRANCH   3   5
HETATM    5  C2  UNL     1      31.998   6.053  49.576  1.00  0.00     0.152 C 
BRANCH   5   6
HETATM    6  C3  UNL     1      33.220   5.612  48.868  1.00  0.00     0.292 C 
BRANCH   6   7
HETATM    7  N2  UNL     1      33.057   5.349  47.476  1.00  0.00     0.090 N 
HETATM    8  C4  UNL     1      34.281   4.797  46.935  1.00  0.00     0.272 C 
HETATM    9  C5  UNL     1      34.565   3.426  47.523  1.00  0.00     0.030 C 
HETATM   10  C6  UNL     1      33.313   2.612  47.712  1.00  0.00     0.003 C 
HETATM   11  C7  UNL     1      32.249   3.139  46.783  1.00  0.00     0.030 C 
HETATM   12  C8  UNL     1      31.930   4.574  47.091  1.00  0.00     0.272 C 
ENDBRANCH   6   7
ENDBRANCH   5   6
ENDBRANCH   3   5
ENDBRANCH   2   3
BRANCH   2  13
HETATM   13  N3  UNL     1      29.758   7.483  47.897  1.00  0.00    -0.353 N 
HETATM   14  H16 UNL     1      30.140   7.488  46.929  1.00  0.00     0.163 HD
BRANCH  13  15
HETATM   15  C9  UNL     1      28.539   6.973  48.436  1.00  0.00     0.171 C 
HETATM   16  C10 UNL     1      28.489   5.500  48.245  1.00  0.00     0.005 C 
HETATM   17  C11 UNL     1      27.550   4.677  48.692  1.00  0.00    -0.002 C 
HETATM   18  C12 UNL     1      26.297   4.738  49.465  1.00  0.00    -0.003 C 
HETATM   19  C13 UNL     1      25.553   5.764  49.855  1.00  0.00    -0.005 C 
HETATM   20  C14 UNL     1      25.579   7.268  49.735  1.00  0.00     0.177 C 
HETATM   21  N4  UNL     1      26.149   7.656  48.458  1.00  0.00    -0.276 NA
HETATM   22  C15 UNL     1      27.302   7.568  47.890  1.00  0.00     0.124 C 
HETATM   23 CL1  UNL     1      27.409   8.226  46.274  1.00  0.00    -0.065 Cl
ENDBRANCH  13  15
ENDBRANCH   2  13
TORSDOF 6
ENDMDL
MODEL 4
REMARK VINA RESULT:      -6.3      3.187      6.460
REMARK  6 active torsions:
REMARK  status: ('A' for Active; 'I' for Inactive)
REMARK    1  A    between atoms: C1_2  and  N1_3 
REMARK    2  A    between atoms: C1_2  and  N3_12 
REMARK    3  A    between atoms: N1_3  and  C2_4 
REMARK    4  A    between atoms: C2_4  and  C3_5 
REMARK    5  A    between atoms: C3_5  and  N2_6 
REMARK    6  A    between atoms: N3_12  and  C9_13 
ROOT
HETATM    1  S1  UNL     1      26.579   3.680  49.439  1.00  0.00    -0.041 SA
HETATM    2  C1  UNL     1      25.572   3.278  50.660  1.00  0.00     0.168 C 
ENDROOT
BRANCH   2   3
HETATM    3  N1  UNL     1      24.857   4.409  51.135  1.00  0.00    -0.366 N 
HETATM    4  H1  UNL     1      25.450   5.232  51.370  1.00  0.00     0.161 HD
BRANCH   3   5
HETATM    5  C2  UNL     1      23.456   4.578  51.334  1.00  0.00     0.152 C 
BRANCH   5   6
HETATM    6  C3  UNL     1      22.564   3.554  50.747  1.00  0.00     0.292 C 
BRANCH   6   7
HETATM    7  N2  UNL     1      21.789   3.987  49.631  1.00  0.00     0.090 N 
HETATM    8  C4  UNL     1      22.540   3.795  48.409  1.00  0.00     0.272 C 
HETATM    9  C5  UNL     1      22.761   2.317  48.135  1.00  0.00     0.030 C 
HETATM   10  C6  UNL     1      21.565   1.480  48.502  1.00  0.00     0.003 C 
HETATM   11  C7  UNL     1      20.341   2.361  48.502  1.00  0.00     0.030 C 
HETATM   12  C8  UNL     1      20.474   3.464  49.514  1.00  0.00     0.272 C 
ENDBRANCH   6   7
ENDBRANCH   5   6
ENDBRANCH   3   5
ENDBRANCH   2   3
BRANCH   2  13
HETATM   13  N3  UNL     1      25.417   1.945  51.191  1.00  0.00    -0.353 N 
HETATM   14  H16 UNL     1      24.522   1.485  50.923  1.00  0.00     0.163 HD
BRANCH  13  15
HETATM   15  C9  UNL     1      26.515   1.499  51.986  1.00  0.00     0.171 C 
HETATM   16  C10 UNL     1      26.476   0.018  52.102  1.00  0.00     0.005 C 
HETATM   17  C11 UNL     1      27.379  -0.752  52.693  1.00  0.00    -0.002 C 
HETATM   18  C12 UNL     1      28.658  -0.611  53.412  1.00  0.00    -0.003 C 
HETATM   19  C13 UNL     1      29.288   0.456  53.886  1.00  0.00    -0.005 C 
HETATM   20  C14 UNL     1      29.065   1.948  53.943  1.00  0.00     0.177 C 
HETATM   21  N4  UNL     1      27.649   2.235  54.072  1.00  0.00    -0.276 NA
HETATM   22  C15 UNL     1      26.599   2.083  53.340  1.00  0.00     0.124 C 
HETATM   23 CL1  UNL     1      25.094   2.627  54.043  1.00  0.00    -0.065 Cl
ENDBRANCH  13  15
ENDBRANCH   2  13
TORSDOF 6
ENDMDL
MODEL 5
REMARK VINA RESULT:      -6.3      2.749      6.372
REMARK  6 active torsions:
REMARK  status: ('A' for Active; 'I' for Inactive)
REMARK    1  A    between atoms: C1_2  and  N1_3 
REMARK    2  A    between atoms: C1_2  and  N3_12 
REMARK    3  A    between atoms: N1_3  and  C2_4 
REMARK    4  A    between atoms: C2_4  and  C3_5 
REMARK    5  A    between atoms: C3_5  and  N2_6 
REMARK    6  A    between atoms: N3_12  and  C9_13 
ROOT
HETATM    1  S1  UNL     1      26.306   2.467  51.209  1.00  0.00    -0.041 SA
HETATM    2  C1  UNL     1      25.325   2.064  52.451  1.00  0.00     0.168 C 
ENDROOT
BRANCH   2   3
HETATM    3  N1  UNL     1      24.606   3.190  52.929  1.00  0.00    -0.366 N 
HETATM    4  H1  UNL     1      25.012   3.637  53.779  1.00  0.00     0.161 HD
BRANCH   3   5
HETATM    5  C2  UNL     1      23.419   3.792  52.420  1.00  0.00     0.152 C 
BRANCH   5   6
HETATM    6  C3  UNL     1      22.244   2.912  52.235  1.00  0.00     0.292 C 
BRANCH   6   7
HETATM    7  N2  UNL     1      21.867   2.674  50.881  1.00  0.00     0.090 N 
HETATM    8  C4  UNL     1      22.332   1.367  50.466  1.00  0.00     0.272 C 
HETATM    9  C5  UNL     1      21.616   0.268  51.231  1.00  0.00     0.030 C 
HETATM   10  C6  UNL     1      20.162   0.585  51.465  1.00  0.00     0.003 C 
HETATM   11  C7  UNL     1      19.715   1.587  50.432  1.00  0.00     0.030 C 
HETATM   12  C8  UNL     1      20.500   2.863  50.546  1.00  0.00     0.272 C 
ENDBRANCH   6   7
ENDBRANCH   5   6
ENDBRANCH   3   5
ENDBRANCH   2   3
BRANCH   2  13
HETATM   13  N3  UNL     1      25.194   0.733  52.994  1.00  0.00    -0.353 N 
HETATM   14  H16 UNL     1      24.213   0.458  53.206  1.00  0.00     0.163 HD
BRANCH  13  15
HETATM   15  C9  UNL     1      26.431   0.036  53.141  1.00  0.00     0.171 C 
HETATM   16  C10 UNL     1      26.287  -1.348  52.621  1.00  0.00     0.005 C 
HETATM   17  C11 UNL     1      27.247  -2.257  52.516  1.00  0.00    -0.002 C 
HETATM   18  C12 UNL     1      28.688  -2.386  52.794  1.00  0.00    -0.003 C 
HETATM   19  C13 UNL     1      29.530  -1.604  53.459  1.00  0.00    -0.005 C 
HETATM   20  C14 UNL     1      29.477  -0.298  54.212  1.00  0.00     0.177 C 
HETATM   21  N4  UNL     1      28.196  -0.159  54.881  1.00  0.00    -0.276 NA
HETATM   22  C15 UNL     1      26.968  -0.025  54.516  1.00  0.00     0.124 C 
HETATM   23 CL1  UNL     1      25.797   0.091  55.810  1.00  0.00    -0.065 Cl
ENDBRANCH  13  15
ENDBRANCH   2  13
TORSDOF 6
ENDMDL
MODEL 6
REMARK VINA RESULT:      -6.2      2.782      7.182
REMARK  6 active torsions:
REMARK  status: ('A' for Active; 'I' for Inactive)
REMARK    1  A    between atoms: C1_2  and  N1_3 
REMARK    2  A    between atoms: C1_2  and  N3_12 
REMARK    3  A    between atoms: N1_3  and  C2_4 
REMARK    4  A    between atoms: C2_4  and  C3_5 
REMARK    5  A    between atoms: C3_5  and  N2_6 
REMARK    6  A    between atoms: N3_12  and  C9_13 
ROOT
HETATM    1  S1  UNL     1      22.599  -0.937  54.552  1.00  0.00    -0.041 SA
HETATM    2  C1  UNL     1      23.433  -0.087  53.435  1.00  0.00     0.168 C 
ENDROOT
BRANCH   2   3
HETATM    3  N1  UNL     1      22.875   1.204  53.244  1.00  0.00    -0.366 N 
HETATM    4  H1  UNL     1      22.965   1.843  54.063  1.00  0.00     0.161 HD
BRANCH   3   5
HETATM    5  C2  UNL     1      22.215   1.748  52.104  1.00  0.00     0.152 C 
BRANCH   5   6
HETATM    6  C3  UNL     1      21.065   0.989  51.566  1.00  0.00     0.292 C 
BRANCH   6   7
HETATM    7  N2  UNL     1      19.864   1.077  52.331  1.00  0.00     0.090 N 
HETATM    8  C4  UNL     1      19.024   2.131  51.804  1.00  0.00     0.272 C 
HETATM    9  C5  UNL     1      18.531   1.786  50.410  1.00  0.00     0.030 C 
HETATM   10  C6  UNL     1      18.201   0.325  50.263  1.00  0.00     0.003 C 
HETATM   11  C7  UNL     1      17.922  -0.247  51.630  1.00  0.00     0.030 C 
HETATM   12  C8  UNL     1      19.127  -0.122  52.520  1.00  0.00     0.272 C 
ENDBRANCH   6   7
ENDBRANCH   5   6
ENDBRANCH   3   5
ENDBRANCH   2   3
BRANCH   2  13
HETATM   13  N3  UNL     1      24.596  -0.574  52.733  1.00  0.00    -0.353 N 
HETATM   14  H16 UNL     1      24.385  -1.308  52.025  1.00  0.00     0.163 HD
BRANCH  13  15
HETATM   15  C9  UNL     1      25.822   0.036  53.134  1.00  0.00     0.171 C 
HETATM   16  C10 UNL     1      26.164   1.133  52.192  1.00  0.00     0.005 C 
HETATM   17  C11 UNL     1      27.184   1.974  52.295  1.00  0.00    -0.002 C 
HETATM   18  C12 UNL     1      28.313   2.244  53.204  1.00  0.00    -0.003 C 
HETATM   19  C13 UNL     1      28.807   1.552  54.222  1.00  0.00    -0.005 C 
HETATM   20  C14 UNL     1      28.517   0.251  54.930  1.00  0.00     0.177 C 
HETATM   21  N4  UNL     1      28.028  -0.733  53.984  1.00  0.00    -0.276 NA
HETATM   22  C15 UNL     1      26.980  -0.875  53.248  1.00  0.00     0.124 C 
HETATM   23 CL1  UNL     1      26.930  -2.315  52.259  1.00  0.00    -0.065 Cl
ENDBRANCH  13  15
ENDBRANCH   2  13
TORSDOF 6
ENDMDL
MODEL 7
REMARK VINA RESULT:      -6.2      2.921      6.217
REMARK  6 active torsions:
REMARK  status: ('A' for Active; 'I' for Inactive)
REMARK    1  A    between atoms: C1_2  and  N1_3 
REMARK    2  A    between atoms: C1_2  and  N3_12 
REMARK    3  A    between atoms: N1_3  and  C2_4 
REMARK    4  A    between atoms: C2_4  and  C3_5 
REMARK    5  A    between atoms: C3_5  and  N2_6 
REMARK    6  A    between atoms: N3_12  and  C9_13 
ROOT
HETATM    1  S1  UNL     1      22.686   0.727  52.534  1.00  0.00    -0.041 SA
HETATM    2  C1  UNL     1      24.300   0.484  52.475  1.00  0.00     0.168 C 
ENDROOT
BRANCH   2   3
HETATM    3  N1  UNL     1      24.962   1.559  51.826  1.00  0.00    -0.366 N 
HETATM    4  H1  UNL     1      25.992   1.594  51.983  1.00  0.00     0.161 HD
BRANCH   3   5
HETATM    5  C2  UNL     1      24.426   2.589  50.999  1.00  0.00     0.152 C 
BRANCH   5   6
HETATM    6  C3  UNL     1      24.392   3.956  51.563  1.00  0.00     0.292 C 
BRANCH   6   7
HETATM    7  N2  UNL     1      23.509   4.864  50.907  1.00  0.00     0.090 N 
HETATM    8  C4  UNL     1      24.008   6.216  51.042  1.00  0.00     0.272 C 
HETATM    9  C5  UNL     1      25.317   6.389  50.291  1.00  0.00     0.030 C 
HETATM   10  C6  UNL     1      25.334   5.636  48.988  1.00  0.00     0.003 C 
HETATM   11  C7  UNL     1      23.912   5.399  48.548  1.00  0.00     0.030 C 
HETATM   12  C8  UNL     1      23.167   4.575  49.560  1.00  0.00     0.272 C 
ENDBRANCH   6   7
ENDBRANCH   5   6
ENDBRANCH   3   5
ENDBRANCH   2   3
BRANCH   2  13
HETATM   13  N3  UNL     1      24.977  -0.669  53.018  1.00  0.00    -0.353 N 
HETATM   14  H16 UNL     1      24.355  -1.489  53.174  1.00  0.00     0.163 HD
BRANCH  13  15
HETATM   15  C9  UNL     1      26.372  -0.477  53.244  1.00  0.00     0.171 C 
HETATM   16  C10 UNL     1      27.101  -1.741  52.961  1.00  0.00     0.005 C 
HETATM   17  C11 UNL     1      28.415  -1.917  52.980  1.00  0.00    -0.002 C 
HETATM   18  C12 UNL     1      29.636  -1.132  53.236  1.00  0.00    -0.003 C 
HETATM   19  C13 UNL     1      29.812   0.082  53.740  1.00  0.00    -0.005 C 
HETATM   20  C14 UNL     1      28.953   1.204  54.270  1.00  0.00     0.177 C 
HETATM   21  N4  UNL     1      27.786   0.662  54.942  1.00  0.00    -0.276 NA
HETATM   22  C15 UNL     1      26.740  -0.005  54.595  1.00  0.00     0.124 C 
HETATM   23 CL1  UNL     1      25.629  -0.408  55.883  1.00  0.00    -0.065 Cl
ENDBRANCH  13  15
ENDBRANCH   2  13
TORSDOF 6
ENDMDL
MODEL 8
REMARK VINA RESULT:      -6.2      2.259      3.165
REMARK  6 active torsions:
REMARK  status: ('A' for Active; 'I' for Inactive)
REMARK    1  A    between atoms: C1_2  and  N1_3 
REMARK    2  A    between atoms: C1_2  and  N3_12 
REMARK    3  A    between atoms: N1_3  and  C2_4 
REMARK    4  A    between atoms: C2_4  and  C3_5 
REMARK    5  A    between atoms: C3_5  and  N2_6 
REMARK    6  A    between atoms: N3_12  and  C9_13 
ROOT
HETATM    1  S1  UNL     1      26.685   4.288  49.324  1.00  0.00    -0.041 SA
HETATM    2  C1  UNL     1      25.509   3.912  50.393  1.00  0.00     0.168 C 
ENDROOT
BRANCH   2   3
HETATM    3  N1  UNL     1      26.035   3.237  51.526  1.00  0.00    -0.366 N 
HETATM    4  H1  UNL     1      25.816   3.686  52.441  1.00  0.00     0.161 HD
BRANCH   3   5
HETATM    5  C2  UNL     1      26.811   2.044  51.592  1.00  0.00     0.152 C 
BRANCH   5   6
HETATM    6  C3  UNL     1      27.554   1.792  52.847  1.00  0.00     0.292 C 
BRANCH   6   7
HETATM    7  N2  UNL     1      27.884   0.428  53.097  1.00  0.00     0.090 N 
HETATM    8  C4  UNL     1      27.845   0.167  54.520  1.00  0.00     0.272 C 
HETATM    9  C5  UNL     1      26.430   0.292  55.056  1.00  0.00     0.030 C 
HETATM   10  C6  UNL     1      25.403  -0.246  54.096  1.00  0.00     0.003 C 
HETATM   11  C7  UNL     1      26.075  -1.227  53.170  1.00  0.00     0.030 C 
HETATM   12  C8  UNL     1      27.160  -0.557  52.374  1.00  0.00     0.272 C 
ENDBRANCH   6   7
ENDBRANCH   5   6
ENDBRANCH   3   5
ENDBRANCH   2   3
BRANCH   2  13
HETATM   13  N3  UNL     1      24.111   4.228  50.221  1.00  0.00    -0.353 N 
HETATM   14  H16 UNL     1      23.936   5.195  49.878  1.00  0.00     0.163 HD
BRANCH  13  15
HETATM   15  C9  UNL     1      23.223   3.161  50.550  1.00  0.00     0.171 C 
HETATM   16  C10 UNL     1      22.661   2.578  49.305  1.00  0.00     0.005 C 
HETATM   17  C11 UNL     1      21.868   1.519  49.215  1.00  0.00    -0.002 C 
HETATM   18  C12 UNL     1      21.232   0.531  50.104  1.00  0.00    -0.003 C 
HETATM   19  C13 UNL     1      21.108   0.486  51.424  1.00  0.00    -0.005 C 
HETATM   20  C14 UNL     1      21.508   1.330  52.610  1.00  0.00     0.177 C 
HETATM   21  N4  UNL     1      21.465   2.737  52.257  1.00  0.00    -0.276 NA
HETATM   22  C15 UNL     1      22.112   3.514  51.457  1.00  0.00     0.124 C 
HETATM   23 CL1  UNL     1      21.601   5.186  51.440  1.00  0.00    -0.065 Cl
ENDBRANCH  13  15
ENDBRANCH   2  13
TORSDOF 6
ENDMDL
MODEL 9
REMARK VINA RESULT:      -6.0      2.409      3.137
REMARK  6 active torsions:
REMARK  status: ('A' for Active; 'I' for Inactive)
REMARK    1  A    between atoms: C1_2  and  N1_3 
REMARK    2  A    between atoms: C1_2  and  N3_12 
REMARK    3  A    between atoms: N1_3  and  C2_4 
REMARK    4  A    between atoms: C2_4  and  C3_5 
REMARK    5  A    between atoms: C3_5  and  N2_6 
REMARK    6  A    between atoms: N3_12  and  C9_13 
ROOT
HETATM    1  S1  UNL     1      24.816   6.596  50.515  1.00  0.00    -0.041 SA
HETATM    2  C1  UNL     1      24.802   5.006  50.143  1.00  0.00     0.168 C 
ENDROOT
BRANCH   2   3
HETATM    3  N1  UNL     1      25.920   4.333  50.702  1.00  0.00    -0.366 N 
HETATM    4  H1  UNL     1      26.400   4.850  51.469  1.00  0.00     0.161 HD
BRANCH   3   5
HETATM    5  C2  UNL     1      26.474   3.063  50.370  1.00  0.00     0.152 C 
BRANCH   5   6
HETATM    6  C3  UNL     1      26.188   1.941  51.292  1.00  0.00     0.292 C 
BRANCH   6   7
HETATM    7  N2  UNL     1      25.850   2.318  52.625  1.00  0.00     0.090 N 
HETATM    8  C4  UNL     1      24.499   1.895  52.926  1.00  0.00     0.272 C 
HETATM    9  C5  UNL     1      24.398   0.380  52.951  1.00  0.00     0.030 C 
HETATM   10  C6  UNL     1      25.614  -0.267  53.558  1.00  0.00     0.003 C 
HETATM   11  C7  UNL     1      26.303   0.738  54.445  1.00  0.00     0.030 C 
HETATM   12  C8  UNL     1      26.751   1.935  53.654  1.00  0.00     0.272 C 
ENDBRANCH   6   7
ENDBRANCH   5   6
ENDBRANCH   3   5
ENDBRANCH   2   3
BRANCH   2  13
HETATM   13  N3  UNL     1      23.783   4.357  49.352  1.00  0.00    -0.353 N 
HETATM   14  H16 UNL     1      23.871   4.526  48.329  1.00  0.00     0.163 HD
BRANCH  13  15
HETATM   15  C9  UNL     1      22.842   3.603  50.115  1.00  0.00     0.171 C 
HETATM   16  C10 UNL     1      22.719   2.236  49.544  1.00  0.00     0.005 C 
HETATM   17  C11 UNL     1      22.004   1.235  50.037  1.00  0.00    -0.002 C 
HETATM   18  C12 UNL     1      21.117   0.963  51.183  1.00  0.00    -0.003 C 
HETATM   19  C13 UNL     1      20.571   1.770  52.083  1.00  0.00    -0.005 C 
HETATM   20  C14 UNL     1      20.558   3.247  52.394  1.00  0.00     0.177 C 
HETATM   21  N4  UNL     1      20.626   4.015  51.164  1.00  0.00    -0.276 NA
HETATM   22  C15 UNL     1      21.494   4.196  50.229  1.00  0.00     0.124 C 
HETATM   23 CL1  UNL     1      21.008   5.267  48.935  1.00  0.00    -0.065 Cl
ENDBRANCH  13  15
ENDBRANCH   2  13
TORSDOF 6
ENDMDL
