MODEL 1
REMARK VINA RESULT:      -9.0      0.000      0.000
REMARK  6 active torsions:
REMARK  status: ('A' for Active; 'I' for Inactive)
REMARK    1  A    between atoms: O1_2  and  C2_3 
REMARK    2  A    between atoms: C5_6  and  C6_7 
REMARK    3  A    between atoms: C16_22  and  C17_23 
REMARK    4  A    between atoms: C18_24  and  C19_25 
REMARK    5  A    between atoms: C19_25  and  C20_26 
REMARK    6  A    between atoms: C20_26  and  N4_27 
ROOT
HETATM    1  C2  UNL     1      25.645   3.702  50.015  1.00  0.00     0.140 C 
HETATM    2  C3  UNL     1      26.458   2.712  50.444  1.00  0.00     0.036 C 
HETATM    3  C4  UNL     1      25.813   1.901  51.532  1.00  0.00     0.084 C 
HETATM    4  C5  UNL     1      26.363   0.901  52.101  1.00  0.00     0.022 C 
HETATM    5  C12 UNL     1      25.236   0.668  53.033  1.00  0.00     0.037 C 
HETATM    6 CL1  UNL     1      24.877  -0.499  54.322  1.00  0.00    -0.087 Cl
HETATM    7  C13 UNL     1      24.158   1.482  52.983  1.00  0.00     0.115 C 
HETATM    8  N1  UNL     1      23.689   2.595  52.273  1.00  0.00    -0.318 N 
HETATM    9  C14 UNL     1      23.459   3.872  52.940  1.00  0.00     0.207 C 
HETATM   10  N2  UNL     1      23.340   5.039  52.350  1.00  0.00    -0.265 NA
HETATM   11  C15 UNL     1      23.768   5.207  50.965  1.00  0.00     0.279 C 
HETATM   12  N3  UNL     1      24.339   3.911  50.556  1.00  0.00    -0.311 N 
HETATM   13  C16 UNL     1      23.357   2.844  50.842  1.00  0.00     0.276 C 
ENDROOT
BRANCH  13  14
HETATM   14  C17 UNL     1      21.996   3.366  50.739  1.00  0.00    -0.059 C 
HETATM   15  C18 UNL     1      20.856   3.786  50.665  1.00  0.00    -0.101 C 
BRANCH  15  16
HETATM   16  C19 UNL     1      19.467   4.278  50.572  1.00  0.00     0.124 C 
BRANCH  16  17
HETATM   17  C20 UNL     1      18.582   3.158  51.083  1.00  0.00     0.285 C 
BRANCH  17  18
HETATM   18  N4  UNL     1      18.419   2.200  50.039  1.00  0.00     0.097 N 
HETATM   19  C21 UNL     1      17.263   2.364  49.215  1.00  0.00     0.299 C 
HETATM   20  C22 UNL     1      16.015   1.917  49.957  1.00  0.00     0.198 C 
HETATM   21  O2  UNL     1      16.219   0.676  50.530  1.00  0.00    -0.387 OA
HETATM   22  C23 UNL     1      17.323   0.009  50.069  1.00  0.00     0.203 C 
HETATM   23  C24 UNL     1      18.585   0.833  50.353  1.00  0.00     0.242 C 
HETATM   24  C25 UNL     1      19.026   0.508  51.739  1.00  0.00     0.045 C 
ENDBRANCH  17  18
ENDBRANCH  16  17
ENDBRANCH  15  16
ENDBRANCH  13  14
BRANCH   1  25
HETATM   25  O1  UNL     1      25.649   4.717  49.104  1.00  0.00    -0.341 OA
HETATM   26  C1  UNL     1      26.775   5.495  48.747  1.00  0.00     0.211 C 
ENDBRANCH   1  25
BRANCH   4  27
HETATM   27  C6  UNL     1      27.211  -0.121  52.521  1.00  0.00    -0.045 A 
HETATM   28  C7  UNL     1      28.217   0.838  53.103  1.00  0.00     0.008 A 
HETATM   29  C8  UNL     1      29.446   0.489  53.725  1.00  0.00     0.004 A 
HETATM   30  C9  UNL     1      29.793  -0.842  53.827  1.00  0.00     0.042 A 
HETATM   31  C10 UNL     1      28.941  -1.841  53.319  1.00  0.00     0.117 A 
HETATM   32  F1  UNL     1      28.923  -3.172  53.243  1.00  0.00    -0.206 F 
HETATM   33  C11 UNL     1      27.885  -1.179  52.807  1.00  0.00     0.050 A 
ENDBRANCH   4  27
TORSDOF 6
ENDMDL
MODEL 2
REMARK VINA RESULT:      -8.6      2.118      3.225
REMARK  6 active torsions:
REMARK  status: ('A' for Active; 'I' for Inactive)
REMARK    1  A    between atoms: O1_2  and  C2_3 
REMARK    2  A    between atoms: C5_6  and  C6_7 
REMARK    3  A    between atoms: C16_22  and  C17_23 
REMARK    4  A    between atoms: C18_24  and  C19_25 
REMARK    5  A    between atoms: C19_25  and  C20_26 
REMARK    6  A    between atoms: C20_26  and  N4_27 
ROOT
HETATM    1  C2  UNL     1      22.718   3.204  50.454  1.00  0.00     0.140 C 
HETATM    2  C3  UNL     1      23.876   2.826  51.041  1.00  0.00     0.036 C 
HETATM    3  C4  UNL     1      23.651   1.743  52.057  1.00  0.00     0.084 C 
HETATM    4  C5  UNL     1      24.579   1.202  52.743  1.00  0.00     0.022 C 
HETATM    5  C12 UNL     1      23.660   0.330  53.510  1.00  0.00     0.037 C 
HETATM    6 CL1  UNL     1      23.840  -0.894  54.783  1.00  0.00    -0.087 Cl
HETATM    7  C13 UNL     1      22.332   0.396  53.268  1.00  0.00     0.115 C 
HETATM    8  N1  UNL     1      21.425   1.082  52.449  1.00  0.00    -0.318 N 
HETATM    9  C14 UNL     1      20.421   1.974  53.019  1.00  0.00     0.207 C 
HETATM   10  N2  UNL     1      19.752   2.897  52.368  1.00  0.00    -0.265 NA
HETATM   11  C15 UNL     1      20.205   3.342  51.054  1.00  0.00     0.279 C 
HETATM   12  N3  UNL     1      21.460   2.615  50.789  1.00  0.00    -0.311 N 
HETATM   13  C16 UNL     1      21.223   1.168  50.976  1.00  0.00     0.276 C 
ENDROOT
BRANCH  13  14
HETATM   14  C17 UNL     1      19.837   0.835  50.652  1.00  0.00    -0.059 C 
HETATM   15  C18 UNL     1      18.688   0.540  50.379  1.00  0.00    -0.101 C 
BRANCH  15  16
HETATM   16  C19 UNL     1      17.301   0.172  50.032  1.00  0.00     0.124 C 
BRANCH  16  17
HETATM   17  C20 UNL     1      16.484   1.446  50.130  1.00  0.00     0.285 C 
BRANCH  17  18
HETATM   18  N4  UNL     1      16.342   1.785  51.509  1.00  0.00     0.097 N 
HETATM   19  C21 UNL     1      15.339   1.067  52.229  1.00  0.00     0.299 C 
HETATM   20  C22 UNL     1      13.955   1.571  51.858  1.00  0.00     0.198 C 
HETATM   21  O2  UNL     1      13.919   2.952  51.919  1.00  0.00    -0.387 OA
HETATM   22  C23 UNL     1      14.980   3.522  52.571  1.00  0.00     0.203 C 
HETATM   23  C24 UNL     1      16.287   3.152  51.859  1.00  0.00     0.242 C 
HETATM   24  C25 UNL     1      16.492   4.139  50.761  1.00  0.00     0.045 C 
ENDBRANCH  17  18
ENDBRANCH  16  17
ENDBRANCH  15  16
ENDBRANCH  13  14
BRANCH   1  25
HETATM   25  O1  UNL     1      22.281   4.086  49.511  1.00  0.00    -0.341 OA
HETATM   26  C1  UNL     1      22.552   4.007  48.125  1.00  0.00     0.211 C 
ENDBRANCH   1  25
BRANCH   4  27
HETATM   27  C6  UNL     1      25.785   0.819  53.326  1.00  0.00    -0.045 A 
HETATM   28  C7  UNL     1      26.043  -0.249  52.296  1.00  0.00     0.008 A 
HETATM   29  C8  UNL     1      27.155  -1.133  52.263  1.00  0.00     0.004 A 
HETATM   30  C9  UNL     1      28.116  -1.039  53.248  1.00  0.00     0.042 A 
HETATM   31  C10 UNL     1      27.994  -0.082  54.273  1.00  0.00     0.117 A 
HETATM   32  F1  UNL     1      28.688   0.305  55.344  1.00  0.00    -0.206 F 
HETATM   33  C11 UNL     1      26.848   0.575  54.009  1.00  0.00     0.050 A 
ENDBRANCH   4  27
TORSDOF 6
ENDMDL
MODEL 3
REMARK VINA RESULT:      -8.6      2.628      3.660
REMARK  6 active torsions:
REMARK  status: ('A' for Active; 'I' for Inactive)
REMARK    1  A    between atoms: O1_2  and  C2_3 
REMARK    2  A    between atoms: C5_6  and  C6_7 
REMARK    3  A    between atoms: C16_22  and  C17_23 
REMARK    4  A    between atoms: C18_24  and  C19_25 
REMARK    5  A    between atoms: C19_25  and  C20_26 
REMARK    6  A    between atoms: C20_26  and  N4_27 
ROOT
HETATM    1  C2  UNL     1      25.875   3.909  49.916  1.00  0.00     0.140 C 
HETATM    2  C3  UNL     1      26.621   2.874  50.363  1.00  0.00     0.036 C 
HETATM    3  C4  UNL     1      25.885   2.069  51.395  1.00  0.00     0.084 C 
HETATM    4  C5  UNL     1      26.360   1.033  51.967  1.00  0.00     0.022 C 
HETATM    5  C12 UNL     1      25.176   0.829  52.833  1.00  0.00     0.037 C 
HETATM    6 CL1  UNL     1      24.699  -0.348  54.073  1.00  0.00    -0.087 Cl
HETATM    7  C13 UNL     1      24.139   1.692  52.748  1.00  0.00     0.115 C 
HETATM    8  N1  UNL     1      23.757   2.841  52.043  1.00  0.00    -0.318 N 
HETATM    9  C14 UNL     1      23.548   4.111  52.728  1.00  0.00     0.207 C 
HETATM   10  N2  UNL     1      23.511   5.295  52.161  1.00  0.00    -0.265 NA
HETATM   11  C15 UNL     1      24.018   5.475  50.804  1.00  0.00     0.279 C 
HETATM   12  N3  UNL     1      24.554   4.164  50.394  1.00  0.00    -0.311 N 
HETATM   13  C16 UNL     1      23.512   3.136  50.603  1.00  0.00     0.276 C 
ENDROOT
BRANCH  13  14
HETATM   14  C17 UNL     1      22.183   3.721  50.442  1.00  0.00    -0.059 C 
HETATM   15  C18 UNL     1      21.079   4.221  50.323  1.00  0.00    -0.101 C 
BRANCH  15  16
HETATM   16  C19 UNL     1      19.739   4.827  50.198  1.00  0.00     0.124 C 
BRANCH  16  17
HETATM   17  C20 UNL     1      19.787   5.720  48.974  1.00  0.00     0.285 C 
BRANCH  17  18
HETATM   18  N4  UNL     1      20.518   6.900  49.306  1.00  0.00     0.097 N 
HETATM   19  C21 UNL     1      19.734   8.054  49.617  1.00  0.00     0.299 C 
HETATM   20  C22 UNL     1      19.145   8.653  48.352  1.00  0.00     0.198 C 
HETATM   21  O2  UNL     1      20.125   8.789  47.387  1.00  0.00    -0.387 OA
HETATM   22  C23 UNL     1      21.407   8.662  47.854  1.00  0.00     0.203 C 
HETATM   23  C24 UNL     1      21.598   7.274  48.476  1.00  0.00     0.242 C 
HETATM   24  C25 UNL     1      21.958   6.337  47.374  1.00  0.00     0.045 C 
ENDBRANCH  17  18
ENDBRANCH  16  17
ENDBRANCH  15  16
ENDBRANCH  13  14
BRANCH   1  25
HETATM   25  O1  UNL     1      25.972   4.942  49.032  1.00  0.00    -0.341 OA
HETATM   26  C1  UNL     1      27.178   5.544  48.601  1.00  0.00     0.211 C 
ENDBRANCH   1  25
BRANCH   4  27
HETATM   27  C6  UNL     1      27.140  -0.035  52.405  1.00  0.00    -0.045 A 
HETATM   28  C7  UNL     1      28.146   0.864  53.074  1.00  0.00     0.008 A 
HETATM   29  C8  UNL     1      29.321   0.446  53.756  1.00  0.00     0.004 A 
HETATM   30  C9  UNL     1      29.608  -0.900  53.837  1.00  0.00     0.042 A 
HETATM   31  C10 UNL     1      28.747  -1.848  53.252  1.00  0.00     0.117 A 
HETATM   32  F1  UNL     1      28.680  -3.175  53.134  1.00  0.00    -0.206 F 
HETATM   33  C11 UNL     1      27.752  -1.128  52.698  1.00  0.00     0.050 A 
ENDBRANCH   4  27
TORSDOF 6
ENDMDL
MODEL 4
REMARK VINA RESULT:      -8.3      1.889      2.585
REMARK  6 active torsions:
REMARK  status: ('A' for Active; 'I' for Inactive)
REMARK    1  A    between atoms: O1_2  and  C2_3 
REMARK    2  A    between atoms: C5_6  and  C6_7 
REMARK    3  A    between atoms: C16_22  and  C17_23 
REMARK    4  A    between atoms: C18_24  and  C19_25 
REMARK    5  A    between atoms: C19_25  and  C20_26 
REMARK    6  A    between atoms: C20_26  and  N4_27 
ROOT
HETATM    1  C2  UNL     1      25.665   3.740  50.020  1.00  0.00     0.140 C 
HETATM    2  C3  UNL     1      26.467   2.737  50.442  1.00  0.00     0.036 C 
HETATM    3  C4  UNL     1      25.818   1.937  51.535  1.00  0.00     0.084 C 
HETATM    4  C5  UNL     1      26.356   0.928  52.099  1.00  0.00     0.022 C 
HETATM    5  C12 UNL     1      25.234   0.713  53.041  1.00  0.00     0.037 C 
HETATM    6 CL1  UNL     1      24.868  -0.448  54.334  1.00  0.00    -0.087 Cl
HETATM    7  C13 UNL     1      24.169   1.544  53.000  1.00  0.00     0.115 C 
HETATM    8  N1  UNL     1      23.712   2.665  52.295  1.00  0.00    -0.318 N 
HETATM    9  C14 UNL     1      23.508   3.945  52.964  1.00  0.00     0.207 C 
HETATM   10  N2  UNL     1      23.403   5.114  52.375  1.00  0.00    -0.265 NA
HETATM   11  C15 UNL     1      23.821   5.276  50.986  1.00  0.00     0.279 C 
HETATM   12  N3  UNL     1      24.368   3.970  50.572  1.00  0.00    -0.311 N 
HETATM   13  C16 UNL     1      23.372   2.919  50.867  1.00  0.00     0.276 C 
ENDROOT
BRANCH  13  14
HETATM   14  C17 UNL     1      22.019   3.463  50.776  1.00  0.00    -0.059 C 
HETATM   15  C18 UNL     1      20.885   3.902  50.712  1.00  0.00    -0.101 C 
BRANCH  15  16
HETATM   16  C19 UNL     1      19.504   4.417  50.634  1.00  0.00     0.124 C 
BRANCH  16  17
HETATM   17  C20 UNL     1      19.439   5.278  49.388  1.00  0.00     0.285 C 
BRANCH  17  18
HETATM   18  N4  UNL     1      18.343   4.832  48.589  1.00  0.00     0.097 N 
HETATM   19  C21 UNL     1      18.428   3.492  48.103  1.00  0.00     0.299 C 
HETATM   20  C22 UNL     1      19.427   3.403  46.962  1.00  0.00     0.198 C 
HETATM   21  O2  UNL     1      19.186   4.402  46.038  1.00  0.00    -0.387 OA
HETATM   22  C23 UNL     1      17.974   5.025  46.175  1.00  0.00     0.203 C 
HETATM   23  C24 UNL     1      17.879   5.680  47.559  1.00  0.00     0.242 C 
HETATM   24  C25 UNL     1      18.507   7.027  47.458  1.00  0.00     0.045 C 
ENDBRANCH  17  18
ENDBRANCH  16  17
ENDBRANCH  15  16
ENDBRANCH  13  14
BRANCH   1  25
HETATM   25  O1  UNL     1      25.679   4.755  49.109  1.00  0.00    -0.341 OA
HETATM   26  C1  UNL     1      26.815   5.510  48.736  1.00  0.00     0.211 C 
ENDBRANCH   1  25
BRANCH   4  27
HETATM   27  C6  UNL     1      27.192  -0.107  52.512  1.00  0.00    -0.045 A 
HETATM   28  C7  UNL     1      28.213   0.834  53.096  1.00  0.00     0.008 A 
HETATM   29  C8  UNL     1      29.439   0.466  53.711  1.00  0.00     0.004 A 
HETATM   30  C9  UNL     1      29.768  -0.870  53.806  1.00  0.00     0.042 A 
HETATM   31  C10 UNL     1      28.900  -1.855  53.297  1.00  0.00     0.117 A 
HETATM   32  F1  UNL     1      28.863  -3.186  53.215  1.00  0.00    -0.206 F 
HETATM   33  C11 UNL     1      27.852  -1.176  52.791  1.00  0.00     0.050 A 
ENDBRANCH   4  27
TORSDOF 6
ENDMDL
MODEL 5
REMARK VINA RESULT:      -8.1      2.659      4.193
REMARK  6 active torsions:
REMARK  status: ('A' for Active; 'I' for Inactive)
REMARK    1  A    between atoms: O1_2  and  C2_3 
REMARK    2  A    between atoms: C5_6  and  C6_7 
REMARK    3  A    between atoms: C16_22  and  C17_23 
REMARK    4  A    between atoms: C18_24  and  C19_25 
REMARK    5  A    between atoms: C19_25  and  C20_26 
REMARK    6  A    between atoms: C20_26  and  N4_27 
ROOT
HETATM    1  C2  UNL     1      21.729   0.010  53.094  1.00  0.00     0.140 C 
HETATM    2  C3  UNL     1      23.036  -0.123  53.408  1.00  0.00     0.036 C 
HETATM    3  C4  UNL     1      23.896   0.797  52.589  1.00  0.00     0.084 C 
HETATM    4  C5  UNL     1      25.164   0.877  52.698  1.00  0.00     0.022 C 
HETATM    5  C12 UNL     1      25.308   1.875  51.613  1.00  0.00     0.037 C 
HETATM    6 CL1  UNL     1      26.660   2.749  50.865  1.00  0.00    -0.087 Cl
HETATM    7  C13 UNL     1      24.205   2.301  50.958  1.00  0.00     0.115 C 
HETATM    8  N1  UNL     1      22.819   2.100  50.951  1.00  0.00    -0.318 N 
HETATM    9  C14 UNL     1      22.147   1.522  49.792  1.00  0.00     0.207 C 
HETATM   10  N2  UNL     1      20.944   0.995  49.783  1.00  0.00    -0.265 NA
HETATM   11  C15 UNL     1      20.290   0.637  51.038  1.00  0.00     0.279 C 
HETATM   12  N3  UNL     1      21.268   0.929  52.102  1.00  0.00    -0.311 N 
HETATM   13  C16 UNL     1      21.737   2.323  51.951  1.00  0.00     0.276 C 
ENDROOT
BRANCH  13  14
HETATM   14  C17 UNL     1      20.687   3.150  51.360  1.00  0.00    -0.059 C 
HETATM   15  C18 UNL     1      19.804   3.840  50.887  1.00  0.00    -0.101 C 
BRANCH  15  16
HETATM   16  C19 UNL     1      18.719   4.667  50.321  1.00  0.00     0.124 C 
BRANCH  16  17
HETATM   17  C20 UNL     1      17.531   3.743  50.134  1.00  0.00     0.285 C 
BRANCH  17  18
HETATM   18  N4  UNL     1      16.365   4.405  50.624  1.00  0.00     0.097 N 
HETATM   19  C21 UNL     1      16.060   4.194  52.003  1.00  0.00     0.299 C 
HETATM   20  C22 UNL     1      15.483   2.805  52.214  1.00  0.00     0.198 C 
HETATM   21  O2  UNL     1      14.480   2.560  51.294  1.00  0.00    -0.387 OA
HETATM   22  C23 UNL     1      14.027   3.672  50.634  1.00  0.00     0.203 C 
HETATM   23  C24 UNL     1      15.180   4.323  49.860  1.00  0.00     0.242 C 
HETATM   24  C25 UNL     1      15.273   3.637  48.540  1.00  0.00     0.045 C 
ENDBRANCH  17  18
ENDBRANCH  16  17
ENDBRANCH  15  16
ENDBRANCH  13  14
BRANCH   1  25
HETATM   25  O1  UNL     1      20.523  -0.511  53.461  1.00  0.00    -0.341 OA
HETATM   26  C1  UNL     1      20.334  -1.695  54.212  1.00  0.00     0.211 C 
ENDBRANCH   1  25
BRANCH   4  27
HETATM   27  C6  UNL     1      26.506   0.733  53.044  1.00  0.00    -0.045 A 
HETATM   28  C7  UNL     1      26.532  -0.728  52.678  1.00  0.00     0.008 A 
HETATM   29  C8  UNL     1      27.644  -1.604  52.801  1.00  0.00     0.004 A 
HETATM   30  C9  UNL     1      28.833  -1.114  53.298  1.00  0.00     0.042 A 
HETATM   31  C10 UNL     1      28.942   0.237  53.680  1.00  0.00     0.117 A 
HETATM   32  F1  UNL     1      29.882   1.048  54.169  1.00  0.00    -0.206 F 
HETATM   33  C11 UNL     1      27.730   0.772  53.439  1.00  0.00     0.050 A 
ENDBRANCH   4  27
TORSDOF 6
ENDMDL
MODEL 6
REMARK VINA RESULT:      -7.8      1.782      2.160
REMARK  6 active torsions:
REMARK  status: ('A' for Active; 'I' for Inactive)
REMARK    1  A    between atoms: O1_2  and  C2_3 
REMARK    2  A    between atoms: C5_6  and  C6_7 
REMARK    3  A    between atoms: C16_22  and  C17_23 
REMARK    4  A    between atoms: C18_24  and  C19_25 
REMARK    5  A    between atoms: C19_25  and  C20_26 
REMARK    6  A    between atoms: C20_26  and  N4_27 
ROOT
HETATM    1  C2  UNL     1      24.710   4.180  49.619  1.00  0.00     0.140 C 
HETATM    2  C3  UNL     1      25.688   3.463  50.216  1.00  0.00     0.036 C 
HETATM    3  C4  UNL     1      25.122   2.384  51.095  1.00  0.00     0.084 C 
HETATM    4  C5  UNL     1      25.830   1.560  51.762  1.00  0.00     0.022 C 
HETATM    5  C12 UNL     1      24.666   0.887  52.382  1.00  0.00     0.037 C 
HETATM    6 CL1  UNL     1      24.434  -0.456  53.520  1.00  0.00    -0.087 Cl
HETATM    7  C13 UNL     1      23.419   1.317  52.085  1.00  0.00     0.115 C 
HETATM    8  N1  UNL     1      22.779   2.287  51.304  1.00  0.00    -0.318 N 
HETATM    9  C14 UNL     1      21.992   3.351  51.918  1.00  0.00     0.207 C 
HETATM   10  N2  UNL     1      21.627   4.472  51.340  1.00  0.00    -0.265 NA
HETATM   11  C15 UNL     1      22.276   4.906  50.107  1.00  0.00     0.279 C 
HETATM   12  N3  UNL     1      23.323   3.907  49.826  1.00  0.00    -0.311 N 
HETATM   13  C16 UNL     1      22.715   2.560  49.840  1.00  0.00     0.276 C 
ENDROOT
BRANCH  13  14
HETATM   14  C17 UNL     1      21.319   2.629  49.415  1.00  0.00    -0.059 C 
HETATM   15  C18 UNL     1      20.158   2.669  49.051  1.00  0.00    -0.101 C 
BRANCH  15  16
HETATM   16  C19 UNL     1      18.756   2.714  48.591  1.00  0.00     0.124 C 
BRANCH  16  17
HETATM   17  C20 UNL     1      17.986   3.486  49.644  1.00  0.00     0.285 C 
BRANCH  17  18
HETATM   18  N4  UNL     1      16.672   2.937  49.735  1.00  0.00     0.097 N 
HETATM   19  C21 UNL     1      15.910   2.935  48.526  1.00  0.00     0.299 C 
HETATM   20  C22 UNL     1      15.412   4.334  48.210  1.00  0.00     0.198 C 
HETATM   21  O2  UNL     1      14.830   4.898  49.329  1.00  0.00    -0.387 OA
HETATM   22  C23 UNL     1      14.554   4.012  50.336  1.00  0.00     0.203 C 
HETATM   23  C24 UNL     1      15.851   3.342  50.810  1.00  0.00     0.242 C 
HETATM   24  C25 UNL     1      16.467   4.237  51.830  1.00  0.00     0.045 C 
ENDBRANCH  17  18
ENDBRANCH  16  17
ENDBRANCH  15  16
ENDBRANCH  13  14
BRANCH   1  25
HETATM   25  O1  UNL     1      24.582   5.229  48.758  1.00  0.00    -0.341 OA
HETATM   26  C1  UNL     1      25.508   6.288  48.609  1.00  0.00     0.211 C 
ENDBRANCH   1  25
BRANCH   4  27
HETATM   27  C6  UNL     1      26.852   0.825  52.358  1.00  0.00    -0.045 A 
HETATM   28  C7  UNL     1      27.485   2.044  52.975  1.00  0.00     0.008 A 
HETATM   29  C8  UNL     1      28.668   2.068  53.761  1.00  0.00     0.004 A 
HETATM   30  C9  UNL     1      29.335   0.887  54.008  1.00  0.00     0.042 A 
HETATM   31  C10 UNL     1      28.849  -0.327  53.487  1.00  0.00     0.117 A 
HETATM   32  F1  UNL     1      29.190  -1.616  53.515  1.00  0.00    -0.206 F 
HETATM   33  C11 UNL     1      27.735   0.002  52.804  1.00  0.00     0.050 A 
ENDBRANCH   4  27
TORSDOF 6
ENDMDL
MODEL 7
REMARK VINA RESULT:      -7.6      5.095      9.541
REMARK  6 active torsions:
REMARK  status: ('A' for Active; 'I' for Inactive)
REMARK    1  A    between atoms: O1_2  and  C2_3 
REMARK    2  A    between atoms: C5_6  and  C6_7 
REMARK    3  A    between atoms: C16_22  and  C17_23 
REMARK    4  A    between atoms: C18_24  and  C19_25 
REMARK    5  A    between atoms: C19_25  and  C20_26 
REMARK    6  A    between atoms: C20_26  and  N4_27 
ROOT
HETATM    1  C2  UNL     1      27.933   5.614  48.380  1.00  0.00     0.140 C 
HETATM    2  C3  UNL     1      27.268   4.587  48.953  1.00  0.00     0.036 C 
HETATM    3  C4  UNL     1      25.972   5.040  49.562  1.00  0.00     0.084 C 
HETATM    4  C5  UNL     1      25.150   4.265  50.154  1.00  0.00     0.022 C 
HETATM    5  C12 UNL     1      24.209   5.351  50.511  1.00  0.00     0.037 C 
HETATM    6 CL1  UNL     1      22.656   5.454  51.367  1.00  0.00    -0.087 Cl
HETATM    7  C13 UNL     1      24.498   6.621  50.150  1.00  0.00     0.115 C 
HETATM    8  N1  UNL     1      25.493   7.344  49.479  1.00  0.00    -0.318 N 
HETATM    9  C14 UNL     1      26.294   8.346  50.172  1.00  0.00     0.207 C 
HETATM   10  N2  UNL     1      27.438   8.841  49.758  1.00  0.00    -0.265 NA
HETATM   11  C15 UNL     1      28.186   8.169  48.701  1.00  0.00     0.279 C 
HETATM   12  N3  UNL     1      27.424   6.949  48.375  1.00  0.00    -0.311 N 
HETATM   13  C16 UNL     1      26.023   7.324  48.087  1.00  0.00     0.276 C 
ENDROOT
BRANCH  13  14
HETATM   14  C17 UNL     1      25.965   8.670  47.522  1.00  0.00    -0.059 C 
HETATM   15  C18 UNL     1      25.912   9.784  47.033  1.00  0.00    -0.101 C 
BRANCH  15  16
HETATM   16  C19 UNL     1      25.860  11.128  46.426  1.00  0.00     0.124 C 
BRANCH  16  17
HETATM   17  C20 UNL     1      27.293  11.613  46.336  1.00  0.00     0.285 C 
BRANCH  17  18
HETATM   18  N4  UNL     1      27.764  11.875  47.657  1.00  0.00     0.097 N 
HETATM   19  C21 UNL     1      27.368  13.124  48.226  1.00  0.00     0.299 C 
HETATM   20  C22 UNL     1      28.160  14.263  47.609  1.00  0.00     0.198 C 
HETATM   21  O2  UNL     1      29.509  13.962  47.610  1.00  0.00    -0.387 OA
HETATM   22  C23 UNL     1      29.857  12.904  48.408  1.00  0.00     0.203 C 
HETATM   23  C24 UNL     1      29.127  11.638  47.941  1.00  0.00     0.242 C 
HETATM   24  C25 UNL     1      29.947  11.027  46.856  1.00  0.00     0.045 C 
ENDBRANCH  17  18
ENDBRANCH  16  17
ENDBRANCH  15  16
ENDBRANCH  13  14
BRANCH   1  25
HETATM   25  O1  UNL     1      29.095   5.840  47.703  1.00  0.00    -0.341 OA
HETATM   26  C1  UNL     1      30.347   5.256  48.003  1.00  0.00     0.211 C 
ENDBRANCH   1  25
BRANCH   4  27
HETATM   27  C6  UNL     1      24.475   3.190  50.728  1.00  0.00    -0.045 A 
HETATM   28  C7  UNL     1      23.556   3.025  49.547  1.00  0.00     0.008 A 
HETATM   29  C8  UNL     1      22.510   2.072  49.424  1.00  0.00     0.004 A 
HETATM   30  C9  UNL     1      22.277   1.194  50.461  1.00  0.00     0.042 A 
HETATM   31  C10 UNL     1      23.066   1.243  51.627  1.00  0.00     0.117 A 
HETATM   32  F1  UNL     1      23.152   0.586  52.784  1.00  0.00    -0.206 F 
HETATM   33  C11 UNL     1      23.945   2.241  51.417  1.00  0.00     0.050 A 
ENDBRANCH   4  27
TORSDOF 6
ENDMDL
MODEL 8
REMARK VINA RESULT:      -7.5      4.463      7.464
REMARK  6 active torsions:
REMARK  status: ('A' for Active; 'I' for Inactive)
REMARK    1  A    between atoms: O1_2  and  C2_3 
REMARK    2  A    between atoms: C5_6  and  C6_7 
REMARK    3  A    between atoms: C16_22  and  C17_23 
REMARK    4  A    between atoms: C18_24  and  C19_25 
REMARK    5  A    between atoms: C19_25  and  C20_26 
REMARK    6  A    between atoms: C20_26  and  N4_27 
ROOT
HETATM    1  C2  UNL     1      27.125   4.781  48.923  1.00  0.00     0.140 C 
HETATM    2  C3  UNL     1      26.881   3.681  49.669  1.00  0.00     0.036 C 
HETATM    3  C4  UNL     1      25.565   3.783  50.387  1.00  0.00     0.084 C 
HETATM    4  C5  UNL     1      25.093   2.875  51.147  1.00  0.00     0.022 C 
HETATM    5  C12 UNL     1      23.885   3.650  51.512  1.00  0.00     0.037 C 
HETATM    6 CL1  UNL     1      22.463   3.374  52.539  1.00  0.00    -0.087 Cl
HETATM    7  C13 UNL     1      23.715   4.889  50.999  1.00  0.00     0.115 C 
HETATM    8  N1  UNL     1      24.362   5.792  50.145  1.00  0.00    -0.318 N 
HETATM    9  C14 UNL     1      24.852   7.075  50.635  1.00  0.00     0.207 C 
HETATM   10  N2  UNL     1      25.734   7.843  50.038  1.00  0.00    -0.265 NA
HETATM   11  C15 UNL     1      26.566   7.306  48.965  1.00  0.00     0.279 C 
HETATM   12  N3  UNL     1      26.213   5.879  48.853  1.00  0.00    -0.311 N 
HETATM   13  C16 UNL     1      24.747   5.758  48.706  1.00  0.00     0.276 C 
ENDROOT
BRANCH  13  14
HETATM   14  C17 UNL     1      24.208   6.934  48.027  1.00  0.00    -0.059 C 
HETATM   15  C18 UNL     1      23.753   7.902  47.445  1.00  0.00    -0.101 C 
BRANCH  15  16
HETATM   16  C19 UNL     1      23.211   9.071  46.724  1.00  0.00     0.124 C 
BRANCH  16  17
HETATM   17  C20 UNL     1      24.282   9.501  45.741  1.00  0.00     0.285 C 
BRANCH  17  18
HETATM   18  N4  UNL     1      25.407   9.976  46.480  1.00  0.00     0.097 N 
HETATM   19  C21 UNL     1      25.380  11.358  46.841  1.00  0.00     0.299 C 
HETATM   20  C22 UNL     1      25.679  12.228  45.633  1.00  0.00     0.198 C 
HETATM   21  O2  UNL     1      26.802  11.763  44.976  1.00  0.00    -0.387 OA
HETATM   22  C23 UNL     1      27.549  10.864  45.689  1.00  0.00     0.203 C 
HETATM   23  C24 UNL     1      26.699   9.632  46.025  1.00  0.00     0.242 C 
HETATM   24  C25 UNL     1      26.781   8.704  44.862  1.00  0.00     0.045 C 
ENDBRANCH  17  18
ENDBRANCH  16  17
ENDBRANCH  15  16
ENDBRANCH  13  14
BRANCH   1  25
HETATM   25  O1  UNL     1      28.088   5.267  48.089  1.00  0.00    -0.341 OA
HETATM   26  C1  UNL     1      29.456   5.421  48.416  1.00  0.00     0.211 C 
ENDBRANCH   1  25
BRANCH   4  27
HETATM   27  C6  UNL     1      24.854   1.727  51.900  1.00  0.00    -0.045 A 
HETATM   28  C7  UNL     1      26.268   1.231  51.749  1.00  0.00     0.008 A 
HETATM   29  C8  UNL     1      26.791   0.016  52.269  1.00  0.00     0.004 A 
HETATM   30  C9  UNL     1      25.961  -0.819  52.987  1.00  0.00     0.042 A 
HETATM   31  C10 UNL     1      24.613  -0.473  53.200  1.00  0.00     0.117 A 
HETATM   32  F1  UNL     1      23.552  -0.987  53.823  1.00  0.00    -0.206 F 
HETATM   33  C11 UNL     1      24.452   0.715  52.585  1.00  0.00     0.050 A 
ENDBRANCH   4  27
TORSDOF 6
ENDMDL
MODEL 9
REMARK VINA RESULT:      -7.4      4.348      6.951
REMARK  6 active torsions:
REMARK  status: ('A' for Active; 'I' for Inactive)
REMARK    1  A    between atoms: O1_2  and  C2_3 
REMARK    2  A    between atoms: C5_6  and  C6_7 
REMARK    3  A    between atoms: C16_22  and  C17_23 
REMARK    4  A    between atoms: C18_24  and  C19_25 
REMARK    5  A    between atoms: C19_25  and  C20_26 
REMARK    6  A    between atoms: C20_26  and  N4_27 
ROOT
HETATM    1  C2  UNL     1      26.382   3.792  49.497  1.00  0.00     0.140 C 
HETATM    2  C3  UNL     1      27.216   4.725  48.988  1.00  0.00     0.036 C 
HETATM    3  C4  UNL     1      26.471   5.958  48.564  1.00  0.00     0.084 C 
HETATM    4  C5  UNL     1      27.024   6.992  48.063  1.00  0.00     0.022 C 
HETATM    5  C12 UNL     1      25.749   7.715  47.859  1.00  0.00     0.037 C 
HETATM    6 CL1  UNL     1      25.279   9.302  47.215  1.00  0.00    -0.087 Cl
HETATM    7  C13 UNL     1      24.588   7.120  48.213  1.00  0.00     0.115 C 
HETATM    8  N1  UNL     1      24.126   5.919  48.767  1.00  0.00    -0.318 N 
HETATM    9  C14 UNL     1      23.277   5.012  48.002  1.00  0.00     0.207 C 
HETATM   10  N2  UNL     1      23.055   3.748  48.278  1.00  0.00    -0.265 NA
HETATM   11  C15 UNL     1      23.924   3.038  49.212  1.00  0.00     0.279 C 
HETATM   12  N3  UNL     1      24.972   3.998  49.602  1.00  0.00    -0.311 N 
HETATM   13  C16 UNL     1      24.329   5.241  50.078  1.00  0.00     0.276 C 
ENDROOT
BRANCH  13  14
HETATM   14  C17 UNL     1      23.031   4.942  50.681  1.00  0.00    -0.059 C 
HETATM   15  C18 UNL     1      21.951   4.674  51.174  1.00  0.00    -0.101 C 
BRANCH  15  16
HETATM   16  C19 UNL     1      20.636   4.341  51.757  1.00  0.00     0.124 C 
BRANCH  16  17
HETATM   17  C20 UNL     1      20.842   3.093  52.592  1.00  0.00     0.285 C 
BRANCH  17  18
HETATM   18  N4  UNL     1      21.037   1.988  51.709  1.00  0.00     0.097 N 
HETATM   19  C21 UNL     1      19.896   1.160  51.483  1.00  0.00     0.299 C 
HETATM   20  C22 UNL     1      19.632   0.278  52.691  1.00  0.00     0.198 C 
HETATM   21  O2  UNL     1      20.800  -0.342  53.094  1.00  0.00    -0.387 OA
HETATM   22  C23 UNL     1      21.820  -0.285  52.181  1.00  0.00     0.203 C 
HETATM   23  C24 UNL     1      22.179   1.178  51.894  1.00  0.00     0.242 C 
HETATM   24  C25 UNL     1      23.152   1.611  52.937  1.00  0.00     0.045 C 
ENDBRANCH  17  18
ENDBRANCH  16  17
ENDBRANCH  15  16
ENDBRANCH  13  14
BRANCH   1  25
HETATM   25  O1  UNL     1      26.440   2.535  50.023  1.00  0.00    -0.341 OA
HETATM   26  C1  UNL     1      26.680   2.224  51.382  1.00  0.00     0.211 C 
ENDBRANCH   1  25
BRANCH   4  27
HETATM   27  C6  UNL     1      27.903   7.945  47.554  1.00  0.00    -0.045 A 
HETATM   28  C7  UNL     1      28.305   8.431  48.921  1.00  0.00     0.008 A 
HETATM   29  C8  UNL     1      29.215   9.485  49.204  1.00  0.00     0.004 A 
HETATM   30  C9  UNL     1      29.811  10.156  48.157  1.00  0.00     0.042 A 
HETATM   31  C10 UNL     1      29.520   9.801  46.826  1.00  0.00     0.117 A 
HETATM   32  F1  UNL     1      29.886  10.186  45.603  1.00  0.00    -0.206 F 
HETATM   33  C11 UNL     1      28.638   8.787  46.915  1.00  0.00     0.050 A 
ENDBRANCH   4  27
TORSDOF 6
ENDMDL
