MODEL 1
REMARK VINA RESULT:      -8.4      0.000      0.000
REMARK  8 active torsions:
REMARK  status: ('A' for Active; 'I' for Inactive)
REMARK    1  A    between atoms: N1_2  and  C2_3 
REMARK    2  A    between atoms: C4_5  and  N2_6 
REMARK    3  A    between atoms: C10_14  and  C11_15 
REMARK    4  A    between atoms: C11_15  and  N3_17 
REMARK    5  A    between atoms: N3_17  and  C13_18 
REMARK    6  A    between atoms: C13_18  and  C14_19 
REMARK    7  A    between atoms: C14_19  and  C15_20 
REMARK    8  A    between atoms: C16_21  and  N4_22 
ROOT
HETATM    1  C11 UNL     1      28.835   7.173  47.523  1.00  0.00     0.114 C 
HETATM    2  C12 UNL     1      28.154   8.395  46.942  1.00  0.00     0.037 C 
ENDROOT
BRANCH   1   3
HETATM    3  C10 UNL     1      30.227   7.415  47.942  1.00  0.00     0.018 A 
HETATM    4  C2  UNL     1      30.526   8.472  48.931  1.00  0.00     0.040 A 
HETATM    5  C3  UNL     1      31.818   8.132  48.812  1.00  0.00     0.060 A 
HETATM    6  C4  UNL     1      31.505   7.093  47.838  1.00  0.00     0.054 A 
BRANCH   4   7
HETATM    7  N1  UNL     1      30.137   9.534  49.828  1.00  0.00    -0.394 N 
HETATM    8  C1  UNL     1      30.588  10.842  49.325  1.00  0.00     0.146 C 
HETATM    9  H4  UNL     1      29.614   9.236  50.673  1.00  0.00     0.159 HD
ENDBRANCH   4   7
BRANCH   6  10
HETATM   10  N2  UNL     1      32.080   6.085  47.017  1.00  0.00    -0.288 N 
HETATM   11  C5  UNL     1      32.490   6.269  45.753  1.00  0.00     0.101 A 
HETATM   12  C6  UNL     1      33.045   5.282  44.968  1.00  0.00     0.020 A 
HETATM   13  C7  UNL     1      33.180   4.022  45.548  1.00  0.00     0.031 A 
HETATM   14  C8  UNL     1      32.767   3.807  46.845  1.00  0.00     0.102 A 
HETATM   15 CL1  UNL     1      32.988   2.181  47.447  1.00  0.00    -0.078 Cl
HETATM   16  C9  UNL     1      32.217   4.856  47.564  1.00  0.00     0.274 A 
HETATM   17  O1  UNL     1      31.859   4.579  48.757  1.00  0.00    -0.266 OA
ENDBRANCH   6  10
ENDBRANCH   1   3
BRANCH   1  18
HETATM   18  N3  UNL     1      28.003   6.710  48.628  1.00  0.00    -0.390 N 
HETATM   19  H13 UNL     1      28.289   6.835  49.632  1.00  0.00     0.159 HD
BRANCH  18  20
HETATM   20  C13 UNL     1      26.756   6.056  48.623  1.00  0.00     0.083 C 
BRANCH  20  21
HETATM   21  C14 UNL     1      26.559   4.888  49.051  1.00  0.00     0.015 C 
BRANCH  21  22
HETATM   22  C15 UNL     1      26.481   3.600  49.706  1.00  0.00     0.001 C 
HETATM   23  C16 UNL     1      26.563   2.728  50.670  1.00  0.00     0.129 C 
BRANCH  23  24
HETATM   24  N4  UNL     1      26.856   2.461  52.002  1.00  0.00    -0.388 N 
HETATM   25  C17 UNL     1      27.257   2.291  53.471  1.00  0.00     0.106 A 
HETATM   26  C18 UNL     1      28.689   1.928  53.685  1.00  0.00     0.057 C 
HETATM   27  C22 UNL     1      26.433   1.298  52.761  1.00  0.00     0.131 A 
HETATM   28  C19 UNL     1      28.881   0.539  54.213  1.00  0.00     0.274 C 
HETATM   29  N5  UNL     1      27.723  -0.307  53.992  1.00  0.00     0.086 N 
HETATM   30  C20 UNL     1      26.791  -0.096  55.062  1.00  0.00     0.310 C 
HETATM   31  C21 UNL     1      27.220   0.010  52.680  1.00  0.00     0.298 C 
ENDBRANCH  23  24
ENDBRANCH  21  22
ENDBRANCH  20  21
ENDBRANCH  18  20
ENDBRANCH   1  18
TORSDOF 8
ENDMDL
MODEL 2
REMARK VINA RESULT:      -8.2      3.777      9.046
REMARK  8 active torsions:
REMARK  status: ('A' for Active; 'I' for Inactive)
REMARK    1  A    between atoms: N1_2  and  C2_3 
REMARK    2  A    between atoms: C4_5  and  N2_6 
REMARK    3  A    between atoms: C10_14  and  C11_15 
REMARK    4  A    between atoms: C11_15  and  N3_17 
REMARK    5  A    between atoms: N3_17  and  C13_18 
REMARK    6  A    between atoms: C13_18  and  C14_19 
REMARK    7  A    between atoms: C14_19  and  C15_20 
REMARK    8  A    between atoms: C16_21  and  N4_22 
ROOT
HETATM    1  C11 UNL     1      25.204   4.030  50.138  1.00  0.00     0.114 C 
HETATM    2  C12 UNL     1      26.106   2.814  50.182  1.00  0.00     0.037 C 
ENDROOT
BRANCH   1   3
HETATM    3  C10 UNL     1      24.380   4.199  51.347  1.00  0.00     0.018 A 
HETATM    4  C2  UNL     1      24.109   5.554  51.871  1.00  0.00     0.040 A 
HETATM    5  C3  UNL     1      23.398   4.969  52.846  1.00  0.00     0.060 A 
HETATM    6  C4  UNL     1      23.673   3.639  52.314  1.00  0.00     0.054 A 
BRANCH   4   7
HETATM    7  N1  UNL     1      24.233   6.992  51.830  1.00  0.00    -0.394 N 
HETATM    8  C1  UNL     1      23.429   7.560  50.736  1.00  0.00     0.146 C 
HETATM    9  H4  UNL     1      24.851   7.407  52.553  1.00  0.00     0.159 HD
ENDBRANCH   4   7
BRANCH   6  10
HETATM   10  N2  UNL     1      23.436   2.253  52.522  1.00  0.00    -0.288 N 
HETATM   11  C5  UNL     1      22.349   1.591  52.099  1.00  0.00     0.101 A 
HETATM   12  C6  UNL     1      22.130   0.247  52.308  1.00  0.00     0.020 A 
HETATM   13  C7  UNL     1      23.119  -0.448  53.005  1.00  0.00     0.031 A 
HETATM   14  C8  UNL     1      24.245   0.210  53.450  1.00  0.00     0.102 A 
HETATM   15 CL1  UNL     1      25.402  -0.777  54.313  1.00  0.00    -0.078 Cl
HETATM   16  C9  UNL     1      24.384   1.565  53.197  1.00  0.00     0.274 A 
HETATM   17  O1  UNL     1      25.453   2.102  53.640  1.00  0.00    -0.266 OA
ENDBRANCH   6  10
ENDBRANCH   1   3
BRANCH   1  18
HETATM   18  N3  UNL     1      26.062   5.184  49.894  1.00  0.00    -0.390 N 
HETATM   19  H13 UNL     1      26.286   5.883  50.647  1.00  0.00     0.159 HD
BRANCH  18  20
HETATM   20  C13 UNL     1      26.725   5.601  48.722  1.00  0.00     0.083 C 
BRANCH  20  21
HETATM   21  C14 UNL     1      27.976   5.658  48.591  1.00  0.00     0.015 C 
BRANCH  21  22
HETATM   22  C15 UNL     1      29.371   5.863  48.267  1.00  0.00     0.001 C 
HETATM   23  C16 UNL     1      30.568   5.574  47.842  1.00  0.00     0.129 C 
BRANCH  23  24
HETATM   24  N4  UNL     1      31.437   4.633  47.303  1.00  0.00    -0.388 N 
HETATM   25  C17 UNL     1      32.312   3.492  46.772  1.00  0.00     0.106 A 
HETATM   26  C18 UNL     1      33.149   2.820  47.809  1.00  0.00     0.057 C 
HETATM   27  C22 UNL     1      32.618   4.908  46.505  1.00  0.00     0.131 A 
HETATM   28  C19 UNL     1      34.618   3.068  47.644  1.00  0.00     0.274 C 
HETATM   29  N5  UNL     1      34.898   4.232  46.823  1.00  0.00     0.086 N 
HETATM   30  C20 UNL     1      34.874   3.835  45.444  1.00  0.00     0.310 C 
HETATM   31  C21 UNL     1      33.931   5.236  47.180  1.00  0.00     0.298 C 
ENDBRANCH  23  24
ENDBRANCH  21  22
ENDBRANCH  20  21
ENDBRANCH  18  20
ENDBRANCH   1  18
TORSDOF 8
ENDMDL
MODEL 3
REMARK VINA RESULT:      -8.2      1.546      2.089
REMARK  8 active torsions:
REMARK  status: ('A' for Active; 'I' for Inactive)
REMARK    1  A    between atoms: N1_2  and  C2_3 
REMARK    2  A    between atoms: C4_5  and  N2_6 
REMARK    3  A    between atoms: C10_14  and  C11_15 
REMARK    4  A    between atoms: C11_15  and  N3_17 
REMARK    5  A    between atoms: N3_17  and  C13_18 
REMARK    6  A    between atoms: C13_18  and  C14_19 
REMARK    7  A    between atoms: C14_19  and  C15_20 
REMARK    8  A    between atoms: C16_21  and  N4_22 
ROOT
HETATM    1  C11 UNL     1      29.497   6.219  47.648  1.00  0.00     0.114 C 
HETATM    2  C12 UNL     1      28.764   7.400  47.048  1.00  0.00     0.037 C 
ENDROOT
BRANCH   1   3
HETATM    3  C10 UNL     1      30.829   6.557  48.180  1.00  0.00     0.018 A 
HETATM    4  C2  UNL     1      30.994   7.733  49.060  1.00  0.00     0.040 A 
HETATM    5  C3  UNL     1      32.299   7.427  49.121  1.00  0.00     0.060 A 
HETATM    6  C4  UNL     1      32.117   6.270  48.252  1.00  0.00     0.054 A 
BRANCH   4   7
HETATM    7  N1  UNL     1      30.486   8.879  49.776  1.00  0.00    -0.394 N 
HETATM    8  C1  UNL     1      30.882  10.133  49.114  1.00  0.00     0.146 C 
HETATM    9  H4  UNL     1      29.933   8.665  50.627  1.00  0.00     0.159 HD
ENDBRANCH   4   7
BRANCH   6  10
HETATM   10  N2  UNL     1      32.801   5.193  47.625  1.00  0.00    -0.288 N 
HETATM   11  C5  UNL     1      32.851   3.939  48.101  1.00  0.00     0.101 A 
HETATM   12  C6  UNL     1      33.518   2.903  47.484  1.00  0.00     0.020 A 
HETATM   13  C7  UNL     1      34.173   3.203  46.290  1.00  0.00     0.031 A 
HETATM   14  C8  UNL     1      34.137   4.483  45.782  1.00  0.00     0.102 A 
HETATM   15 CL1  UNL     1      35.005   4.723  44.283  1.00  0.00    -0.078 Cl
HETATM   16  C9  UNL     1      33.443   5.466  46.468  1.00  0.00     0.274 A 
HETATM   17  O1  UNL     1      33.456   6.625  45.934  1.00  0.00    -0.266 OA
ENDBRANCH   6  10
ENDBRANCH   1   3
BRANCH   1  18
HETATM   18  N3  UNL     1      28.625   5.656  48.673  1.00  0.00    -0.390 N 
HETATM   19  H13 UNL     1      28.984   5.385  49.624  1.00  0.00     0.159 HD
BRANCH  18  20
HETATM   20  C13 UNL     1      27.246   5.368  48.645  1.00  0.00     0.083 C 
BRANCH  20  21
HETATM   21  C14 UNL     1      26.698   4.432  49.285  1.00  0.00     0.015 C 
BRANCH  21  22
HETATM   22  C15 UNL     1      25.900   3.505  50.058  1.00  0.00     0.001 C 
HETATM   23  C16 UNL     1      25.637   2.485  50.824  1.00  0.00     0.129 C 
BRANCH  23  24
HETATM   24  N4  UNL     1      26.107   1.393  51.543  1.00  0.00    -0.388 N 
HETATM   25  C17 UNL     1      26.543   0.104  52.249  1.00  0.00     0.106 A 
HETATM   26  C18 UNL     1      25.491  -0.517  53.109  1.00  0.00     0.057 C 
HETATM   27  C22 UNL     1      27.026   1.431  52.667  1.00  0.00     0.131 A 
HETATM   28  C19 UNL     1      25.804  -0.454  54.573  1.00  0.00     0.274 C 
HETATM   29  N5  UNL     1      26.798   0.556  54.889  1.00  0.00     0.086 N 
HETATM   30  C20 UNL     1      28.102  -0.011  54.699  1.00  0.00     0.310 C 
HETATM   31  C21 UNL     1      26.508   1.698  54.062  1.00  0.00     0.298 C 
ENDBRANCH  23  24
ENDBRANCH  21  22
ENDBRANCH  20  21
ENDBRANCH  18  20
ENDBRANCH   1  18
TORSDOF 8
ENDMDL
MODEL 4
REMARK VINA RESULT:      -8.1      3.186      9.401
REMARK  8 active torsions:
REMARK  status: ('A' for Active; 'I' for Inactive)
REMARK    1  A    between atoms: N1_2  and  C2_3 
REMARK    2  A    between atoms: C4_5  and  N2_6 
REMARK    3  A    between atoms: C10_14  and  C11_15 
REMARK    4  A    between atoms: C11_15  and  N3_17 
REMARK    5  A    between atoms: N3_17  and  C13_18 
REMARK    6  A    between atoms: C13_18  and  C14_19 
REMARK    7  A    between atoms: C14_19  and  C15_20 
REMARK    8  A    between atoms: C16_21  and  N4_22 
ROOT
HETATM    1  C11 UNL     1      23.953   1.966  51.656  1.00  0.00     0.114 C 
HETATM    2  C12 UNL     1      22.714   1.700  50.827  1.00  0.00     0.037 C 
ENDROOT
BRANCH   1   3
HETATM    3  C10 UNL     1      24.199   0.951  52.696  1.00  0.00     0.018 A 
HETATM    4  C2  UNL     1      23.074   0.156  53.230  1.00  0.00     0.040 A 
HETATM    5  C3  UNL     1      23.965  -0.460  54.022  1.00  0.00     0.060 A 
HETATM    6  C4  UNL     1      25.064   0.334  53.483  1.00  0.00     0.054 A 
BRANCH   4   7
HETATM    7  N1  UNL     1      21.679  -0.213  53.289  1.00  0.00    -0.394 N 
HETATM    8  C1  UNL     1      21.164  -0.113  54.664  1.00  0.00     0.146 C 
HETATM    9  H4  UNL     1      21.252  -0.488  52.384  1.00  0.00     0.159 HD
ENDBRANCH   4   7
BRANCH   6  10
HETATM   10  N2  UNL     1      26.466   0.553  53.569  1.00  0.00    -0.288 N 
HETATM   11  C5  UNL     1      27.041   1.746  53.781  1.00  0.00     0.101 A 
HETATM   12  C6  UNL     1      28.402   1.946  53.863  1.00  0.00     0.020 A 
HETATM   13  C7  UNL     1      29.210   0.819  53.713  1.00  0.00     0.031 A 
HETATM   14  C8  UNL     1      28.643  -0.418  53.494  1.00  0.00     0.102 A 
HETATM   15 CL1  UNL     1      29.770  -1.743  53.319  1.00  0.00    -0.078 Cl
HETATM   16  C9  UNL     1      27.264  -0.529  53.425  1.00  0.00     0.274 A 
HETATM   17  O1  UNL     1      26.815  -1.705  53.220  1.00  0.00    -0.266 OA
ENDBRANCH   6  10
ENDBRANCH   1   3
BRANCH   1  18
HETATM   18  N3  UNL     1      25.070   2.077  50.724  1.00  0.00    -0.390 N 
HETATM   19  H13 UNL     1      25.120   1.507  49.842  1.00  0.00     0.159 HD
BRANCH  18  20
HETATM   20  C13 UNL     1      26.226   2.882  50.772  1.00  0.00     0.083 C 
BRANCH  20  21
HETATM   21  C14 UNL     1      26.604   3.644  49.844  1.00  0.00     0.015 C 
BRANCH  21  22
HETATM   22  C15 UNL     1      27.104   4.660  48.944  1.00  0.00     0.001 C 
HETATM   23  C16 UNL     1      27.976   5.422  48.346  1.00  0.00     0.129 C 
BRANCH  23  24
HETATM   24  N4  UNL     1      29.303   5.802  48.186  1.00  0.00    -0.388 N 
HETATM   25  C17 UNL     1      30.803   6.089  48.061  1.00  0.00     0.106 A 
HETATM   26  C18 UNL     1      31.507   6.287  49.362  1.00  0.00     0.057 C 
HETATM   27  C22 UNL     1      29.780   7.090  47.714  1.00  0.00     0.131 A 
HETATM   28  C19 UNL     1      31.983   7.692  49.576  1.00  0.00     0.274 C 
HETATM   29  N5  UNL     1      31.299   8.648  48.724  1.00  0.00     0.086 N 
HETATM   30  C20 UNL     1      31.961   8.684  47.452  1.00  0.00     0.310 C 
HETATM   31  C21 UNL     1      29.917   8.248  48.675  1.00  0.00     0.298 C 
ENDBRANCH  23  24
ENDBRANCH  21  22
ENDBRANCH  20  21
ENDBRANCH  18  20
ENDBRANCH   1  18
TORSDOF 8
ENDMDL
MODEL 5
REMARK VINA RESULT:      -8.0      3.220      9.271
REMARK  8 active torsions:
REMARK  status: ('A' for Active; 'I' for Inactive)
REMARK    1  A    between atoms: N1_2  and  C2_3 
REMARK    2  A    between atoms: C4_5  and  N2_6 
REMARK    3  A    between atoms: C10_14  and  C11_15 
REMARK    4  A    between atoms: C11_15  and  N3_17 
REMARK    5  A    between atoms: N3_17  and  C13_18 
REMARK    6  A    between atoms: C13_18  and  C14_19 
REMARK    7  A    between atoms: C14_19  and  C15_20 
REMARK    8  A    between atoms: C16_21  and  N4_22 
ROOT
HETATM    1  C11 UNL     1      24.181   2.389  51.754  1.00  0.00     0.114 C 
HETATM    2  C12 UNL     1      23.516   2.218  50.404  1.00  0.00     0.037 C 
ENDROOT
BRANCH   1   3
HETATM    3  C10 UNL     1      24.019   1.228  52.645  1.00  0.00     0.018 A 
HETATM    4  C2  UNL     1      22.679   0.874  53.159  1.00  0.00     0.040 A 
HETATM    5  C3  UNL     1      23.264  -0.145  53.807  1.00  0.00     0.060 A 
HETATM    6  C4  UNL     1      24.578   0.218  53.290  1.00  0.00     0.054 A 
BRANCH   4   7
HETATM    7  N1  UNL     1      21.254   1.080  53.272  1.00  0.00    -0.394 N 
HETATM    8  C1  UNL     1      20.512   0.058  52.517  1.00  0.00     0.146 C 
HETATM    9  H4  UNL     1      20.966   1.892  53.850  1.00  0.00     0.159 HD
ENDBRANCH   4   7
BRANCH   6  10
HETATM   10  N2  UNL     1      25.952  -0.147  53.302  1.00  0.00    -0.288 N 
HETATM   11  C5  UNL     1      26.447  -1.280  52.782  1.00  0.00     0.101 A 
HETATM   12  C6  UNL     1      27.782  -1.622  52.801  1.00  0.00     0.020 A 
HETATM   13  C7  UNL     1      28.652  -0.715  53.405  1.00  0.00     0.031 A 
HETATM   14  C8  UNL     1      28.168   0.456  53.947  1.00  0.00     0.102 A 
HETATM   15 CL1  UNL     1      29.365   1.500  54.677  1.00  0.00    -0.078 Cl
HETATM   16  C9  UNL     1      26.810   0.721  53.885  1.00  0.00     0.274 A 
HETATM   17  O1  UNL     1      26.438   1.823  54.408  1.00  0.00    -0.266 OA
ENDBRANCH   6  10
ENDBRANCH   1   3
BRANCH   1  18
HETATM   18  N3  UNL     1      25.584   2.692  51.498  1.00  0.00    -0.390 N 
HETATM   19  H13 UNL     1      26.261   2.901  52.276  1.00  0.00     0.159 HD
BRANCH  18  20
HETATM   20  C13 UNL     1      26.298   2.771  50.286  1.00  0.00     0.083 C 
BRANCH  20  21
HETATM   21  C14 UNL     1      26.743   3.838  49.786  1.00  0.00     0.015 C 
BRANCH  21  22
HETATM   22  C15 UNL     1      27.282   4.943  49.023  1.00  0.00     0.001 C 
HETATM   23  C16 UNL     1      28.162   5.639  48.361  1.00  0.00     0.129 C 
BRANCH  23  24
HETATM   24  N4  UNL     1      29.457   5.748  47.869  1.00  0.00    -0.388 N 
HETATM   25  C17 UNL     1      30.846   5.773  47.222  1.00  0.00     0.106 A 
HETATM   26  C18 UNL     1      31.647   4.529  47.425  1.00  0.00     0.057 C 
HETATM   27  C22 UNL     1      30.529   6.548  48.433  1.00  0.00     0.131 A 
HETATM   28  C19 UNL     1      32.840   4.725  48.310  1.00  0.00     0.274 C 
HETATM   29  N5  UNL     1      32.736   5.917  49.131  1.00  0.00     0.086 N 
HETATM   30  C20 UNL     1      33.197   7.040  48.367  1.00  0.00     0.310 C 
HETATM   31  C21 UNL     1      31.367   6.004  49.568  1.00  0.00     0.298 C 
ENDBRANCH  23  24
ENDBRANCH  21  22
ENDBRANCH  20  21
ENDBRANCH  18  20
ENDBRANCH   1  18
TORSDOF 8
ENDMDL
MODEL 6
REMARK VINA RESULT:      -8.0      3.131      4.800
REMARK  8 active torsions:
REMARK  status: ('A' for Active; 'I' for Inactive)
REMARK    1  A    between atoms: N1_2  and  C2_3 
REMARK    2  A    between atoms: C4_5  and  N2_6 
REMARK    3  A    between atoms: C10_14  and  C11_15 
REMARK    4  A    between atoms: C11_15  and  N3_17 
REMARK    5  A    between atoms: N3_17  and  C13_18 
REMARK    6  A    between atoms: C13_18  and  C14_19 
REMARK    7  A    between atoms: C14_19  and  C15_20 
REMARK    8  A    between atoms: C16_21  and  N4_22 
ROOT
HETATM    1  C11 UNL     1      29.619   7.633  48.465  1.00  0.00     0.114 C 
HETATM    2  C12 UNL     1      30.002   7.404  47.018  1.00  0.00     0.037 C 
ENDROOT
BRANCH   1   3
HETATM    3  C10 UNL     1      28.703   8.770  48.662  1.00  0.00     0.018 A 
HETATM    4  C2  UNL     1      29.228  10.064  49.144  1.00  0.00     0.040 A 
HETATM    5  C3  UNL     1      27.971  10.528  49.080  1.00  0.00     0.060 A 
HETATM    6  C4  UNL     1      27.470   9.244  48.604  1.00  0.00     0.054 A 
BRANCH   4   7
HETATM    7  N1  UNL     1      30.297  10.931  49.583  1.00  0.00    -0.394 N 
HETATM    8  C1  UNL     1      31.025  11.494  48.435  1.00  0.00     0.146 C 
HETATM    9  H4  UNL     1      30.397  11.029  50.611  1.00  0.00     0.159 HD
ENDBRANCH   4   7
BRANCH   6  10
HETATM   10  N2  UNL     1      26.295   8.554  48.200  1.00  0.00    -0.288 N 
HETATM   11  C5  UNL     1      25.739   8.639  46.982  1.00  0.00     0.101 A 
HETATM   12  C6  UNL     1      24.598   7.965  46.603  1.00  0.00     0.020 A 
HETATM   13  C7  UNL     1      24.005   7.148  47.564  1.00  0.00     0.031 A 
HETATM   14  C8  UNL     1      24.557   7.044  48.823  1.00  0.00     0.102 A 
HETATM   15 CL1  UNL     1      23.711   5.991  49.932  1.00  0.00    -0.078 Cl
HETATM   16  C9  UNL     1      25.706   7.758  49.120  1.00  0.00     0.274 A 
HETATM   17  O1  UNL     1      26.156   7.609  50.305  1.00  0.00    -0.266 OA
ENDBRANCH   6  10
ENDBRANCH   1   3
BRANCH   1  18
HETATM   18  N3  UNL     1      29.052   6.382  48.955  1.00  0.00    -0.390 N 
HETATM   19  H13 UNL     1      29.164   6.071  49.954  1.00  0.00     0.159 HD
BRANCH  18  20
HETATM   20  C13 UNL     1      28.301   5.393  48.289  1.00  0.00     0.083 C 
BRANCH  20  21
HETATM   21  C14 UNL     1      27.512   4.592  48.855  1.00  0.00     0.015 C 
BRANCH  21  22
HETATM   22  C15 UNL     1      26.611   3.816  49.679  1.00  0.00     0.001 C 
HETATM   23  C16 UNL     1      26.226   2.876  50.495  1.00  0.00     0.129 C 
BRANCH  23  24
HETATM   24  N4  UNL     1      26.558   1.763  51.258  1.00  0.00    -0.388 N 
HETATM   25  C17 UNL     1      26.858   0.454  51.997  1.00  0.00     0.106 A 
HETATM   26  C18 UNL     1      25.669  -0.183  52.636  1.00  0.00     0.057 C 
HETATM   27  C22 UNL     1      27.258   1.767  52.530  1.00  0.00     0.131 A 
HETATM   28  C19 UNL     1      25.711  -0.160  54.133  1.00  0.00     0.274 C 
HETATM   29  N5  UNL     1      26.631   0.836  54.650  1.00  0.00     0.086 N 
HETATM   30  C20 UNL     1      27.948   0.268  54.685  1.00  0.00     0.310 C 
HETATM   31  C21 UNL     1      26.497   2.001  53.815  1.00  0.00     0.298 C 
ENDBRANCH  23  24
ENDBRANCH  21  22
ENDBRANCH  20  21
ENDBRANCH  18  20
ENDBRANCH   1  18
TORSDOF 8
ENDMDL
MODEL 7
REMARK VINA RESULT:      -7.9      3.765      9.643
REMARK  8 active torsions:
REMARK  status: ('A' for Active; 'I' for Inactive)
REMARK    1  A    between atoms: N1_2  and  C2_3 
REMARK    2  A    between atoms: C4_5  and  N2_6 
REMARK    3  A    between atoms: C10_14  and  C11_15 
REMARK    4  A    between atoms: C11_15  and  N3_17 
REMARK    5  A    between atoms: N3_17  and  C13_18 
REMARK    6  A    between atoms: C13_18  and  C14_19 
REMARK    7  A    between atoms: C14_19  and  C15_20 
REMARK    8  A    between atoms: C16_21  and  N4_22 
ROOT
HETATM    1  C11 UNL     1      26.803   1.925  51.884  1.00  0.00     0.114 C 
HETATM    2  C12 UNL     1      27.845   2.124  52.965  1.00  0.00     0.037 C 
ENDROOT
BRANCH   1   3
HETATM    3  C10 UNL     1      25.513   1.424  52.391  1.00  0.00     0.018 A 
HETATM    4  C2  UNL     1      25.456   0.135  53.112  1.00  0.00     0.040 A 
HETATM    5  C3  UNL     1      24.135   0.334  53.236  1.00  0.00     0.060 A 
HETATM    6  C4  UNL     1      24.210   1.604  52.524  1.00  0.00     0.054 A 
BRANCH   4   7
HETATM    7  N1  UNL     1      26.062  -1.055  53.660  1.00  0.00    -0.394 N 
HETATM    8  C1  UNL     1      26.939  -1.705  52.672  1.00  0.00     0.146 C 
HETATM    9  H4  UNL     1      25.803  -1.276  54.640  1.00  0.00     0.159 HD
ENDBRANCH   4   7
BRANCH   6  10
HETATM   10  N2  UNL     1      23.436   2.701  52.058  1.00  0.00    -0.288 N 
HETATM   11  C5  UNL     1      23.393   3.909  52.639  1.00  0.00     0.101 A 
HETATM   12  C6  UNL     1      22.637   4.965  52.177  1.00  0.00     0.020 A 
HETATM   13  C7  UNL     1      21.878   4.737  51.030  1.00  0.00     0.031 A 
HETATM   14  C8  UNL     1      21.906   3.504  50.414  1.00  0.00     0.102 A 
HETATM   15 CL1  UNL     1      20.905   3.352  48.988  1.00  0.00    -0.078 Cl
HETATM   16  C9  UNL     1      22.694   2.497  50.946  1.00  0.00     0.274 A 
HETATM   17  O1  UNL     1      22.666   1.385  50.320  1.00  0.00    -0.266 OA
ENDBRANCH   6  10
ENDBRANCH   1   3
BRANCH   1  18
HETATM   18  N3  UNL     1      26.661   3.202  51.194  1.00  0.00    -0.390 N 
HETATM   19  H13 UNL     1      26.704   4.121  51.703  1.00  0.00     0.159 HD
BRANCH  18  20
HETATM   20  C13 UNL     1      26.453   3.487  49.829  1.00  0.00     0.083 C 
BRANCH  20  21
HETATM   21  C14 UNL     1      27.138   4.300  49.156  1.00  0.00     0.015 C 
BRANCH  21  22
HETATM   22  C15 UNL     1      28.106   5.120  48.459  1.00  0.00     0.001 C 
HETATM   23  C16 UNL     1      29.247   5.698  48.215  1.00  0.00     0.129 C 
BRANCH  23  24
HETATM   24  N4  UNL     1      30.566   5.921  48.594  1.00  0.00    -0.388 N 
HETATM   25  C17 UNL     1      31.969   6.272  49.100  1.00  0.00     0.106 A 
HETATM   26  C18 UNL     1      32.506   7.568  48.589  1.00  0.00     0.057 C 
HETATM   27  C22 UNL     1      31.736   5.221  48.095  1.00  0.00     0.131 A 
HETATM   28  C19 UNL     1      33.661   7.407  47.648  1.00  0.00     0.274 C 
HETATM   29  N5  UNL     1      33.739   6.072  47.084  1.00  0.00     0.086 N 
HETATM   30  C20 UNL     1      34.449   5.227  48.001  1.00  0.00     0.310 C 
HETATM   31  C21 UNL     1      32.388   5.659  46.803  1.00  0.00     0.298 C 
ENDBRANCH  23  24
ENDBRANCH  21  22
ENDBRANCH  20  21
ENDBRANCH  18  20
ENDBRANCH   1  18
TORSDOF 8
ENDMDL
MODEL 8
REMARK VINA RESULT:      -7.9      1.627      2.498
REMARK  8 active torsions:
REMARK  status: ('A' for Active; 'I' for Inactive)
REMARK    1  A    between atoms: N1_2  and  C2_3 
REMARK    2  A    between atoms: C4_5  and  N2_6 
REMARK    3  A    between atoms: C10_14  and  C11_15 
REMARK    4  A    between atoms: C11_15  and  N3_17 
REMARK    5  A    between atoms: N3_17  and  C13_18 
REMARK    6  A    between atoms: C13_18  and  C14_19 
REMARK    7  A    between atoms: C14_19  and  C15_20 
REMARK    8  A    between atoms: C16_21  and  N4_22 
ROOT
HETATM    1  C11 UNL     1      30.790   6.943  48.857  1.00  0.00     0.114 C 
HETATM    2  C12 UNL     1      31.552   6.245  49.963  1.00  0.00     0.037 C 
ENDROOT
BRANCH   1   3
HETATM    3  C10 UNL     1      31.355   6.715  47.515  1.00  0.00     0.018 A 
HETATM    4  C2  UNL     1      30.970   7.599  46.394  1.00  0.00     0.040 A 
HETATM    5  C3  UNL     1      31.778   6.862  45.617  1.00  0.00     0.060 A 
HETATM    6  C4  UNL     1      32.147   6.001  46.734  1.00  0.00     0.054 A 
BRANCH   4   7
HETATM    7  N1  UNL     1      30.245   8.713  45.831  1.00  0.00    -0.394 N 
HETATM    8  C1  UNL     1      29.575   9.493  46.884  1.00  0.00     0.146 C 
HETATM    9  H4  UNL     1      30.296   8.802  44.798  1.00  0.00     0.159 HD
ENDBRANCH   4   7
BRANCH   6  10
HETATM   10  N2  UNL     1      32.938   4.877  47.099  1.00  0.00    -0.288 N 
HETATM   11  C5  UNL     1      34.191   4.946  47.574  1.00  0.00     0.101 A 
HETATM   12  C6  UNL     1      34.948   3.849  47.924  1.00  0.00     0.020 A 
HETATM   13  C7  UNL     1      34.349   2.599  47.766  1.00  0.00     0.031 A 
HETATM   14  C8  UNL     1      33.063   2.503  47.281  1.00  0.00     0.102 A 
HETATM   15 CL1  UNL     1      32.436   0.878  47.129  1.00  0.00    -0.078 Cl
HETATM   16  C9  UNL     1      32.373   3.658  46.953  1.00  0.00     0.274 A 
HETATM   17  O1  UNL     1      31.189   3.486  46.510  1.00  0.00    -0.266 OA
ENDBRANCH   6  10
ENDBRANCH   1   3
BRANCH   1  18
HETATM   18  N3  UNL     1      29.405   6.496  48.950  1.00  0.00    -0.390 N 
HETATM   19  H13 UNL     1      28.720   6.935  49.617  1.00  0.00     0.159 HD
BRANCH  18  20
HETATM   20  C13 UNL     1      28.720   5.482  48.251  1.00  0.00     0.083 C 
BRANCH  20  21
HETATM   21  C14 UNL     1      27.810   4.765  48.743  1.00  0.00     0.015 C 
BRANCH  21  22
HETATM   22  C15 UNL     1      26.824   4.030  49.507  1.00  0.00     0.001 C 
HETATM   23  C16 UNL     1      26.346   3.106  50.290  1.00  0.00     0.129 C 
BRANCH  23  24
HETATM   24  N4  UNL     1      26.577   1.973  51.061  1.00  0.00    -0.388 N 
HETATM   25  C17 UNL     1      26.763   0.647  51.807  1.00  0.00     0.106 A 
HETATM   26  C18 UNL     1      25.512   0.091  52.403  1.00  0.00     0.057 C 
HETATM   27  C22 UNL     1      27.232   1.930  52.356  1.00  0.00     0.131 A 
HETATM   28  C19 UNL     1      25.505   0.110  53.901  1.00  0.00     0.274 C 
HETATM   29  N5  UNL     1      26.472   1.042  54.452  1.00  0.00     0.086 N 
HETATM   30  C20 UNL     1      27.746   0.387  54.529  1.00  0.00     0.310 C 
HETATM   31  C21 UNL     1      26.444   2.214  53.615  1.00  0.00     0.298 C 
ENDBRANCH  23  24
ENDBRANCH  21  22
ENDBRANCH  20  21
ENDBRANCH  18  20
ENDBRANCH   1  18
TORSDOF 8
ENDMDL
MODEL 9
REMARK VINA RESULT:      -7.9      3.980      9.760
REMARK  8 active torsions:
REMARK  status: ('A' for Active; 'I' for Inactive)
REMARK    1  A    between atoms: N1_2  and  C2_3 
REMARK    2  A    between atoms: C4_5  and  N2_6 
REMARK    3  A    between atoms: C10_14  and  C11_15 
REMARK    4  A    between atoms: C11_15  and  N3_17 
REMARK    5  A    between atoms: N3_17  and  C13_18 
REMARK    6  A    between atoms: C13_18  and  C14_19 
REMARK    7  A    between atoms: C14_19  and  C15_20 
REMARK    8  A    between atoms: C16_21  and  N4_22 
ROOT
HETATM    1  C11 UNL     1      23.915   1.962  52.277  1.00  0.00     0.114 C 
HETATM    2  C12 UNL     1      23.282   1.742  50.919  1.00  0.00     0.037 C 
ENDROOT
BRANCH   1   3
HETATM    3  C10 UNL     1      23.980   0.744  53.104  1.00  0.00     0.018 A 
HETATM    4  C2  UNL     1      22.743   0.180  53.682  1.00  0.00     0.040 A 
HETATM    5  C3  UNL     1      23.507  -0.779  54.226  1.00  0.00     0.060 A 
HETATM    6  C4  UNL     1      24.718  -0.210  53.646  1.00  0.00     0.054 A 
BRANCH   4   7
HETATM    7  N1  UNL     1      21.316   0.178  53.902  1.00  0.00    -0.394 N 
HETATM    8  C1  UNL     1      20.846  -1.157  54.306  1.00  0.00     0.146 C 
HETATM    9  H4  UNL     1      20.839   1.087  53.749  1.00  0.00     0.159 HD
ENDBRANCH   4   7
BRANCH   6  10
HETATM   10  N2  UNL     1      26.126  -0.378  53.545  1.00  0.00    -0.288 N 
HETATM   11  C5  UNL     1      26.731  -1.394  52.911  1.00  0.00     0.101 A 
HETATM   12  C6  UNL     1      28.098  -1.546  52.821  1.00  0.00     0.020 A 
HETATM   13  C7  UNL     1      28.879  -0.567  53.435  1.00  0.00     0.031 A 
HETATM   14  C8  UNL     1      28.280   0.486  54.093  1.00  0.00     0.102 A 
HETATM   15 CL1  UNL     1      29.375   1.637  54.823  1.00  0.00    -0.078 Cl
HETATM   16  C9  UNL     1      26.898   0.561  54.136  1.00  0.00     0.274 A 
HETATM   17  O1  UNL     1      26.420   1.564  54.763  1.00  0.00    -0.266 OA
ENDBRANCH   6  10
ENDBRANCH   1   3
BRANCH   1  18
HETATM   18  N3  UNL     1      25.236   2.534  52.041  1.00  0.00    -0.390 N 
HETATM   19  H13 UNL     1      25.660   3.247  52.687  1.00  0.00     0.159 HD
BRANCH  18  20
HETATM   20  C13 UNL     1      26.163   2.300  51.005  1.00  0.00     0.083 C 
BRANCH  20  21
HETATM   21  C14 UNL     1      26.494   3.149  50.137  1.00  0.00     0.015 C 
BRANCH  21  22
HETATM   22  C15 UNL     1      27.081   4.034  49.153  1.00  0.00     0.001 C 
HETATM   23  C16 UNL     1      27.449   5.157  48.605  1.00  0.00     0.129 C 
BRANCH  23  24
HETATM   24  N4  UNL     1      27.503   6.544  48.671  1.00  0.00    -0.388 N 
HETATM   25  C17 UNL     1      27.646   8.058  48.864  1.00  0.00     0.106 A 
HETATM   26  C18 UNL     1      26.876   8.611  50.018  1.00  0.00     0.057 C 
HETATM   27  C22 UNL     1      26.851   7.476  47.769  1.00  0.00     0.131 A 
HETATM   28  C19 UNL     1      25.735   9.490  49.607  1.00  0.00     0.274 C 
HETATM   29  N5  UNL     1      25.334   9.277  48.229  1.00  0.00     0.086 N 
HETATM   30  C20 UNL     1      26.171  10.075  47.380  1.00  0.00     0.310 C 
HETATM   31  C21 UNL     1      25.405   7.859  47.989  1.00  0.00     0.298 C 
ENDBRANCH  23  24
ENDBRANCH  21  22
ENDBRANCH  20  21
ENDBRANCH  18  20
ENDBRANCH   1  18
TORSDOF 8
ENDMDL
