MODEL 1
REMARK VINA RESULT:      -8.9      0.000      0.000
REMARK  6 active torsions:
REMARK  status: ('A' for Active; 'I' for Inactive)
REMARK    1  A    between atoms: N1_3  and  C3_4 
REMARK    2  A    between atoms: C4_5  and  C5_6 
REMARK    3  A    between atoms: C5_6  and  C6_7 
REMARK    4  A    between atoms: C9_11  and  N3_12 
REMARK    5  A    between atoms: N3_12  and  C10_13 
REMARK    6  A    between atoms: C16_19  and  O1_20 
ROOT
HETATM    1  C10 UNL     1      26.066   2.802  50.529  1.00  0.00     0.033 A 
HETATM    2  C11 UNL     1      24.751   2.702  50.793  1.00  0.00     0.055 A 
HETATM    3  C12 UNL     1      24.680   2.353  52.208  1.00  0.00     0.039 A 
HETATM    4  C13 UNL     1      25.888   2.249  52.766  1.00  0.00    -0.041 A 
HETATM    5  C14 UNL     1      26.893   2.529  51.728  1.00  0.00     0.094 A 
HETATM    6  C15 UNL     1      25.685   1.913  54.170  1.00  0.00     0.101 C 
HETATM    7  C16 UNL     1      26.286   0.640  54.648  1.00  0.00     0.049 C 
HETATM    8  C18 UNL     1      25.625  -0.518  54.862  1.00  0.00     0.032 C 
HETATM    9  C19 UNL     1      24.319  -1.164  54.792  1.00  0.00    -0.001 C 
HETATM   10  C20 UNL     1      23.050  -0.976  54.436  1.00  0.00    -0.017 C 
HETATM   11  C21 UNL     1      21.958  -0.113  53.863  1.00  0.00     0.130 C 
HETATM   12  C22 UNL     1      22.672   1.062  53.287  1.00  0.00     0.225 C 
HETATM   13  O2  UNL     1      23.582   0.224  53.186  1.00  0.00    -0.273 OA
HETATM   14  N4  UNL     1      23.351   2.178  52.740  1.00  0.00    -0.327 N 
HETATM   15  H25 UNL     1      22.572   2.831  52.836  1.00  0.00     0.169 HD
ENDROOT
BRANCH   1  16
HETATM   16  N3  UNL     1      26.756   3.119  49.316  1.00  0.00    -0.192 N 
HETATM   17  H11 UNL     1      27.007   2.306  48.718  1.00  0.00     0.184 HD
BRANCH  16  18
HETATM   18  C9  UNL     1      27.075   4.446  48.957  1.00  0.00     0.726 A 
HETATM   19  N2  UNL     1      26.140   5.405  48.996  1.00  0.00    -0.075 NA
HETATM   20  C8  UNL     1      26.401   6.693  48.661  1.00  0.00     0.138 A 
HETATM   21  C7  UNL     1      27.707   6.932  48.279  1.00  0.00     0.048 A 
HETATM   22  C6  UNL     1      28.702   5.962  48.227  1.00  0.00     0.058 A 
HETATM   23  N5  UNL     1      28.321   4.732  48.580  1.00  0.00    -0.067 NA
BRANCH  22  24
HETATM   24  C5  UNL     1      30.059   6.340  47.802  1.00  0.00     0.088 C 
BRANCH  24  25
HETATM   25  C4  UNL     1      30.996   5.191  47.836  1.00  0.00    -0.002 C 
HETATM   26  C3  UNL     1      32.124   5.113  47.139  1.00  0.00     0.112 C 
BRANCH  26  27
HETATM   27  N1  UNL     1      33.270   4.328  46.831  1.00  0.00    -0.278 NA
HETATM   28  C2  UNL     1      33.877   4.542  45.694  1.00  0.00     0.085 C 
HETATM   29  C1  UNL     1      35.043   3.608  45.589  1.00  0.00     0.057 C 
ENDBRANCH  26  27
ENDBRANCH  24  25
ENDBRANCH  22  24
ENDBRANCH  16  18
ENDBRANCH   1  16
BRANCH   7  30
HETATM   30  O1  UNL     1      27.644   0.689  54.880  1.00  0.00    -0.360 OA
HETATM   31  C17 UNL     1      28.561  -0.077  54.134  1.00  0.00     0.209 C 
ENDBRANCH   7  30
TORSDOF 6
ENDMDL
MODEL 2
REMARK VINA RESULT:      -8.5      2.562      4.483
REMARK  6 active torsions:
REMARK  status: ('A' for Active; 'I' for Inactive)
REMARK    1  A    between atoms: N1_3  and  C3_4 
REMARK    2  A    between atoms: C4_5  and  C5_6 
REMARK    3  A    between atoms: C5_6  and  C6_7 
REMARK    4  A    between atoms: C9_11  and  N3_12 
REMARK    5  A    between atoms: N3_12  and  C10_13 
REMARK    6  A    between atoms: C16_19  and  O1_20 
ROOT
HETATM    1  C10 UNL     1      23.705   4.159  52.373  1.00  0.00     0.033 A 
HETATM    2  C11 UNL     1      24.261   3.142  53.053  1.00  0.00     0.055 A 
HETATM    3  C12 UNL     1      23.577   1.949  52.566  1.00  0.00     0.039 A 
HETATM    4  C13 UNL     1      22.658   2.233  51.640  1.00  0.00    -0.041 A 
HETATM    5  C14 UNL     1      22.658   3.691  51.435  1.00  0.00     0.094 A 
HETATM    6  C15 UNL     1      22.059   0.970  51.226  1.00  0.00     0.101 C 
HETATM    7  C16 UNL     1      20.593   0.828  51.422  1.00  0.00     0.049 C 
HETATM    8  C18 UNL     1      19.988   0.137  52.413  1.00  0.00     0.032 C 
HETATM    9  C19 UNL     1      20.224  -0.670  53.606  1.00  0.00    -0.001 C 
HETATM   10  C20 UNL     1      21.176  -1.142  54.407  1.00  0.00    -0.017 C 
HETATM   11  C21 UNL     1      22.625  -1.265  54.800  1.00  0.00     0.130 C 
HETATM   12  C22 UNL     1      23.328  -0.256  53.959  1.00  0.00     0.225 C 
HETATM   13  O2  UNL     1      22.215   0.290  54.011  1.00  0.00    -0.273 OA
HETATM   14  N4  UNL     1      23.997   0.704  53.159  1.00  0.00    -0.327 N 
HETATM   15  H25 UNL     1      24.897   0.222  53.150  1.00  0.00     0.169 HD
ENDROOT
BRANCH   1  16
HETATM   16  N3  UNL     1      23.961   5.566  52.417  1.00  0.00    -0.192 N 
HETATM   17  H11 UNL     1      24.134   5.961  53.364  1.00  0.00     0.184 HD
BRANCH  16  18
HETATM   18  C9  UNL     1      23.977   6.365  51.254  1.00  0.00     0.726 A 
HETATM   19  N2  UNL     1      22.998   7.250  51.021  1.00  0.00    -0.075 NA
HETATM   20  C8  UNL     1      22.973   8.038  49.918  1.00  0.00     0.138 A 
HETATM   21  C7  UNL     1      24.037   7.853  49.058  1.00  0.00     0.048 A 
HETATM   22  C6  UNL     1      25.070   6.945  49.267  1.00  0.00     0.058 A 
HETATM   23  N5  UNL     1      24.982   6.227  50.389  1.00  0.00    -0.067 NA
BRANCH  22  24
HETATM   24  C5  UNL     1      26.151   6.839  48.275  1.00  0.00     0.088 C 
BRANCH  24  25
HETATM   25  C4  UNL     1      27.185   5.855  48.677  1.00  0.00    -0.002 C 
HETATM   26  C3  UNL     1      28.424   5.820  48.200  1.00  0.00     0.112 C 
BRANCH  26  27
HETATM   27  N1  UNL     1      29.685   5.162  48.238  1.00  0.00    -0.278 NA
HETATM   28  C2  UNL     1      30.764   5.891  48.120  1.00  0.00     0.085 C 
HETATM   29  C1  UNL     1      31.960   4.992  48.187  1.00  0.00     0.057 C 
ENDBRANCH  26  27
ENDBRANCH  24  25
ENDBRANCH  22  24
ENDBRANCH  16  18
ENDBRANCH   1  16
BRANCH   7  30
HETATM   30  O1  UNL     1      19.815   1.476  50.487  1.00  0.00    -0.360 OA
HETATM   31  C17 UNL     1      20.222   1.627  49.147  1.00  0.00     0.209 C 
ENDBRANCH   7  30
TORSDOF 6
ENDMDL
MODEL 3
REMARK VINA RESULT:      -8.4      3.879      8.682
REMARK  6 active torsions:
REMARK  status: ('A' for Active; 'I' for Inactive)
REMARK    1  A    between atoms: N1_3  and  C3_4 
REMARK    2  A    between atoms: C4_5  and  C5_6 
REMARK    3  A    between atoms: C5_6  and  C6_7 
REMARK    4  A    between atoms: C9_11  and  N3_12 
REMARK    5  A    between atoms: N3_12  and  C10_13 
REMARK    6  A    between atoms: C16_19  and  O1_20 
ROOT
HETATM    1  C10 UNL     1      22.864   2.317  51.079  1.00  0.00     0.033 A 
HETATM    2  C11 UNL     1      24.167   2.461  50.779  1.00  0.00     0.055 A 
HETATM    3  C12 UNL     1      24.423   3.892  50.906  1.00  0.00     0.039 A 
HETATM    4  C13 UNL     1      23.332   4.573  51.265  1.00  0.00    -0.041 A 
HETATM    5  C14 UNL     1      22.225   3.613  51.407  1.00  0.00     0.094 A 
HETATM    6  C15 UNL     1      23.715   5.975  51.372  1.00  0.00     0.101 C 
HETATM    7  C16 UNL     1      22.995   6.935  50.496  1.00  0.00     0.049 C 
HETATM    8  C18 UNL     1      23.470   7.479  49.355  1.00  0.00     0.032 C 
HETATM    9  C19 UNL     1      24.612   7.511  48.446  1.00  0.00    -0.001 C 
HETATM   10  C20 UNL     1      25.811   6.982  48.217  1.00  0.00    -0.017 C 
HETATM   11  C21 UNL     1      26.920   6.028  48.576  1.00  0.00     0.130 C 
HETATM   12  C22 UNL     1      26.332   5.148  49.625  1.00  0.00     0.225 C 
HETATM   13  O2  UNL     1      25.286   5.448  49.027  1.00  0.00    -0.273 OA
HETATM   14  N4  UNL     1      25.773   4.311  50.622  1.00  0.00    -0.327 N 
HETATM   15  H25 UNL     1      26.658   4.086  51.078  1.00  0.00     0.169 HD
ENDROOT
BRANCH   1  16
HETATM   16  N3  UNL     1      22.038   1.149  51.126  1.00  0.00    -0.192 N 
HETATM   17  H11 UNL     1      21.549   0.910  50.241  1.00  0.00     0.184 HD
BRANCH  16  18
HETATM   18  C9  UNL     1      21.897   0.375  52.298  1.00  0.00     0.726 A 
HETATM   19  N2  UNL     1      20.686  -0.021  52.711  1.00  0.00    -0.075 NA
HETATM   20  C8  UNL     1      20.504  -0.765  53.830  1.00  0.00     0.138 A 
HETATM   21  C7  UNL     1      21.667  -1.082  54.504  1.00  0.00     0.048 A 
HETATM   22  C6  UNL     1      22.940  -0.688  54.104  1.00  0.00     0.058 A 
HETATM   23  N5  UNL     1      22.989   0.043  52.987  1.00  0.00    -0.067 NA
BRANCH  22  24
HETATM   24  C5  UNL     1      24.106  -1.087  54.908  1.00  0.00     0.088 C 
BRANCH  24  25
HETATM   25  C4  UNL     1      25.386  -0.687  54.274  1.00  0.00    -0.002 C 
HETATM   26  C3  UNL     1      26.195   0.260  54.735  1.00  0.00     0.112 C 
BRANCH  26  27
HETATM   27  N1  UNL     1      27.413   0.969  54.541  1.00  0.00    -0.278 NA
HETATM   28  C2  UNL     1      27.432   1.929  53.654  1.00  0.00     0.085 C 
HETATM   29  C1  UNL     1      28.806   2.526  53.623  1.00  0.00     0.057 C 
ENDBRANCH  26  27
ENDBRANCH  24  25
ENDBRANCH  22  24
ENDBRANCH  16  18
ENDBRANCH   1  16
BRANCH   7  30
HETATM   30  O1  UNL     1      21.729   7.274  50.922  1.00  0.00    -0.360 OA
HETATM   31  C17 UNL     1      20.876   8.096  50.160  1.00  0.00     0.209 C 
ENDBRANCH   7  30
TORSDOF 6
ENDMDL
MODEL 4
REMARK VINA RESULT:      -8.4      2.153      4.235
REMARK  6 active torsions:
REMARK  status: ('A' for Active; 'I' for Inactive)
REMARK    1  A    between atoms: N1_3  and  C3_4 
REMARK    2  A    between atoms: C4_5  and  C5_6 
REMARK    3  A    between atoms: C5_6  and  C6_7 
REMARK    4  A    between atoms: C9_11  and  N3_12 
REMARK    5  A    between atoms: N3_12  and  C10_13 
REMARK    6  A    between atoms: C16_19  and  O1_20 
ROOT
HETATM    1  C10 UNL     1      26.149   2.913  50.393  1.00  0.00     0.033 A 
HETATM    2  C11 UNL     1      24.835   2.805  50.652  1.00  0.00     0.055 A 
HETATM    3  C12 UNL     1      24.761   2.460  52.068  1.00  0.00     0.039 A 
HETATM    4  C13 UNL     1      25.968   2.366  52.631  1.00  0.00    -0.041 A 
HETATM    5  C14 UNL     1      26.974   2.650  51.594  1.00  0.00     0.094 A 
HETATM    6  C15 UNL     1      25.763   2.034  54.035  1.00  0.00     0.101 C 
HETATM    7  C16 UNL     1      26.371   0.767  54.519  1.00  0.00     0.049 C 
HETATM    8  C18 UNL     1      25.718  -0.395  54.735  1.00  0.00     0.032 C 
HETATM    9  C19 UNL     1      24.416  -1.051  54.664  1.00  0.00    -0.001 C 
HETATM   10  C20 UNL     1      23.147  -0.872  54.303  1.00  0.00    -0.017 C 
HETATM   11  C21 UNL     1      22.051  -0.019  53.723  1.00  0.00     0.130 C 
HETATM   12  C22 UNL     1      22.759   1.159  53.146  1.00  0.00     0.225 C 
HETATM   13  O2  UNL     1      23.675   0.327  53.050  1.00  0.00    -0.273 OA
HETATM   14  N4  UNL     1      23.432   2.278  52.597  1.00  0.00    -0.327 N 
HETATM   15  H25 UNL     1      22.648   2.926  52.688  1.00  0.00     0.169 HD
ENDROOT
BRANCH   1  16
HETATM   16  N3  UNL     1      26.841   3.230  49.181  1.00  0.00    -0.192 N 
HETATM   17  H11 UNL     1      27.037   2.425  48.553  1.00  0.00     0.184 HD
BRANCH  16  18
HETATM   18  C9  UNL     1      27.231   4.548  48.861  1.00  0.00     0.726 A 
HETATM   19  N2  UNL     1      28.506   4.827  48.559  1.00  0.00    -0.075 NA
HETATM   20  C8  UNL     1      28.925   6.078  48.245  1.00  0.00     0.138 A 
HETATM   21  C7  UNL     1      27.931   7.036  48.260  1.00  0.00     0.048 A 
HETATM   22  C6  UNL     1      26.598   6.783  48.568  1.00  0.00     0.058 A 
HETATM   23  N5  UNL     1      26.310   5.512  48.861  1.00  0.00    -0.067 NA
BRANCH  22  24
HETATM   24  C5  UNL     1      25.629   7.890  48.551  1.00  0.00     0.088 C 
BRANCH  24  25
HETATM   25  C4  UNL     1      26.174   9.119  49.179  1.00  0.00    -0.002 C 
HETATM   26  C3  UNL     1      26.193  10.317  48.606  1.00  0.00     0.112 C 
BRANCH  26  27
HETATM   27  N1  UNL     1      26.556  11.686  48.743  1.00  0.00    -0.278 NA
HETATM   28  C2  UNL     1      27.452  12.171  47.925  1.00  0.00     0.085 C 
HETATM   29  C1  UNL     1      27.672  13.615  48.255  1.00  0.00     0.057 C 
ENDBRANCH  26  27
ENDBRANCH  24  25
ENDBRANCH  22  24
ENDBRANCH  16  18
ENDBRANCH   1  16
BRANCH   7  30
HETATM   30  O1  UNL     1      27.728   0.826  54.756  1.00  0.00    -0.360 OA
HETATM   31  C17 UNL     1      28.659   0.130  53.961  1.00  0.00     0.209 C 
ENDBRANCH   7  30
TORSDOF 6
ENDMDL
MODEL 5
REMARK VINA RESULT:      -8.4      3.563      5.482
REMARK  6 active torsions:
REMARK  status: ('A' for Active; 'I' for Inactive)
REMARK    1  A    between atoms: N1_3  and  C3_4 
REMARK    2  A    between atoms: C4_5  and  C5_6 
REMARK    3  A    between atoms: C5_6  and  C6_7 
REMARK    4  A    between atoms: C9_11  and  N3_12 
REMARK    5  A    between atoms: N3_12  and  C10_13 
REMARK    6  A    between atoms: C16_19  and  O1_20 
ROOT
HETATM    1  C10 UNL     1      23.041   4.203  52.158  1.00  0.00     0.033 A 
HETATM    2  C11 UNL     1      23.728   3.241  52.797  1.00  0.00     0.055 A 
HETATM    3  C12 UNL     1      23.105   1.993  52.371  1.00  0.00     0.039 A 
HETATM    4  C13 UNL     1      22.096   2.192  51.520  1.00  0.00    -0.041 A 
HETATM    5  C14 UNL     1      21.964   3.643  51.308  1.00  0.00     0.094 A 
HETATM    6  C15 UNL     1      21.570   0.882  51.160  1.00  0.00     0.101 C 
HETATM    7  C16 UNL     1      20.140   0.626  51.473  1.00  0.00     0.049 C 
HETATM    8  C18 UNL     1      19.673  -0.100  52.512  1.00  0.00     0.032 C 
HETATM    9  C19 UNL     1      20.065  -0.873  53.686  1.00  0.00    -0.001 C 
HETATM   10  C20 UNL     1      21.112  -1.259  54.411  1.00  0.00    -0.017 C 
HETATM   11  C21 UNL     1      22.593  -1.262  54.688  1.00  0.00     0.130 C 
HETATM   12  C22 UNL     1      23.145  -0.210  53.789  1.00  0.00     0.225 C 
HETATM   13  O2  UNL     1      21.998   0.246  53.928  1.00  0.00    -0.273 OA
HETATM   14  N4  UNL     1      23.669   0.791  52.935  1.00  0.00    -0.327 N 
HETATM   15  H25 UNL     1      24.601   0.383  52.856  1.00  0.00     0.169 HD
ENDROOT
BRANCH   1  16
HETATM   16  N3  UNL     1      23.186   5.627  52.176  1.00  0.00    -0.192 N 
HETATM   17  H11 UNL     1      22.669   6.121  52.930  1.00  0.00     0.184 HD
BRANCH  16  18
HETATM   18  C9  UNL     1      23.979   6.314  51.231  1.00  0.00     0.726 A 
HETATM   19  N2  UNL     1      23.912   7.647  51.126  1.00  0.00    -0.075 NA
HETATM   20  C8  UNL     1      24.655   8.348  50.234  1.00  0.00     0.138 A 
HETATM   21  C7  UNL     1      25.486   7.574  49.447  1.00  0.00     0.048 A 
HETATM   22  C6  UNL     1      25.581   6.189  49.529  1.00  0.00     0.058 A 
HETATM   23  N5  UNL     1      24.798   5.614  50.446  1.00  0.00    -0.067 NA
BRANCH  22  24
HETATM   24  C5  UNL     1      26.505   5.474  48.634  1.00  0.00     0.088 C 
BRANCH  24  25
HETATM   25  C4  UNL     1      27.178   4.340  49.314  1.00  0.00    -0.002 C 
HETATM   26  C3  UNL     1      26.552   3.382  49.988  1.00  0.00     0.112 C 
BRANCH  26  27
HETATM   27  N1  UNL     1      26.694   2.189  50.750  1.00  0.00    -0.278 NA
HETATM   28  C2  UNL     1      27.128   2.290  51.978  1.00  0.00     0.085 C 
HETATM   29  C1  UNL     1      27.196   0.919  52.577  1.00  0.00     0.057 C 
ENDBRANCH  26  27
ENDBRANCH  24  25
ENDBRANCH  22  24
ENDBRANCH  16  18
ENDBRANCH   1  16
BRANCH   7  30
HETATM   30  O1  UNL     1      19.242   1.199  50.599  1.00  0.00    -0.360 OA
HETATM   31  C17 UNL     1      18.146   1.963  51.045  1.00  0.00     0.209 C 
ENDBRANCH   7  30
TORSDOF 6
ENDMDL
MODEL 6
REMARK VINA RESULT:      -8.3      1.857      2.328
REMARK  6 active torsions:
REMARK  status: ('A' for Active; 'I' for Inactive)
REMARK    1  A    between atoms: N1_3  and  C3_4 
REMARK    2  A    between atoms: C4_5  and  C5_6 
REMARK    3  A    between atoms: C5_6  and  C6_7 
REMARK    4  A    between atoms: C9_11  and  N3_12 
REMARK    5  A    between atoms: N3_12  and  C10_13 
REMARK    6  A    between atoms: C16_19  and  O1_20 
ROOT
HETATM    1  C10 UNL     1      26.088   2.971  50.358  1.00  0.00     0.033 A 
HETATM    2  C11 UNL     1      24.783   3.055  50.672  1.00  0.00     0.055 A 
HETATM    3  C12 UNL     1      24.704   2.602  52.057  1.00  0.00     0.039 A 
HETATM    4  C13 UNL     1      25.897   2.263  52.550  1.00  0.00    -0.041 A 
HETATM    5  C14 UNL     1      26.899   2.471  51.492  1.00  0.00     0.094 A 
HETATM    6  C15 UNL     1      25.689   1.844  53.931  1.00  0.00     0.101 C 
HETATM    7  C16 UNL     1      26.095   0.458  54.278  1.00  0.00     0.049 C 
HETATM    8  C18 UNL     1      25.266  -0.598  54.430  1.00  0.00     0.032 C 
HETATM    9  C19 UNL     1      23.872  -1.024  54.369  1.00  0.00    -0.001 C 
HETATM   10  C20 UNL     1      22.638  -0.610  54.087  1.00  0.00    -0.017 C 
HETATM   11  C21 UNL     1      21.679   0.458  53.634  1.00  0.00     0.130 C 
HETATM   12  C22 UNL     1      22.552   1.552  53.121  1.00  0.00     0.225 C 
HETATM   13  O2  UNL     1      23.313   0.594  52.913  1.00  0.00    -0.273 OA
HETATM   14  N4  UNL     1      23.382   2.591  52.634  1.00  0.00    -0.327 N 
HETATM   15  H25 UNL     1      22.720   3.347  52.816  1.00  0.00     0.169 HD
ENDROOT
BRANCH   1  16
HETATM   16  N3  UNL     1      26.780   3.279  49.144  1.00  0.00    -0.192 N 
HETATM   17  H11 UNL     1      26.904   2.484  48.485  1.00  0.00     0.184 HD
BRANCH  16  18
HETATM   18  C9  UNL     1      27.262   4.575  48.861  1.00  0.00     0.726 A 
HETATM   19  N2  UNL     1      26.454   5.639  48.960  1.00  0.00    -0.075 NA
HETATM   20  C8  UNL     1      26.875   6.901  48.699  1.00  0.00     0.138 A 
HETATM   21  C7  UNL     1      28.201   6.998  48.326  1.00  0.00     0.048 A 
HETATM   22  C6  UNL     1      29.068   5.916  48.213  1.00  0.00     0.058 A 
HETATM   23  N5  UNL     1      28.535   4.724  48.495  1.00  0.00    -0.067 NA
BRANCH  22  24
HETATM   24  C5  UNL     1      30.463   6.147  47.804  1.00  0.00     0.088 C 
BRANCH  24  25
HETATM   25  C4  UNL     1      30.689   7.542  47.353  1.00  0.00    -0.002 C 
HETATM   26  C3  UNL     1      31.746   8.279  47.676  1.00  0.00     0.112 C 
BRANCH  26  27
HETATM   27  N1  UNL     1      32.394   9.538  47.534  1.00  0.00    -0.278 NA
HETATM   28  C2  UNL     1      32.008  10.324  46.565  1.00  0.00     0.085 C 
HETATM   29  C1  UNL     1      32.823  11.579  46.611  1.00  0.00     0.057 C 
ENDBRANCH  26  27
ENDBRANCH  24  25
ENDBRANCH  22  24
ENDBRANCH  16  18
ENDBRANCH   1  16
BRANCH   7  30
HETATM   30  O1  UNL     1      27.450   0.274  54.452  1.00  0.00    -0.360 OA
HETATM   31  C17 UNL     1      28.211  -0.549  53.600  1.00  0.00     0.209 C 
ENDBRANCH   7  30
TORSDOF 6
ENDMDL
MODEL 7
REMARK VINA RESULT:      -8.0      3.563      8.803
REMARK  6 active torsions:
REMARK  status: ('A' for Active; 'I' for Inactive)
REMARK    1  A    between atoms: N1_3  and  C3_4 
REMARK    2  A    between atoms: C4_5  and  C5_6 
REMARK    3  A    between atoms: C5_6  and  C6_7 
REMARK    4  A    between atoms: C9_11  and  N3_12 
REMARK    5  A    between atoms: N3_12  and  C10_13 
REMARK    6  A    between atoms: C16_19  and  O1_20 
ROOT
HETATM    1  C10 UNL     1      25.647   6.556  50.035  1.00  0.00     0.033 A 
HETATM    2  C11 UNL     1      25.846   7.867  49.818  1.00  0.00     0.055 A 
HETATM    3  C12 UNL     1      26.983   7.926  48.906  1.00  0.00     0.039 A 
HETATM    4  C13 UNL     1      27.444   6.713  48.590  1.00  0.00    -0.041 A 
HETATM    5  C14 UNL     1      26.619   5.718  49.296  1.00  0.00     0.094 A 
HETATM    6  C15 UNL     1      28.560   6.902  47.672  1.00  0.00     0.101 C 
HETATM    7  C16 UNL     1      29.877   6.363  48.099  1.00  0.00     0.049 C 
HETATM    8  C18 UNL     1      30.905   7.083  48.599  1.00  0.00     0.032 C 
HETATM    9  C19 UNL     1      31.334   8.425  48.978  1.00  0.00    -0.001 C 
HETATM   10  C20 UNL     1      30.929   9.689  49.078  1.00  0.00    -0.017 C 
HETATM   11  C21 UNL     1      29.862  10.744  48.950  1.00  0.00     0.130 C 
HETATM   12  C22 UNL     1      28.602   9.977  48.730  1.00  0.00     0.225 C 
HETATM   13  O2  UNL     1      29.233   9.119  49.367  1.00  0.00    -0.273 OA
HETATM   14  N4  UNL     1      27.406   9.249  48.520  1.00  0.00    -0.327 N 
HETATM   15  H25 UNL     1      26.923   9.988  48.006  1.00  0.00     0.169 HD
ENDROOT
BRANCH   1  16
HETATM   16  N3  UNL     1      24.677   5.877  50.840  1.00  0.00    -0.192 N 
HETATM   17  H11 UNL     1      24.385   6.375  51.704  1.00  0.00     0.184 HD
BRANCH  16  18
HETATM   18  C9  UNL     1      24.155   4.615  50.483  1.00  0.00     0.726 A 
HETATM   19  N2  UNL     1      23.529   4.444  49.311  1.00  0.00    -0.075 NA
HETATM   20  C8  UNL     1      23.014   3.250  48.927  1.00  0.00     0.138 A 
HETATM   21  C7  UNL     1      23.188   2.229  49.841  1.00  0.00     0.048 A 
HETATM   22  C6  UNL     1      23.831   2.372  51.066  1.00  0.00     0.058 A 
HETATM   23  N5  UNL     1      24.295   3.595  51.330  1.00  0.00    -0.067 NA
BRANCH  22  24
HETATM   24  C5  UNL     1      23.954   1.207  51.957  1.00  0.00     0.088 C 
BRANCH  24  25
HETATM   25  C4  UNL     1      25.306   1.104  52.560  1.00  0.00    -0.002 C 
HETATM   26  C3  UNL     1      26.182   0.142  52.294  1.00  0.00     0.112 C 
BRANCH  26  27
HETATM   27  N1  UNL     1      27.478  -0.380  52.560  1.00  0.00    -0.278 NA
HETATM   28  C2  UNL     1      28.007  -0.147  53.733  1.00  0.00     0.085 C 
HETATM   29  C1  UNL     1      29.360  -0.788  53.784  1.00  0.00     0.057 C 
ENDBRANCH  26  27
ENDBRANCH  24  25
ENDBRANCH  22  24
ENDBRANCH  16  18
ENDBRANCH   1  16
BRANCH   7  30
HETATM   30  O1  UNL     1      30.022   5.000  47.957  1.00  0.00    -0.360 OA
HETATM   31  C17 UNL     1      31.189   4.421  47.421  1.00  0.00     0.209 C 
ENDBRANCH   7  30
TORSDOF 6
ENDMDL
MODEL 8
REMARK VINA RESULT:      -8.0      3.744      5.079
REMARK  6 active torsions:
REMARK  status: ('A' for Active; 'I' for Inactive)
REMARK    1  A    between atoms: N1_3  and  C3_4 
REMARK    2  A    between atoms: C4_5  and  C5_6 
REMARK    3  A    between atoms: C5_6  and  C6_7 
REMARK    4  A    between atoms: C9_11  and  N3_12 
REMARK    5  A    between atoms: N3_12  and  C10_13 
REMARK    6  A    between atoms: C16_19  and  O1_20 
ROOT
HETATM    1  C10 UNL     1      23.689   3.810  51.801  1.00  0.00     0.033 A 
HETATM    2  C11 UNL     1      24.265   2.840  52.532  1.00  0.00     0.055 A 
HETATM    3  C12 UNL     1      23.505   1.635  52.217  1.00  0.00     0.039 A 
HETATM    4  C13 UNL     1      22.523   1.867  51.342  1.00  0.00    -0.041 A 
HETATM    5  C14 UNL     1      22.555   3.297  50.997  1.00  0.00     0.094 A 
HETATM    6  C15 UNL     1      21.852   0.596  51.101  1.00  0.00     0.101 C 
HETATM    7  C16 UNL     1      20.403   0.532  51.423  1.00  0.00     0.049 C 
HETATM    8  C18 UNL     1      19.859  -0.038  52.520  1.00  0.00     0.032 C 
HETATM    9  C19 UNL     1      20.164  -0.738  53.764  1.00  0.00    -0.001 C 
HETATM   10  C20 UNL     1      21.162  -1.170  54.530  1.00  0.00    -0.017 C 
HETATM   11  C21 UNL     1      22.633  -1.314  54.820  1.00  0.00     0.130 C 
HETATM   12  C22 UNL     1      23.298  -0.417  53.833  1.00  0.00     0.225 C 
HETATM   13  O2  UNL     1      22.211   0.175  53.918  1.00  0.00    -0.273 OA
HETATM   14  N4  UNL     1      23.931   0.435  52.895  1.00  0.00    -0.327 N 
HETATM   15  H25 UNL     1      24.811  -0.081  52.862  1.00  0.00     0.169 HD
ENDROOT
BRANCH   1  16
HETATM   16  N3  UNL     1      23.993   5.204  51.689  1.00  0.00    -0.192 N 
HETATM   17  H11 UNL     1      23.489   5.827  52.350  1.00  0.00     0.184 HD
BRANCH  16  18
HETATM   18  C9  UNL     1      24.917   5.697  50.742  1.00  0.00     0.726 A 
HETATM   19  N2  UNL     1      25.563   4.860  49.920  1.00  0.00    -0.075 NA
HETATM   20  C8  UNL     1      26.457   5.290  48.995  1.00  0.00     0.138 A 
HETATM   21  C7  UNL     1      26.644   6.658  48.972  1.00  0.00     0.048 A 
HETATM   22  C6  UNL     1      25.992   7.556  49.811  1.00  0.00     0.058 A 
HETATM   23  N5  UNL     1      25.136   7.011  50.678  1.00  0.00    -0.067 NA
BRANCH  22  24
HETATM   24  C5  UNL     1      26.278   8.995  49.691  1.00  0.00     0.088 C 
BRANCH  24  25
HETATM   25  C4  UNL     1      27.691   9.313  50.012  1.00  0.00    -0.002 C 
HETATM   26  C3  UNL     1      28.523   9.962  49.205  1.00  0.00     0.112 C 
BRANCH  26  27
HETATM   27  N1  UNL     1      29.837  10.477  49.032  1.00  0.00    -0.278 NA
HETATM   28  C2  UNL     1      30.104  11.130  47.932  1.00  0.00     0.085 C 
HETATM   29  C1  UNL     1      31.533  11.574  47.971  1.00  0.00     0.057 C 
ENDBRANCH  26  27
ENDBRANCH  24  25
ENDBRANCH  22  24
ENDBRANCH  16  18
ENDBRANCH   1  16
BRANCH   7  30
HETATM   30  O1  UNL     1      19.574   1.119  50.493  1.00  0.00    -0.360 OA
HETATM   31  C17 UNL     1      18.789   2.249  50.794  1.00  0.00     0.209 C 
ENDBRANCH   7  30
TORSDOF 6
ENDMDL
MODEL 9
REMARK VINA RESULT:      -7.9     21.074     24.508
REMARK  6 active torsions:
REMARK  status: ('A' for Active; 'I' for Inactive)
REMARK    1  A    between atoms: N1_3  and  C3_4 
REMARK    2  A    between atoms: C4_5  and  C5_6 
REMARK    3  A    between atoms: C5_6  and  C6_7 
REMARK    4  A    between atoms: C9_11  and  N3_12 
REMARK    5  A    between atoms: N3_12  and  C10_13 
REMARK    6  A    between atoms: C16_19  and  O1_20 
ROOT
HETATM    1  C10 UNL     1      43.368   2.808  68.703  1.00  0.00     0.033 A 
HETATM    2  C11 UNL     1      44.080   2.674  67.571  1.00  0.00     0.055 A 
HETATM    3  C12 UNL     1      44.753   3.957  67.398  1.00  0.00     0.039 A 
HETATM    4  C13 UNL     1      44.461   4.819  68.376  1.00  0.00    -0.041 A 
HETATM    5  C14 UNL     1      43.537   4.151  69.306  1.00  0.00     0.094 A 
HETATM    6  C15 UNL     1      45.197   6.046  68.100  1.00  0.00     0.101 C 
HETATM    7  C16 UNL     1      44.393   7.283  67.922  1.00  0.00     0.049 C 
HETATM    8  C18 UNL     1      44.092   7.870  66.743  1.00  0.00     0.032 C 
HETATM    9  C19 UNL     1      44.248   7.766  65.296  1.00  0.00    -0.001 C 
HETATM   10  C20 UNL     1      44.745   7.001  64.327  1.00  0.00    -0.017 C 
HETATM   11  C21 UNL     1      45.459   5.758  63.865  1.00  0.00     0.130 C 
HETATM   12  C22 UNL     1      45.525   4.892  65.077  1.00  0.00     0.225 C 
HETATM   13  O2  UNL     1      44.501   5.534  65.362  1.00  0.00    -0.273 OA
HETATM   14  N4  UNL     1      45.587   4.070  66.228  1.00  0.00    -0.327 N 
HETATM   15  H25 UNL     1      46.428   3.563  65.948  1.00  0.00     0.169 HD
ENDROOT
BRANCH   1  16
HETATM   16  N3  UNL     1      42.508   1.889  69.384  1.00  0.00    -0.192 N 
HETATM   17  H11 UNL     1      42.136   2.215  70.298  1.00  0.00     0.184 HD
BRANCH  16  18
HETATM   18  C9  UNL     1      42.186   0.623  68.848  1.00  0.00     0.726 A 
HETATM   19  N2  UNL     1      42.942  -0.447  69.128  1.00  0.00    -0.075 NA
HETATM   20  C8  UNL     1      42.670  -1.681  68.637  1.00  0.00     0.138 A 
HETATM   21  C7  UNL     1      41.553  -1.742  67.827  1.00  0.00     0.048 A 
HETATM   22  C6  UNL     1      40.747  -0.653  67.514  1.00  0.00     0.058 A 
HETATM   23  N5  UNL     1      41.118   0.509  68.059  1.00  0.00    -0.067 NA
BRANCH  22  24
HETATM   24  C5  UNL     1      39.581  -0.844  66.637  1.00  0.00     0.088 C 
BRANCH  24  25
HETATM   25  C4  UNL     1      39.025  -2.216  66.737  1.00  0.00    -0.002 C 
HETATM   26  C3  UNL     1      37.868  -2.525  67.312  1.00  0.00     0.112 C 
BRANCH  26  27
HETATM   27  N1  UNL     1      36.958  -3.565  67.648  1.00  0.00    -0.278 NA
HETATM   28  C2  UNL     1      37.312  -4.419  68.572  1.00  0.00     0.085 C 
HETATM   29  C1  UNL     1      36.207  -5.413  68.756  1.00  0.00     0.057 C 
ENDBRANCH  26  27
ENDBRANCH  24  25
ENDBRANCH  22  24
ENDBRANCH  16  18
ENDBRANCH   1  16
BRANCH   7  30
HETATM   30  O1  UNL     1      43.930   7.850  69.089  1.00  0.00    -0.360 OA
HETATM   31  C17 UNL     1      42.578   7.776  69.475  1.00  0.00     0.209 C 
ENDBRANCH   7  30
TORSDOF 6
ENDMDL
