MODEL 1
REMARK VINA RESULT:      -8.7      0.000      0.000
REMARK  2 active torsions:
REMARK  status: ('A' for Active; 'I' for Inactive)
REMARK    1  A    between atoms: C2_2  and  S1_4 
REMARK    2  A    between atoms: N1_14  and  C11_15 
ROOT
HETATM    1  S1  UNL     1      25.150   1.460  52.106  1.00  0.00    -0.029 SA
HETATM    2  C3  UNL     1      23.734   1.713  51.268  1.00  0.00     0.072 C 
HETATM    3  C4  UNL     1      22.432   1.076  51.606  1.00  0.00    -0.036 A 
HETATM    4  C5  UNL     1      21.452   0.800  50.718  1.00  0.00     0.008 A 
HETATM    5  C6  UNL     1      20.399   0.186  51.529  1.00  0.00    -0.002 A 
HETATM    6  C7  UNL     1      20.752   0.113  52.822  1.00  0.00    -0.010 A 
HETATM    7  C8  UNL     1      22.079   0.677  53.004  1.00  0.00     0.113 A 
HETATM    8  C9  UNL     1      23.087  -0.090  53.700  1.00  0.00     0.157 C 
HETATM    9  O2  UNL     1      22.411  -0.814  54.452  1.00  0.00    -0.295 OA
HETATM   10  C10 UNL     1      24.455  -0.537  54.056  1.00  0.00     0.216 C 
HETATM   11  N1  UNL     1      25.492   0.076  53.207  1.00  0.00    -0.314 N 
ENDROOT
BRANCH  11  12
HETATM   12  C11 UNL     1      26.795  -0.465  53.297  1.00  0.00     0.041 A 
HETATM   13  C12 UNL     1      27.916   0.043  53.895  1.00  0.00     0.030 A 
HETATM   14  C13 UNL     1      29.138  -0.572  53.941  1.00  0.00     0.002 A 
HETATM   15  C14 UNL     1      29.302  -1.795  53.353  1.00  0.00     0.000 A 
HETATM   16  C15 UNL     1      28.186  -2.356  52.729  1.00  0.00     0.002 A 
HETATM   17  C16 UNL     1      26.975  -1.701  52.708  1.00  0.00     0.030 A 
ENDBRANCH  11  12
BRANCH   1  18
HETATM   18  C2  UNL     1      26.543   2.351  51.476  1.00  0.00     0.195 C 
HETATM   19  C1  UNL     1      26.517   3.002  50.148  1.00  0.00     0.105 C 
HETATM   20  O1  UNL     1      27.656   2.560  51.981  1.00  0.00    -0.285 OA
ENDBRANCH   1  18
TORSDOF 2
ENDMDL
MODEL 2
REMARK VINA RESULT:      -8.2      1.616      2.293
REMARK  2 active torsions:
REMARK  status: ('A' for Active; 'I' for Inactive)
REMARK    1  A    between atoms: C2_2  and  S1_4 
REMARK    2  A    between atoms: N1_14  and  C11_15 
ROOT
HETATM    1  S1  UNL     1      23.091   1.455  52.892  1.00  0.00    -0.029 SA
HETATM    2  C3  UNL     1      21.582   1.533  52.196  1.00  0.00     0.072 C 
HETATM    3  C4  UNL     1      20.479   0.571  52.469  1.00  0.00    -0.036 A 
HETATM    4  C5  UNL     1      19.500   0.249  51.596  1.00  0.00     0.008 A 
HETATM    5  C6  UNL     1      18.679  -0.722  52.323  1.00  0.00    -0.002 A 
HETATM    6  C7  UNL     1      19.160  -0.948  53.555  1.00  0.00    -0.010 A 
HETATM    7  C8  UNL     1      20.351  -0.144  53.777  1.00  0.00     0.113 A 
HETATM    8  C9  UNL     1      21.558  -0.781  54.252  1.00  0.00     0.157 C 
HETATM    9  O2  UNL     1      21.123  -1.762  54.881  1.00  0.00    -0.295 OA
HETATM   10  C10 UNL     1      23.017  -0.967  54.441  1.00  0.00     0.216 C 
HETATM   11  N1  UNL     1      23.818   0.006  53.677  1.00  0.00    -0.314 N 
ENDROOT
BRANCH  11  12
HETATM   12  C11 UNL     1      25.208  -0.237  53.591  1.00  0.00     0.041 A 
HETATM   13  C12 UNL     1      25.915  -0.968  52.676  1.00  0.00     0.030 A 
HETATM   14  C13 UNL     1      27.275  -1.130  52.670  1.00  0.00     0.002 A 
HETATM   15  C14 UNL     1      28.030  -0.533  53.640  1.00  0.00     0.000 A 
HETATM   16  C15 UNL     1      27.354   0.224  54.599  1.00  0.00     0.002 A 
HETATM   17  C16 UNL     1      25.984   0.361  54.565  1.00  0.00     0.030 A 
ENDBRANCH  11  12
BRANCH   1  18
HETATM   18  C2  UNL     1      24.201   2.734  52.380  1.00  0.00     0.195 C 
HETATM   19  C1  UNL     1      25.239   2.501  51.351  1.00  0.00     0.105 C 
HETATM   20  O1  UNL     1      24.292   3.914  52.751  1.00  0.00    -0.285 OA
ENDBRANCH   1  18
TORSDOF 2
ENDMDL
MODEL 3
REMARK VINA RESULT:      -8.1      1.906      5.765
REMARK  2 active torsions:
REMARK  status: ('A' for Active; 'I' for Inactive)
REMARK    1  A    between atoms: C2_2  and  S1_4 
REMARK    2  A    between atoms: N1_14  and  C11_15 
ROOT
HETATM    1  S1  UNL     1      24.971   1.736  51.920  1.00  0.00    -0.029 SA
HETATM    2  C3  UNL     1      26.447   2.430  52.247  1.00  0.00     0.072 C 
HETATM    3  C4  UNL     1      27.571   1.734  52.930  1.00  0.00    -0.036 A 
HETATM    4  C5  UNL     1      28.514   2.341  53.683  1.00  0.00     0.008 A 
HETATM    5  C6  UNL     1      29.376   1.244  54.127  1.00  0.00    -0.002 A 
HETATM    6  C7  UNL     1      28.953   0.062  53.654  1.00  0.00    -0.010 A 
HETATM    7  C8  UNL     1      27.764   0.253  52.839  1.00  0.00     0.113 A 
HETATM    8  C9  UNL     1      26.586  -0.540  53.105  1.00  0.00     0.157 C 
HETATM    9  O2  UNL     1      27.060  -1.576  53.605  1.00  0.00    -0.295 OA
HETATM   10  C10 UNL     1      25.140  -0.862  53.141  1.00  0.00     0.216 C 
HETATM   11  N1  UNL     1      24.295   0.268  52.714  1.00  0.00    -0.314 N 
ENDROOT
BRANCH  11  12
HETATM   12  C11 UNL     1      22.905   0.151  52.946  1.00  0.00     0.041 A 
HETATM   13  C12 UNL     1      21.858   0.269  52.073  1.00  0.00     0.030 A 
HETATM   14  C13 UNL     1      20.536   0.121  52.397  1.00  0.00     0.002 A 
HETATM   15  C14 UNL     1      20.184  -0.165  53.686  1.00  0.00     0.000 A 
HETATM   16  C15 UNL     1      21.218  -0.294  54.615  1.00  0.00     0.002 A 
HETATM   17  C16 UNL     1      22.535  -0.138  54.245  1.00  0.00     0.030 A 
ENDBRANCH  11  12
BRANCH   1  18
HETATM   18  C2  UNL     1      23.826   2.804  51.096  1.00  0.00     0.195 C 
HETATM   19  C1  UNL     1      23.558   2.690  49.645  1.00  0.00     0.105 C 
HETATM   20  O1  UNL     1      23.128   3.728  51.540  1.00  0.00    -0.285 OA
ENDBRANCH   1  18
TORSDOF 2
ENDMDL
MODEL 4
REMARK VINA RESULT:      -8.0      1.858      6.391
REMARK  2 active torsions:
REMARK  status: ('A' for Active; 'I' for Inactive)
REMARK    1  A    between atoms: C2_2  and  S1_4 
REMARK    2  A    between atoms: N1_14  and  C11_15 
ROOT
HETATM    1  S1  UNL     1      24.947   0.201  53.431  1.00  0.00    -0.029 SA
HETATM    2  C3  UNL     1      26.035  -1.058  53.441  1.00  0.00     0.072 C 
HETATM    3  C4  UNL     1      27.512  -0.893  53.520  1.00  0.00    -0.036 A 
HETATM    4  C5  UNL     1      28.416  -1.753  53.002  1.00  0.00     0.008 A 
HETATM    5  C6  UNL     1      29.710  -1.154  53.336  1.00  0.00    -0.002 A 
HETATM    6  C7  UNL     1      29.561  -0.006  54.014  1.00  0.00    -0.010 A 
HETATM    7  C8  UNL     1      28.148   0.274  54.207  1.00  0.00     0.113 A 
HETATM    8  C9  UNL     1      27.624   1.569  53.834  1.00  0.00     0.157 C 
HETATM    9  O2  UNL     1      28.615   2.312  53.955  1.00  0.00    -0.295 OA
HETATM   10  C10 UNL     1      26.606   2.550  53.389  1.00  0.00     0.216 C 
HETATM   11  N1  UNL     1      25.323   1.917  53.035  1.00  0.00    -0.314 N 
ENDROOT
BRANCH  11  12
HETATM   12  C11 UNL     1      24.373   2.725  52.369  1.00  0.00     0.041 A 
HETATM   13  C12 UNL     1      23.603   3.750  52.847  1.00  0.00     0.030 A 
HETATM   14  C13 UNL     1      22.716   4.487  52.110  1.00  0.00     0.002 A 
HETATM   15  C14 UNL     1      22.549   4.211  50.781  1.00  0.00     0.000 A 
HETATM   16  C15 UNL     1      23.313   3.172  50.245  1.00  0.00     0.002 A 
HETATM   17  C16 UNL     1      24.194   2.458  51.025  1.00  0.00     0.030 A 
ENDBRANCH  11  12
BRANCH   1  18
HETATM   18  C2  UNL     1      23.253  -0.296  53.330  1.00  0.00     0.195 C 
HETATM   19  C1  UNL     1      22.556  -0.932  54.470  1.00  0.00     0.105 C 
HETATM   20  O1  UNL     1      22.445  -0.209  52.392  1.00  0.00    -0.285 OA
ENDBRANCH   1  18
TORSDOF 2
ENDMDL
MODEL 5
REMARK VINA RESULT:      -7.8      2.050      4.302
REMARK  2 active torsions:
REMARK  status: ('A' for Active; 'I' for Inactive)
REMARK    1  A    between atoms: C2_2  and  S1_4 
REMARK    2  A    between atoms: N1_14  and  C11_15 
ROOT
HETATM    1  S1  UNL     1      24.521   1.313  52.601  1.00  0.00    -0.029 SA
HETATM    2  C3  UNL     1      23.412   2.553  52.662  1.00  0.00     0.072 C 
HETATM    3  C4  UNL     1      23.554   3.844  51.936  1.00  0.00    -0.036 A 
HETATM    4  C5  UNL     1      23.035   5.022  52.346  1.00  0.00     0.008 A 
HETATM    5  C6  UNL     1      23.447   5.971  51.310  1.00  0.00    -0.002 A 
HETATM    6  C7  UNL     1      24.166   5.372  50.349  1.00  0.00    -0.010 A 
HETATM    7  C8  UNL     1      24.303   3.955  50.646  1.00  0.00     0.113 A 
HETATM    8  C9  UNL     1      25.617   3.352  50.642  1.00  0.00     0.157 C 
HETATM    9  O2  UNL     1      26.246   4.071  49.844  1.00  0.00    -0.295 OA
HETATM   10  C10 UNL     1      26.673   2.384  51.022  1.00  0.00     0.216 C 
HETATM   11  N1  UNL     1      26.240   1.459  52.084  1.00  0.00    -0.314 N 
ENDROOT
BRANCH  11  12
HETATM   12  C11 UNL     1      27.241   0.664  52.688  1.00  0.00     0.041 A 
HETATM   13  C12 UNL     1      27.475  -0.680  52.587  1.00  0.00     0.030 A 
HETATM   14  C13 UNL     1      28.491  -1.357  53.206  1.00  0.00     0.002 A 
HETATM   15  C14 UNL     1      29.368  -0.677  54.004  1.00  0.00     0.000 A 
HETATM   16  C15 UNL     1      29.171   0.698  54.140  1.00  0.00     0.002 A 
HETATM   17  C16 UNL     1      28.135   1.339  53.497  1.00  0.00     0.030 A 
ENDBRANCH  11  12
BRANCH   1  18
HETATM   18  C2  UNL     1      24.088  -0.105  53.566  1.00  0.00     0.195 C 
HETATM   19  C1  UNL     1      22.848  -0.871  53.315  1.00  0.00     0.105 C 
HETATM   20  O1  UNL     1      24.682  -0.642  54.514  1.00  0.00    -0.285 OA
ENDBRANCH   1  18
TORSDOF 2
ENDMDL
MODEL 6
REMARK VINA RESULT:      -7.4      2.256      5.432
REMARK  2 active torsions:
REMARK  status: ('A' for Active; 'I' for Inactive)
REMARK    1  A    between atoms: C2_2  and  S1_4 
REMARK    2  A    between atoms: N1_14  and  C11_15 
ROOT
HETATM    1  S1  UNL     1      25.383   1.254  52.847  1.00  0.00    -0.029 SA
HETATM    2  C3  UNL     1      26.409   1.878  51.696  1.00  0.00     0.072 C 
HETATM    3  C4  UNL     1      26.068   3.006  50.787  1.00  0.00    -0.036 A 
HETATM    4  C5  UNL     1      26.578   3.184  49.549  1.00  0.00     0.008 A 
HETATM    5  C6  UNL     1      25.938   4.412  49.073  1.00  0.00    -0.002 A 
HETATM    6  C7  UNL     1      25.100   4.918  49.991  1.00  0.00    -0.010 A 
HETATM    7  C8  UNL     1      25.102   4.079  51.178  1.00  0.00     0.113 A 
HETATM    8  C9  UNL     1      23.846   3.612  51.718  1.00  0.00     0.157 C 
HETATM    9  O2  UNL     1      23.046   4.495  51.359  1.00  0.00    -0.295 OA
HETATM   10  C10 UNL     1      22.931   2.702  52.449  1.00  0.00     0.216 C 
HETATM   11  N1  UNL     1      23.595   1.464  52.893  1.00  0.00    -0.314 N 
ENDROOT
BRANCH  11  12
HETATM   12  C11 UNL     1      22.762   0.429  53.376  1.00  0.00     0.041 A 
HETATM   13  C12 UNL     1      23.045  -0.593  54.240  1.00  0.00     0.030 A 
HETATM   14  C13 UNL     1      22.155  -1.545  54.662  1.00  0.00     0.002 A 
HETATM   15  C14 UNL     1      20.867  -1.514  54.207  1.00  0.00     0.000 A 
HETATM   16  C15 UNL     1      20.529  -0.489  53.321  1.00  0.00     0.002 A 
HETATM   17  C16 UNL     1      21.457   0.448  52.925  1.00  0.00     0.030 A 
ENDBRANCH  11  12
BRANCH   1  18
HETATM   18  C2  UNL     1      26.060  -0.087  53.783  1.00  0.00     0.195 C 
HETATM   19  C1  UNL     1      26.511   0.087  55.181  1.00  0.00     0.105 C 
HETATM   20  O1  UNL     1      26.252  -1.271  53.465  1.00  0.00    -0.285 OA
ENDBRANCH   1  18
TORSDOF 2
ENDMDL
MODEL 7
REMARK VINA RESULT:      -7.4      2.280      4.984
REMARK  2 active torsions:
REMARK  status: ('A' for Active; 'I' for Inactive)
REMARK    1  A    between atoms: C2_2  and  S1_4 
REMARK    2  A    between atoms: N1_14  and  C11_15 
ROOT
HETATM    1  S1  UNL     1      24.969   1.311  52.365  1.00  0.00    -0.029 SA
HETATM    2  C3  UNL     1      24.820   0.182  53.579  1.00  0.00     0.072 C 
HETATM    3  C4  UNL     1      23.557  -0.531  53.913  1.00  0.00    -0.036 A 
HETATM    4  C5  UNL     1      23.232  -0.995  55.139  1.00  0.00     0.008 A 
HETATM    5  C6  UNL     1      21.914  -1.604  54.952  1.00  0.00    -0.002 A 
HETATM    6  C7  UNL     1      21.498  -1.498  53.680  1.00  0.00    -0.010 A 
HETATM    7  C8  UNL     1      22.504  -0.810  52.888  1.00  0.00     0.113 A 
HETATM    8  C9  UNL     1      22.116   0.322  52.078  1.00  0.00     0.157 C 
HETATM    9  O2  UNL     1      20.920   0.086  51.830  1.00  0.00    -0.295 OA
HETATM   10  C10 UNL     1      22.290   1.608  51.360  1.00  0.00     0.216 C 
HETATM   11  N1  UNL     1      23.616   2.211  51.588  1.00  0.00    -0.314 N 
ENDROOT
BRANCH  11  12
HETATM   12  C11 UNL     1      23.795   3.545  51.155  1.00  0.00     0.041 A 
HETATM   13  C12 UNL     1      23.663   4.717  51.849  1.00  0.00     0.030 A 
HETATM   14  C13 UNL     1      23.876   5.969  51.338  1.00  0.00     0.002 A 
HETATM   15  C14 UNL     1      24.252   6.111  50.031  1.00  0.00     0.000 A 
HETATM   16  C15 UNL     1      24.400   4.943  49.281  1.00  0.00     0.002 A 
HETATM   17  C16 UNL     1      24.175   3.703  49.837  1.00  0.00     0.030 A 
ENDBRANCH  11  12
BRANCH   1  18
HETATM   18  C2  UNL     1      26.592   1.995  52.196  1.00  0.00     0.195 C 
HETATM   19  C1  UNL     1      27.533   2.062  53.336  1.00  0.00     0.105 C 
HETATM   20  O1  UNL     1      27.158   2.483  51.206  1.00  0.00    -0.285 OA
ENDBRANCH   1  18
TORSDOF 2
ENDMDL
MODEL 8
REMARK VINA RESULT:      -7.3      2.386      6.544
REMARK  2 active torsions:
REMARK  status: ('A' for Active; 'I' for Inactive)
REMARK    1  A    between atoms: C2_2  and  S1_4 
REMARK    2  A    between atoms: N1_14  and  C11_15 
ROOT
HETATM    1  S1  UNL     1      23.659   1.401  52.080  1.00  0.00    -0.029 SA
HETATM    2  C3  UNL     1      24.365   0.098  52.838  1.00  0.00     0.072 C 
HETATM    3  C4  UNL     1      25.832  -0.080  53.011  1.00  0.00    -0.036 A 
HETATM    4  C5  UNL     1      26.462  -1.273  53.095  1.00  0.00     0.008 A 
HETATM    5  C6  UNL     1      27.874  -0.919  53.254  1.00  0.00    -0.002 A 
HETATM    6  C7  UNL     1      28.051   0.411  53.263  1.00  0.00    -0.010 A 
HETATM    7  C8  UNL     1      26.769   1.081  53.116  1.00  0.00     0.113 A 
HETATM    8  C9  UNL     1      26.612   2.094  52.098  1.00  0.00     0.157 C 
HETATM    9  O2  UNL     1      27.768   2.533  51.965  1.00  0.00    -0.295 OA
HETATM   10  C10 UNL     1      25.892   2.931  51.107  1.00  0.00     0.216 C 
HETATM   11  N1  UNL     1      24.481   2.536  50.949  1.00  0.00    -0.314 N 
ENDROOT
BRANCH  11  12
HETATM   12  C11 UNL     1      23.777   3.101  49.860  1.00  0.00     0.041 A 
HETATM   13  C12 UNL     1      23.034   2.492  48.886  1.00  0.00     0.030 A 
HETATM   14  C13 UNL     1      22.372   3.136  47.875  1.00  0.00     0.002 A 
HETATM   15  C14 UNL     1      22.432   4.499  47.789  1.00  0.00     0.000 A 
HETATM   16  C15 UNL     1      23.180   5.166  48.761  1.00  0.00     0.002 A 
HETATM   17  C16 UNL     1      23.829   4.478  49.761  1.00  0.00     0.030 A 
ENDBRANCH  11  12
BRANCH   1  18
HETATM   18  C2  UNL     1      21.892   1.345  52.021  1.00  0.00     0.195 C 
HETATM   19  C1  UNL     1      21.061   2.490  52.454  1.00  0.00     0.105 C 
HETATM   20  O1  UNL     1      21.129   0.440  51.649  1.00  0.00    -0.285 OA
ENDBRANCH   1  18
TORSDOF 2
ENDMDL
MODEL 9
REMARK VINA RESULT:      -7.2      2.658      4.956
REMARK  2 active torsions:
REMARK  status: ('A' for Active; 'I' for Inactive)
REMARK    1  A    between atoms: C2_2  and  S1_4 
REMARK    2  A    between atoms: N1_14  and  C11_15 
ROOT
HETATM    1  S1  UNL     1      24.694   1.681  51.913  1.00  0.00    -0.029 SA
HETATM    2  C3  UNL     1      23.671   0.960  53.010  1.00  0.00     0.072 C 
HETATM    3  C4  UNL     1      22.229   0.687  52.762  1.00  0.00    -0.036 A 
HETATM    4  C5  UNL     1      21.276   0.634  53.719  1.00  0.00     0.008 A 
HETATM    5  C6  UNL     1      20.046   0.344  52.979  1.00  0.00    -0.002 A 
HETATM    6  C7  UNL     1      20.277   0.232  51.662  1.00  0.00    -0.010 A 
HETATM    7  C8  UNL     1      21.691   0.433  51.390  1.00  0.00     0.113 A 
HETATM    8  C9  UNL     1      22.091   1.390  50.384  1.00  0.00     0.157 C 
HETATM    9  O2  UNL     1      21.114   1.404  49.614  1.00  0.00    -0.295 OA
HETATM   10  C10 UNL     1      22.974   2.374  49.715  1.00  0.00     0.216 C 
HETATM   11  N1  UNL     1      24.191   2.667  50.493  1.00  0.00    -0.314 N 
ENDROOT
BRANCH  11  12
HETATM   12  C11 UNL     1      24.973   3.766  50.069  1.00  0.00     0.041 A 
HETATM   13  C12 UNL     1      26.126   3.791  49.332  1.00  0.00     0.030 A 
HETATM   14  C13 UNL     1      26.804   4.920  48.957  1.00  0.00     0.002 A 
HETATM   15  C14 UNL     1      26.330   6.147  49.328  1.00  0.00     0.000 A 
HETATM   16  C15 UNL     1      25.155   6.175  50.082  1.00  0.00     0.002 A 
HETATM   17  C16 UNL     1      24.505   5.013  50.436  1.00  0.00     0.030 A 
ENDBRANCH  11  12
BRANCH   1  18
HETATM   18  C2  UNL     1      26.357   1.879  52.483  1.00  0.00     0.195 C 
HETATM   19  C1  UNL     1      26.681   1.991  53.922  1.00  0.00     0.105 C 
HETATM   20  O1  UNL     1      27.420   1.950  51.846  1.00  0.00    -0.285 OA
ENDBRANCH   1  18
TORSDOF 2
ENDMDL
