MODEL 1
REMARK VINA RESULT:      -8.9      0.000      0.000
REMARK  2 active torsions:
REMARK  status: ('A' for Active; 'I' for Inactive)
REMARK    1  A    between atoms: C2_2  and  N1_3 
REMARK    2  A    between atoms: N1_3  and  C3_4 
ROOT
HETATM    1  C3  UNL     1      26.492  -0.510  52.810  1.00  0.00     0.039 A 
HETATM    2  C4  UNL     1      26.971   0.150  51.725  1.00  0.00     0.033 A 
HETATM    3  C5  UNL     1      26.479   1.392  51.310  1.00  0.00     0.043 A 
HETATM    4  C6  UNL     1      25.452   2.111  51.940  1.00  0.00     0.117 A 
HETATM    5  C7  UNL     1      25.089   1.320  53.008  1.00  0.00     0.160 A 
HETATM    6  F1  UNL     1      24.253   2.095  53.705  1.00  0.00    -0.202 F 
HETATM    7  C8  UNL     1      25.483   0.107  53.498  1.00  0.00     0.033 A 
HETATM    8  C9  UNL     1      24.504  -0.337  54.619  1.00  0.00     0.212 C 
HETATM    9  O1  UNL     1      23.356  -0.606  53.887  1.00  0.00    -0.379 OA
HETATM   10  C10 UNL     1      22.177  -0.840  54.514  1.00  0.00     0.142 C 
HETATM   11  C11 UNL     1      21.424  -2.058  54.143  1.00  0.00     0.042 C 
HETATM   12  C12 UNL     1      21.343   0.420  54.252  1.00  0.00     0.206 C 
HETATM   13  O2  UNL     1      21.101   0.612  52.823  1.00  0.00    -0.352 OA
HETATM   14  C13 UNL     1      20.727   1.945  52.513  1.00  0.00     0.106 A 
HETATM   15  C14 UNL     1      20.359   3.261  52.205  1.00  0.00     0.329 A 
HETATM   16  N2  UNL     1      21.374   4.093  51.795  1.00  0.00     0.102 N 
HETATM   17  N3  UNL     1      21.359   5.415  51.473  1.00  0.00    -0.070 NA
HETATM   18  C15 UNL     1      22.604   5.911  51.157  1.00  0.00     0.265 A 
HETATM   19  N4  UNL     1      23.772   5.244  51.140  1.00  0.00    -0.214 NA
HETATM   20  C16 UNL     1      23.846   3.938  51.446  1.00  0.00     0.208 A 
HETATM   21  C17 UNL     1      22.602   3.612  51.715  1.00  0.00     0.241 A 
HETATM   22  C18 UNL     1      21.861   2.585  52.125  1.00  0.00     0.253 A 
HETATM   23  C19 UNL     1      22.527   1.540  51.206  1.00  0.00     0.064 C 
HETATM   24  O3  UNL     1      25.045   3.306  51.430  1.00  0.00    -0.287 OA
ENDROOT
BRANCH   1  25
HETATM   25  N1  UNL     1      26.832  -1.741  53.380  1.00  0.00    -0.390 N 
HETATM   26  H6  UNL     1      26.390  -2.219  54.186  1.00  0.00     0.159 HD
BRANCH  25  27
HETATM   27  C2  UNL     1      27.924  -2.452  52.798  1.00  0.00     0.115 C 
HETATM   28  C1  UNL     1      29.226  -1.885  53.334  1.00  0.00     0.026 C 
ENDBRANCH  25  27
ENDBRANCH   1  25
TORSDOF 2
ENDMDL
MODEL 2
REMARK VINA RESULT:      -8.3      2.676      4.848
REMARK  2 active torsions:
REMARK  status: ('A' for Active; 'I' for Inactive)
REMARK    1  A    between atoms: C2_2  and  N1_3 
REMARK    2  A    between atoms: N1_3  and  C3_4 
ROOT
HETATM    1  C3  UNL     1      25.238  -0.361  54.573  1.00  0.00     0.039 A 
HETATM    2  C4  UNL     1      24.616  -0.978  55.610  1.00  0.00     0.033 A 
HETATM    3  C5  UNL     1      23.297  -1.439  55.543  1.00  0.00     0.043 A 
HETATM    4  C6  UNL     1      22.456  -1.333  54.425  1.00  0.00     0.117 A 
HETATM    5  C7  UNL     1      23.229  -0.702  53.475  1.00  0.00     0.160 A 
HETATM    6  F1  UNL     1      22.490  -0.780  52.365  1.00  0.00    -0.202 F 
HETATM    7  C8  UNL     1      24.502  -0.207  53.430  1.00  0.00     0.033 A 
HETATM    8  C9  UNL     1      24.692   0.600  52.117  1.00  0.00     0.212 C 
HETATM    9  O1  UNL     1      23.889   1.705  52.357  1.00  0.00    -0.379 OA
HETATM   10  C10 UNL     1      23.610   2.585  51.364  1.00  0.00     0.142 C 
HETATM   11  C11 UNL     1      23.844   4.022  51.623  1.00  0.00     0.042 C 
HETATM   12  C12 UNL     1      22.139   2.324  51.017  1.00  0.00     0.206 C 
HETATM   13  O2  UNL     1      21.267   2.592  52.160  1.00  0.00    -0.352 OA
HETATM   14  C13 UNL     1      19.998   1.969  52.029  1.00  0.00     0.106 A 
HETATM   15  C14 UNL     1      18.747   1.353  51.902  1.00  0.00     0.329 A 
HETATM   16  N2  UNL     1      18.608   0.133  52.520  1.00  0.00     0.102 N 
HETATM   17  N3  UNL     1      17.556  -0.731  52.548  1.00  0.00    -0.070 NA
HETATM   18  C15 UNL     1      17.824  -1.891  53.240  1.00  0.00     0.265 A 
HETATM   19  N4  UNL     1      18.970  -2.230  53.858  1.00  0.00    -0.214 NA
HETATM   20  C16 UNL     1      20.039  -1.417  53.865  1.00  0.00     0.208 A 
HETATM   21  C17 UNL     1      19.636  -0.370  53.183  1.00  0.00     0.241 A 
HETATM   22  C18 UNL     1      20.071   0.797  52.713  1.00  0.00     0.253 A 
HETATM   23  C19 UNL     1      20.802   1.218  54.005  1.00  0.00     0.064 C 
HETATM   24  O3  UNL     1      21.180  -1.804  54.487  1.00  0.00    -0.287 OA
ENDROOT
BRANCH   1  25
HETATM   25  N1  UNL     1      26.523   0.172  54.438  1.00  0.00    -0.390 N 
HETATM   26  H6  UNL     1      26.870   1.097  54.750  1.00  0.00     0.159 HD
BRANCH  25  27
HETATM   27  C2  UNL     1      27.504  -0.639  53.792  1.00  0.00     0.115 C 
HETATM   28  C1  UNL     1      28.887  -0.139  54.169  1.00  0.00     0.026 C 
ENDBRANCH  25  27
ENDBRANCH   1  25
TORSDOF 2
ENDMDL
MODEL 3
REMARK VINA RESULT:      -8.3      2.349      6.402
REMARK  2 active torsions:
REMARK  status: ('A' for Active; 'I' for Inactive)
REMARK    1  A    between atoms: C2_2  and  N1_3 
REMARK    2  A    between atoms: N1_3  and  C3_4 
ROOT
HETATM    1  C3  UNL     1      20.950   0.367  52.183  1.00  0.00     0.039 A 
HETATM    2  C4  UNL     1      21.321  -0.864  52.619  1.00  0.00     0.033 A 
HETATM    3  C5  UNL     1      22.515  -1.100  53.309  1.00  0.00     0.043 A 
HETATM    4  C6  UNL     1      23.470  -0.126  53.639  1.00  0.00     0.117 A 
HETATM    5  C7  UNL     1      22.946   1.047  53.140  1.00  0.00     0.160 A 
HETATM    6  F1  UNL     1      23.760   1.988  53.624  1.00  0.00    -0.202 F 
HETATM    7  C8  UNL     1      21.815   1.392  52.453  1.00  0.00     0.033 A 
HETATM    8  C9  UNL     1      21.931   2.867  51.982  1.00  0.00     0.212 C 
HETATM    9  O1  UNL     1      22.918   2.766  51.012  1.00  0.00    -0.379 OA
HETATM   10  C10 UNL     1      23.474   3.880  50.474  1.00  0.00     0.142 C 
HETATM   11  C11 UNL     1      23.519   3.990  48.999  1.00  0.00     0.042 C 
HETATM   12  C12 UNL     1      24.886   3.935  51.071  1.00  0.00     0.206 C 
HETATM   13  O2  UNL     1      25.674   2.766  50.683  1.00  0.00    -0.352 OA
HETATM   14  C13 UNL     1      26.791   2.562  51.534  1.00  0.00     0.106 A 
HETATM   15  C14 UNL     1      27.893   2.359  52.375  1.00  0.00     0.329 A 
HETATM   16  N2  UNL     1      27.711   1.467  53.405  1.00  0.00     0.102 N 
HETATM   17  N3  UNL     1      28.551   1.088  54.407  1.00  0.00    -0.070 NA
HETATM   18  C15 UNL     1      27.979   0.199  55.289  1.00  0.00     0.265 A 
HETATM   19  N4  UNL     1      26.731  -0.301  55.254  1.00  0.00    -0.214 NA
HETATM   20  C16 UNL     1      25.860   0.035  54.288  1.00  0.00     0.208 A 
HETATM   21  C17 UNL     1      26.539   0.868  53.534  1.00  0.00     0.241 A 
HETATM   22  C18 UNL     1      26.407   1.650  52.465  1.00  0.00     0.253 A 
HETATM   23  C19 UNL     1      25.652   0.610  51.610  1.00  0.00     0.064 C 
HETATM   24  O3  UNL     1      24.606  -0.481  54.298  1.00  0.00    -0.287 OA
ENDROOT
BRANCH   1  25
HETATM   25  N1  UNL     1      19.825   0.808  51.481  1.00  0.00    -0.390 N 
HETATM   26  H6  UNL     1      19.713   1.678  50.930  1.00  0.00     0.159 HD
BRANCH  25  27
HETATM   27  C2  UNL     1      18.666  -0.024  51.512  1.00  0.00     0.115 C 
HETATM   28  C1  UNL     1      17.791   0.300  50.315  1.00  0.00     0.026 C 
ENDBRANCH  25  27
ENDBRANCH   1  25
TORSDOF 2
ENDMDL
MODEL 4
REMARK VINA RESULT:      -8.0      2.763      7.328
REMARK  2 active torsions:
REMARK  status: ('A' for Active; 'I' for Inactive)
REMARK    1  A    between atoms: C2_2  and  N1_3 
REMARK    2  A    between atoms: N1_3  and  C3_4 
ROOT
HETATM    1  C3  UNL     1      17.975   1.519  51.283  1.00  0.00     0.039 A 
HETATM    2  C4  UNL     1      17.741   0.227  51.625  1.00  0.00     0.033 A 
HETATM    3  C5  UNL     1      18.569  -0.493  52.493  1.00  0.00     0.043 A 
HETATM    4  C6  UNL     1      19.723   0.005  53.116  1.00  0.00     0.117 A 
HETATM    5  C7  UNL     1      19.812   1.308  52.676  1.00  0.00     0.160 A 
HETATM    6  F1  UNL     1      20.794   1.826  53.418  1.00  0.00    -0.202 F 
HETATM    7  C8  UNL     1      19.081   2.102  51.836  1.00  0.00     0.033 A 
HETATM    8  C9  UNL     1      19.853   3.426  51.582  1.00  0.00     0.212 C 
HETATM    9  O1  UNL     1      20.916   2.977  50.811  1.00  0.00    -0.379 OA
HETATM   10  C10 UNL     1      21.959   3.797  50.530  1.00  0.00     0.142 C 
HETATM   11  C11 UNL     1      22.370   3.938  49.116  1.00  0.00     0.042 C 
HETATM   12  C12 UNL     1      23.115   3.260  51.385  1.00  0.00     0.206 C 
HETATM   13  O2  UNL     1      23.462   1.890  51.011  1.00  0.00    -0.352 OA
HETATM   14  C13 UNL     1      24.197   1.224  52.025  1.00  0.00     0.106 A 
HETATM   15  C14 UNL     1      24.921   0.564  53.027  1.00  0.00     0.329 A 
HETATM   16  N2  UNL     1      24.188  -0.220  53.886  1.00  0.00     0.102 N 
HETATM   17  N3  UNL     1      24.575  -0.942  54.973  1.00  0.00    -0.070 NA
HETATM   18  C15 UNL     1      23.526  -1.562  55.614  1.00  0.00     0.265 A 
HETATM   19  N4  UNL     1      22.223  -1.521  55.283  1.00  0.00    -0.214 NA
HETATM   20  C16 UNL     1      21.785  -0.827  54.219  1.00  0.00     0.208 A 
HETATM   21  C17 UNL     1      22.880  -0.306  53.716  1.00  0.00     0.241 A 
HETATM   22  C18 UNL     1      23.297   0.505  52.746  1.00  0.00     0.253 A 
HETATM   23  C19 UNL     1      22.413  -0.112  51.642  1.00  0.00     0.064 C 
HETATM   24  O3  UNL     1      20.461  -0.800  53.928  1.00  0.00    -0.287 OA
ENDROOT
BRANCH   1  25
HETATM   25  N1  UNL     1      17.289   2.401  50.442  1.00  0.00    -0.390 N 
HETATM   26  H6  UNL     1      17.625   2.845  49.568  1.00  0.00     0.159 HD
BRANCH  25  27
HETATM   27  C2  UNL     1      15.955   2.752  50.808  1.00  0.00     0.115 C 
HETATM   28  C1  UNL     1      15.989   4.006  51.662  1.00  0.00     0.026 C 
ENDBRANCH  25  27
ENDBRANCH   1  25
TORSDOF 2
ENDMDL
MODEL 5
REMARK VINA RESULT:      -8.0      2.203      6.118
REMARK  2 active torsions:
REMARK  status: ('A' for Active; 'I' for Inactive)
REMARK    1  A    between atoms: C2_2  and  N1_3 
REMARK    2  A    between atoms: N1_3  and  C3_4 
ROOT
HETATM    1  C3  UNL     1      23.835   5.526  48.987  1.00  0.00     0.039 A 
HETATM    2  C4  UNL     1      25.105   5.739  49.418  1.00  0.00     0.033 A 
HETATM    3  C5  UNL     1      25.885   4.743  50.014  1.00  0.00     0.043 A 
HETATM    4  C6  UNL     1      25.476   3.420  50.244  1.00  0.00     0.117 A 
HETATM    5  C7  UNL     1      24.190   3.370  49.751  1.00  0.00     0.160 A 
HETATM    6  F1  UNL     1      23.884   2.071  49.798  1.00  0.00    -0.202 F 
HETATM    7  C8  UNL     1      23.338   4.265  49.166  1.00  0.00     0.033 A 
HETATM    8  C9  UNL     1      21.927   3.627  49.048  1.00  0.00     0.212 C 
HETATM    9  O1  UNL     1      21.536   3.582  50.379  1.00  0.00    -0.379 OA
HETATM   10  C10 UNL     1      20.423   2.903  50.749  1.00  0.00     0.142 C 
HETATM   11  C11 UNL     1      19.422   3.610  51.578  1.00  0.00     0.042 C 
HETATM   12  C12 UNL     1      20.951   1.657  51.471  1.00  0.00     0.206 C 
HETATM   13  O2  UNL     1      21.716   2.017  52.664  1.00  0.00    -0.352 OA
HETATM   14  C13 UNL     1      22.561   0.964  53.101  1.00  0.00     0.106 A 
HETATM   15  C14 UNL     1      23.398  -0.074  53.532  1.00  0.00     0.329 A 
HETATM   16  N2  UNL     1      24.701  -0.020  53.098  1.00  0.00     0.102 N 
HETATM   17  N3  UNL     1      25.736  -0.882  53.295  1.00  0.00    -0.070 NA
HETATM   18  C15 UNL     1      26.889  -0.503  52.646  1.00  0.00     0.265 A 
HETATM   19  N4  UNL     1      27.077   0.583  51.875  1.00  0.00    -0.214 NA
HETATM   20  C16 UNL     1      26.093   1.469  51.648  1.00  0.00     0.208 A 
HETATM   21  C17 UNL     1      25.077   0.983  52.324  1.00  0.00     0.241 A 
HETATM   22  C18 UNL     1      23.790   1.211  52.575  1.00  0.00     0.253 A 
HETATM   23  C19 UNL     1      23.948   2.728  52.814  1.00  0.00     0.064 C 
HETATM   24  O3  UNL     1      26.320   2.542  50.852  1.00  0.00    -0.287 OA
ENDROOT
BRANCH   1  25
HETATM   25  N1  UNL     1      22.900   6.372  48.383  1.00  0.00    -0.390 N 
HETATM   26  H6  UNL     1      22.373   6.222  47.504  1.00  0.00     0.159 HD
BRANCH  25  27
HETATM   27  C2  UNL     1      22.616   7.608  49.038  1.00  0.00     0.115 C 
HETATM   28  C1  UNL     1      21.854   7.327  50.320  1.00  0.00     0.026 C 
ENDBRANCH  25  27
ENDBRANCH   1  25
TORSDOF 2
ENDMDL
MODEL 6
REMARK VINA RESULT:      -7.9      2.463      4.682
REMARK  2 active torsions:
REMARK  status: ('A' for Active; 'I' for Inactive)
REMARK    1  A    between atoms: C2_2  and  N1_3 
REMARK    2  A    between atoms: N1_3  and  C3_4 
ROOT
HETATM    1  C3  UNL     1      24.673   0.466  53.240  1.00  0.00     0.039 A 
HETATM    2  C4  UNL     1      23.960  -0.351  54.056  1.00  0.00     0.033 A 
HETATM    3  C5  UNL     1      22.608  -0.646  53.847  1.00  0.00     0.043 A 
HETATM    4  C6  UNL     1      21.823  -0.154  52.793  1.00  0.00     0.117 A 
HETATM    5  C7  UNL     1      22.685   0.638  52.066  1.00  0.00     0.160 A 
HETATM    6  F1  UNL     1      21.986   0.943  50.970  1.00  0.00    -0.202 F 
HETATM    7  C8  UNL     1      23.998   1.001  52.177  1.00  0.00     0.033 A 
HETATM    8  C9  UNL     1      24.311   2.118  51.144  1.00  0.00     0.212 C 
HETATM    9  O1  UNL     1      23.601   3.186  51.675  1.00  0.00    -0.379 OA
HETATM   10  C10 UNL     1      23.440   4.329  50.963  1.00  0.00     0.142 C 
HETATM   11  C11 UNL     1      23.792   5.609  51.617  1.00  0.00     0.042 C 
HETATM   12  C12 UNL     1      21.966   4.318  50.540  1.00  0.00     0.206 C 
HETATM   13  O2  UNL     1      21.078   4.342  51.702  1.00  0.00    -0.352 OA
HETATM   14  C13 UNL     1      19.765   3.905  51.386  1.00  0.00     0.106 A 
HETATM   15  C14 UNL     1      18.469   3.472  51.077  1.00  0.00     0.329 A 
HETATM   16  N2  UNL     1      18.198   2.148  51.328  1.00  0.00     0.102 N 
HETATM   17  N3  UNL     1      17.073   1.416  51.100  1.00  0.00    -0.070 NA
HETATM   18  C15 UNL     1      17.210   0.089  51.444  1.00  0.00     0.265 A 
HETATM   19  N4  UNL     1      18.296  -0.517  51.955  1.00  0.00    -0.214 NA
HETATM   20  C16 UNL     1      19.432   0.155  52.202  1.00  0.00     0.208 A 
HETATM   21  C17 UNL     1      19.151   1.384  51.836  1.00  0.00     0.241 A 
HETATM   22  C18 UNL     1      19.706   2.588  51.716  1.00  0.00     0.253 A 
HETATM   23  C19 UNL     1      20.422   2.561  53.083  1.00  0.00     0.064 C 
HETATM   24  O3  UNL     1      20.509  -0.498  52.705  1.00  0.00    -0.287 OA
ENDROOT
BRANCH   1  25
HETATM   25  N1  UNL     1      26.006   0.888  53.275  1.00  0.00    -0.390 N 
HETATM   26  H6  UNL     1      26.432   1.704  52.800  1.00  0.00     0.159 HD
BRANCH  25  27
HETATM   27  C2  UNL     1      26.917   0.116  54.055  1.00  0.00     0.115 C 
HETATM   28  C1  UNL     1      27.818  -0.676  53.126  1.00  0.00     0.026 C 
ENDBRANCH  25  27
ENDBRANCH   1  25
TORSDOF 2
ENDMDL
MODEL 7
REMARK VINA RESULT:      -7.9      2.338      6.881
REMARK  2 active torsions:
REMARK  status: ('A' for Active; 'I' for Inactive)
REMARK    1  A    between atoms: C2_2  and  N1_3 
REMARK    2  A    between atoms: N1_3  and  C3_4 
ROOT
HETATM    1  C3  UNL     1      20.579   5.399  50.356  1.00  0.00     0.039 A 
HETATM    2  C4  UNL     1      19.487   4.596  50.435  1.00  0.00     0.033 A 
HETATM    3  C5  UNL     1      19.414   3.492  51.292  1.00  0.00     0.043 A 
HETATM    4  C6  UNL     1      20.429   3.072  52.165  1.00  0.00     0.117 A 
HETATM    5  C7  UNL     1      21.445   3.982  51.969  1.00  0.00     0.160 A 
HETATM    6  F1  UNL     1      22.320   3.690  52.935  1.00  0.00    -0.202 F 
HETATM    7  C8  UNL     1      21.631   5.074  51.169  1.00  0.00     0.033 A 
HETATM    8  C9  UNL     1      23.111   5.536  51.266  1.00  0.00     0.212 C 
HETATM    9  O1  UNL     1      23.762   4.501  50.611  1.00  0.00    -0.379 OA
HETATM   10  C10 UNL     1      25.114   4.408  50.641  1.00  0.00     0.142 C 
HETATM   11  C11 UNL     1      25.829   4.258  49.354  1.00  0.00     0.042 C 
HETATM   12  C12 UNL     1      25.400   3.218  51.567  1.00  0.00     0.206 C 
HETATM   13  O2  UNL     1      24.842   1.978  51.030  1.00  0.00    -0.352 OA
HETATM   14  C13 UNL     1      24.702   0.974  52.023  1.00  0.00     0.106 A 
HETATM   15  C14 UNL     1      24.563  -0.017  53.003  1.00  0.00     0.329 A 
HETATM   16  N2  UNL     1      23.324  -0.117  53.590  1.00  0.00     0.102 N 
HETATM   17  N3  UNL     1      22.880  -0.928  54.589  1.00  0.00    -0.070 NA
HETATM   18  C15 UNL     1      21.571  -0.689  54.941  1.00  0.00     0.265 A 
HETATM   19  N4  UNL     1      20.735   0.224  54.417  1.00  0.00    -0.214 NA
HETATM   20  C16 UNL     1      21.117   1.050  53.428  1.00  0.00     0.208 A 
HETATM   21  C17 UNL     1      22.363   0.705  53.202  1.00  0.00     0.241 A 
HETATM   22  C18 UNL     1      23.418   1.038  52.460  1.00  0.00     0.253 A 
HETATM   23  C19 UNL     1      22.632   1.196  51.141  1.00  0.00     0.064 C 
HETATM   24  O3  UNL     1      20.247   1.967  52.939  1.00  0.00    -0.287 OA
ENDROOT
BRANCH   1  25
HETATM   25  N1  UNL     1      20.855   6.526  49.575  1.00  0.00    -0.390 N 
HETATM   26  H6  UNL     1      21.043   7.495  49.892  1.00  0.00     0.159 HD
BRANCH  25  27
HETATM   27  C2  UNL     1      20.887   6.351  48.160  1.00  0.00     0.115 C 
HETATM   28  C1  UNL     1      22.331   6.275  47.701  1.00  0.00     0.026 C 
ENDBRANCH  25  27
ENDBRANCH   1  25
TORSDOF 2
ENDMDL
MODEL 8
REMARK VINA RESULT:      -7.8      2.651      4.815
REMARK  2 active torsions:
REMARK  status: ('A' for Active; 'I' for Inactive)
REMARK    1  A    between atoms: C2_2  and  N1_3 
REMARK    2  A    between atoms: N1_3  and  C3_4 
ROOT
HETATM    1  C3  UNL     1      24.567   4.412  50.112  1.00  0.00     0.039 A 
HETATM    2  C4  UNL     1      23.804   4.703  49.028  1.00  0.00     0.033 A 
HETATM    3  C5  UNL     1      22.418   4.511  48.998  1.00  0.00     0.043 A 
HETATM    4  C6  UNL     1      21.645   4.006  50.055  1.00  0.00     0.117 A 
HETATM    5  C7  UNL     1      22.555   3.773  51.062  1.00  0.00     0.160 A 
HETATM    6  F1  UNL     1      21.791   3.479  52.117  1.00  0.00    -0.202 F 
HETATM    7  C8  UNL     1      23.908   3.911  51.201  1.00  0.00     0.033 A 
HETATM    8  C9  UNL     1      24.358   3.248  52.532  1.00  0.00     0.212 C 
HETATM    9  O1  UNL     1      24.165   1.904  52.245  1.00  0.00    -0.379 OA
HETATM   10  C10 UNL     1      24.253   0.970  53.224  1.00  0.00     0.142 C 
HETATM   11  C11 UNL     1      25.134  -0.196  52.994  1.00  0.00     0.042 C 
HETATM   12  C12 UNL     1      22.805   0.523  53.463  1.00  0.00     0.206 C 
HETATM   13  O2  UNL     1      22.230  -0.085  52.264  1.00  0.00    -0.352 OA
HETATM   14  C13 UNL     1      20.812  -0.111  52.300  1.00  0.00     0.106 A 
HETATM   15  C14 UNL     1      19.411  -0.137  52.333  1.00  0.00     0.329 A 
HETATM   16  N2  UNL     1      18.773   0.901  51.696  1.00  0.00     0.102 N 
HETATM   17  N3  UNL     1      17.447   1.191  51.586  1.00  0.00    -0.070 NA
HETATM   18  C15 UNL     1      17.202   2.362  50.905  1.00  0.00     0.265 A 
HETATM   19  N4  UNL     1      18.105   3.202  50.367  1.00  0.00    -0.214 NA
HETATM   20  C16 UNL     1      19.425   2.965  50.442  1.00  0.00     0.208 A 
HETATM   21  C17 UNL     1      19.500   1.833  51.103  1.00  0.00     0.241 A 
HETATM   22  C18 UNL     1      20.387   0.981  51.613  1.00  0.00     0.253 A 
HETATM   23  C19 UNL     1      21.315   0.972  50.379  1.00  0.00     0.064 C 
HETATM   24  O3  UNL     1      20.302   3.845  49.899  1.00  0.00    -0.287 OA
ENDROOT
BRANCH   1  25
HETATM   25  N1  UNL     1      25.942   4.521  50.342  1.00  0.00    -0.390 N 
HETATM   26  H6  UNL     1      26.425   4.955  51.150  1.00  0.00     0.159 HD
BRANCH  25  27
HETATM   27  C2  UNL     1      26.816   3.975  49.355  1.00  0.00     0.115 C 
HETATM   28  C1  UNL     1      27.475   5.111  48.593  1.00  0.00     0.026 C 
ENDBRANCH  25  27
ENDBRANCH   1  25
TORSDOF 2
ENDMDL
MODEL 9
REMARK VINA RESULT:      -7.4      8.578     12.136
REMARK  2 active torsions:
REMARK  status: ('A' for Active; 'I' for Inactive)
REMARK    1  A    between atoms: C2_2  and  N1_3 
REMARK    2  A    between atoms: N1_3  and  C3_4 
ROOT
HETATM    1  C3  UNL     1      27.349   7.980  48.618  1.00  0.00     0.039 A 
HETATM    2  C4  UNL     1      27.142   6.686  48.264  1.00  0.00     0.033 A 
HETATM    3  C5  UNL     1      28.178   5.752  48.151  1.00  0.00     0.043 A 
HETATM    4  C6  UNL     1      29.537   6.013  48.383  1.00  0.00     0.117 A 
HETATM    5  C7  UNL     1      29.572   7.345  48.734  1.00  0.00     0.160 A 
HETATM    6  F1  UNL     1      30.832   7.532  49.137  1.00  0.00    -0.202 F 
HETATM    7  C8  UNL     1      28.645   8.341  48.867  1.00  0.00     0.033 A 
HETATM    8  C9  UNL     1      29.374   9.697  49.074  1.00  0.00     0.212 C 
HETATM    9  O1  UNL     1      29.935   9.898  47.820  1.00  0.00    -0.379 OA
HETATM   10  C10 UNL     1      30.837  10.890  47.620  1.00  0.00     0.142 C 
HETATM   11  C11 UNL     1      30.602  11.825  46.497  1.00  0.00     0.042 C 
HETATM   12  C12 UNL     1      32.180  10.167  47.458  1.00  0.00     0.206 C 
HETATM   13  O2  UNL     1      32.170   9.279  46.295  1.00  0.00    -0.352 OA
HETATM   14  C13 UNL     1      33.193   8.297  46.357  1.00  0.00     0.106 A 
HETATM   15  C14 UNL     1      34.201   7.327  46.418  1.00  0.00     0.329 A 
HETATM   16  N2  UNL     1      33.832   6.103  46.925  1.00  0.00     0.102 N 
HETATM   17  N3  UNL     1      34.569   4.982  47.157  1.00  0.00    -0.070 NA
HETATM   18  C15 UNL     1      33.842   3.963  47.730  1.00  0.00     0.265 A 
HETATM   19  N4  UNL     1      32.539   3.974  48.064  1.00  0.00    -0.214 NA
HETATM   20  C16 UNL     1      31.762   5.050  47.856  1.00  0.00     0.208 A 
HETATM   21  C17 UNL     1      32.580   5.921  47.311  1.00  0.00     0.241 A 
HETATM   22  C18 UNL     1      32.622   7.177  46.871  1.00  0.00     0.253 A 
HETATM   23  C19 UNL     1      31.280   7.115  46.110  1.00  0.00     0.064 C 
HETATM   24  O3  UNL     1      30.457   5.024  48.222  1.00  0.00    -0.287 OA
ENDROOT
BRANCH   1  25
HETATM   25  N1  UNL     1      26.471   9.056  48.778  1.00  0.00    -0.390 N 
HETATM   26  H6  UNL     1      26.238   9.801  48.096  1.00  0.00     0.159 HD
BRANCH  25  27
HETATM   27  C2  UNL     1      25.797   9.171  50.030  1.00  0.00     0.115 C 
HETATM   28  C1  UNL     1      24.493   8.397  49.965  1.00  0.00     0.026 C 
ENDBRANCH  25  27
ENDBRANCH   1  25
TORSDOF 2
ENDMDL
