MODEL 1
REMARK VINA RESULT:      -9.4      0.000      0.000
REMARK  0 active torsions:
REMARK  status: ('A' for Active; 'I' for Inactive)
ROOT
HETATM    1  C1  UNL     1      27.223  -2.249  52.959  1.00  0.00     0.052 C 
HETATM    2  C2  UNL     1      27.280  -0.766  52.956  1.00  0.00    -0.015 C 
HETATM    3  C3  UNL     1      28.457  -0.291  53.362  1.00  0.00     0.030 C 
HETATM    4  S1  UNL     1      28.691   1.322  53.535  1.00  0.00    -0.098 SA
HETATM    5  C4  UNL     1      27.907   2.428  52.573  1.00  0.00     0.082 C 
HETATM    6  C5  UNL     1      26.797   2.188  51.616  1.00  0.00     0.063 C 
HETATM    7  N1  UNL     1      26.072   1.136  51.736  1.00  0.00    -0.248 NA
HETATM    8  C6  UNL     1      26.073  -0.024  52.525  1.00  0.00     0.070 C 
HETATM    9  C7  UNL     1      25.036  -0.717  53.044  1.00  0.00     0.106 C 
HETATM   10  C8  UNL     1      23.555  -0.512  52.989  1.00  0.00     0.244 C 
HETATM   11  O1  UNL     1      22.532  -1.096  53.420  1.00  0.00    -0.269 OA
HETATM   12  N2  UNL     1      22.937   0.628  52.293  1.00  0.00    -0.341 N 
HETATM   13  C9  UNL     1      22.209   1.698  51.646  1.00  0.00     0.090 A 
HETATM   14  C10 UNL     1      22.085   1.159  50.410  1.00  0.00     0.077 A 
HETATM   15  C11 UNL     1      21.820   1.952  49.328  1.00  0.00    -0.008 A 
HETATM   16  C12 UNL     1      21.878   2.806  50.372  1.00  0.00     0.071 A 
HETATM   17  C13 UNL     1      21.974   3.481  51.537  1.00  0.00     0.007 A 
HETATM   18  C14 UNL     1      22.240   2.654  52.628  1.00  0.00     0.007 A 
HETATM   19  N3  UNL     1      22.251   4.107  49.821  1.00  0.00    -0.393 N 
HETATM   20  C15 UNL     1      22.015   5.501  49.534  1.00  0.00     0.137 C 
HETATM   21  C16 UNL     1      23.082   6.444  49.937  1.00  0.00     0.136 C 
HETATM   22  N4  UNL     1      24.361   5.948  50.284  1.00  0.00    -0.406 N 
HETATM   23  C17 UNL     1      25.437   6.835  50.310  1.00  0.00     0.144 C 
HETATM   24  C18 UNL     1      24.535   4.561  50.307  1.00  0.00     0.119 C 
HETATM   25  C19 UNL     1      25.881   4.090  49.979  1.00  0.00     0.002 C 
HETATM   26  C20 UNL     1      26.601   3.172  50.586  1.00  0.00     0.030 C 
HETATM   27  C21 UNL     1      23.596   3.894  49.290  1.00  0.00     0.147 C 
HETATM   28  H6  UNL     1      23.868   1.045  51.977  1.00  0.00     0.164 HD
ENDROOT
TORSDOF 0
ENDMDL
MODEL 2
REMARK VINA RESULT:      -8.8      2.396      4.580
REMARK  0 active torsions:
REMARK  status: ('A' for Active; 'I' for Inactive)
ROOT
HETATM    1  C1  UNL     1      28.301   2.308  53.397  1.00  0.00     0.052 C 
HETATM    2  C2  UNL     1      27.092   1.483  53.148  1.00  0.00    -0.015 C 
HETATM    3  C3  UNL     1      27.124   0.312  53.783  1.00  0.00     0.030 C 
HETATM    4  S1  UNL     1      25.935  -0.793  53.555  1.00  0.00    -0.098 SA
HETATM    5  C4  UNL     1      24.370  -0.340  53.229  1.00  0.00     0.082 C 
HETATM    6  C5  UNL     1      23.855   1.016  52.906  1.00  0.00     0.063 C 
HETATM    7  N1  UNL     1      24.661   1.911  52.462  1.00  0.00    -0.248 NA
HETATM    8  C6  UNL     1      26.043   2.035  52.260  1.00  0.00     0.070 C 
HETATM    9  C7  UNL     1      26.721   2.661  51.272  1.00  0.00     0.106 C 
HETATM   10  C8  UNL     1      26.271   3.417  50.062  1.00  0.00     0.244 C 
HETATM   11  O1  UNL     1      26.811   4.032  49.112  1.00  0.00    -0.269 OA
HETATM   12  N2  UNL     1      24.851   3.592  49.716  1.00  0.00    -0.341 N 
HETATM   13  C9  UNL     1      23.497   3.834  49.270  1.00  0.00     0.090 A 
HETATM   14  C10 UNL     1      23.242   4.972  49.958  1.00  0.00     0.077 A 
HETATM   15  C11 UNL     1      21.955   5.378  50.181  1.00  0.00    -0.008 A 
HETATM   16  C12 UNL     1      21.835   4.229  49.482  1.00  0.00     0.071 A 
HETATM   17  C13 UNL     1      21.934   3.079  48.784  1.00  0.00     0.007 A 
HETATM   18  C14 UNL     1      23.253   2.685  48.562  1.00  0.00     0.007 A 
HETATM   19  N3  UNL     1      20.530   3.670  49.829  1.00  0.00    -0.393 N 
HETATM   20  C15 UNL     1      19.191   3.236  49.517  1.00  0.00     0.137 C 
HETATM   21  C16 UNL     1      18.818   1.878  49.970  1.00  0.00     0.136 C 
HETATM   22  N4  UNL     1      19.631   1.206  50.915  1.00  0.00    -0.406 N 
HETATM   23  C17 UNL     1      19.100   0.111  51.595  1.00  0.00     0.144 C 
HETATM   24  C18 UNL     1      20.811   1.839  51.321  1.00  0.00     0.119 C 
HETATM   25  C19 UNL     1      21.246   1.542  52.686  1.00  0.00     0.002 C 
HETATM   26  C20 UNL     1      22.452   1.248  53.118  1.00  0.00     0.030 C 
HETATM   27  C21 UNL     1      20.643   3.365  51.253  1.00  0.00     0.147 C 
HETATM   28  H6  UNL     1      24.494   3.044  50.562  1.00  0.00     0.164 HD
ENDROOT
TORSDOF 0
ENDMDL
MODEL 3
REMARK VINA RESULT:      -8.6      2.686      5.890
REMARK  0 active torsions:
REMARK  status: ('A' for Active; 'I' for Inactive)
ROOT
HETATM    1  C1  UNL     1      24.363   7.191  48.002  1.00  0.00     0.052 C 
HETATM    2  C2  UNL     1      24.883   5.936  48.599  1.00  0.00    -0.015 C 
HETATM    3  C3  UNL     1      26.214   5.888  48.629  1.00  0.00     0.030 C 
HETATM    4  S1  UNL     1      26.990   4.541  49.150  1.00  0.00    -0.098 SA
HETATM    5  C4  UNL     1      26.337   3.551  50.315  1.00  0.00     0.082 C 
HETATM    6  C5  UNL     1      24.966   3.588  50.888  1.00  0.00     0.063 C 
HETATM    7  N1  UNL     1      24.022   4.163  50.236  1.00  0.00    -0.248 NA
HETATM    8  C6  UNL     1      23.902   4.929  49.068  1.00  0.00     0.070 C 
HETATM    9  C7  UNL     1      22.918   4.949  48.142  1.00  0.00     0.106 C 
HETATM   10  C8  UNL     1      21.640   4.181  48.011  1.00  0.00     0.244 C 
HETATM   11  O1  UNL     1      20.675   4.138  47.212  1.00  0.00    -0.269 OA
HETATM   12  N2  UNL     1      21.229   3.151  48.979  1.00  0.00    -0.341 N 
HETATM   13  C9  UNL     1      20.715   2.122  49.855  1.00  0.00     0.090 A 
HETATM   14  C10 UNL     1      20.044   2.903  50.736  1.00  0.00     0.077 A 
HETATM   15  C11 UNL     1      19.719   2.431  51.977  1.00  0.00    -0.008 A 
HETATM   16  C12 UNL     1      20.369   1.409  51.383  1.00  0.00     0.071 A 
HETATM   17  C13 UNL     1      21.035   0.520  50.616  1.00  0.00     0.007 A 
HETATM   18  C14 UNL     1      21.353   1.018  49.353  1.00  0.00     0.007 A 
HETATM   19  N3  UNL     1      20.943   0.603  52.459  1.00  0.00    -0.393 N 
HETATM   20  C15 UNL     1      21.083  -0.611  53.225  1.00  0.00     0.137 C 
HETATM   21  C16 UNL     1      22.463  -1.107  53.422  1.00  0.00     0.136 C 
HETATM   22  N4  UNL     1      23.560  -0.259  53.140  1.00  0.00    -0.406 N 
HETATM   23  C17 UNL     1      24.812  -0.590  53.656  1.00  0.00     0.144 C 
HETATM   24  C18 UNL     1      23.283   1.003  52.604  1.00  0.00     0.119 C 
HETATM   25  C19 UNL     1      24.235   2.058  52.951  1.00  0.00     0.002 C 
HETATM   26  C20 UNL     1      24.779   2.964  52.170  1.00  0.00     0.030 C 
HETATM   27  C21 UNL     1      21.911   1.496  53.091  1.00  0.00     0.147 C 
HETATM   28  H6  UNL     1      22.097   3.266  49.593  1.00  0.00     0.164 HD
ENDROOT
TORSDOF 0
ENDMDL
MODEL 4
REMARK VINA RESULT:      -8.4      3.050      6.999
REMARK  0 active torsions:
REMARK  status: ('A' for Active; 'I' for Inactive)
ROOT
HETATM    1  C1  UNL     1      22.268   4.645  47.033  1.00  0.00     0.052 C 
HETATM    2  C2  UNL     1      21.675   4.052  48.259  1.00  0.00    -0.015 C 
HETATM    3  C3  UNL     1      20.343   4.086  48.260  1.00  0.00     0.030 C 
HETATM    4  S1  UNL     1      19.497   3.580  49.569  1.00  0.00    -0.098 SA
HETATM    5  C4  UNL     1      20.058   2.368  50.559  1.00  0.00     0.082 C 
HETATM    6  C5  UNL     1      21.400   1.731  50.559  1.00  0.00     0.063 C 
HETATM    7  N1  UNL     1      22.394   2.346  50.030  1.00  0.00    -0.248 NA
HETATM    8  C6  UNL     1      22.596   3.520  49.290  1.00  0.00     0.070 C 
HETATM    9  C7  UNL     1      23.623   4.397  49.322  1.00  0.00     0.106 C 
HETATM   10  C8  UNL     1      24.878   4.453  50.135  1.00  0.00     0.244 C 
HETATM   11  O1  UNL     1      25.878   5.205  50.228  1.00  0.00    -0.269 OA
HETATM   12  N2  UNL     1      25.206   3.449  51.161  1.00  0.00    -0.341 N 
HETATM   13  C9  UNL     1      25.641   2.532  52.191  1.00  0.00     0.090 A 
HETATM   14  C10 UNL     1      26.296   1.634  51.418  1.00  0.00     0.077 A 
HETATM   15  C11 UNL     1      26.545   0.370  51.876  1.00  0.00    -0.008 A 
HETATM   16  C12 UNL     1      25.888   0.978  52.886  1.00  0.00     0.071 A 
HETATM   17  C13 UNL     1      25.228   1.761  53.766  1.00  0.00     0.007 A 
HETATM   18  C14 UNL     1      24.988   3.046  53.281  1.00  0.00     0.007 A 
HETATM   19  N3  UNL     1      25.235  -0.084  53.652  1.00  0.00    -0.393 N 
HETATM   20  C15 UNL     1      25.016  -0.862  54.845  1.00  0.00     0.137 C 
HETATM   21  C16 UNL     1      23.611  -1.001  55.289  1.00  0.00     0.136 C 
HETATM   22  N4  UNL     1      22.560  -0.652  54.409  1.00  0.00    -0.406 N 
HETATM   23  C17 UNL     1      21.274  -1.113  54.687  1.00  0.00     0.144 C 
HETATM   24  C18 UNL     1      22.907  -0.108  53.168  1.00  0.00     0.119 C 
HETATM   25  C19 UNL     1      21.977  -0.391  52.074  1.00  0.00     0.002 C 
HETATM   26  C20 UNL     1      21.504   0.431  51.164  1.00  0.00     0.030 C 
HETATM   27  C21 UNL     1      24.270  -0.653  52.714  1.00  0.00     0.147 C 
HETATM   28  H6  UNL     1      24.315   2.880  51.004  1.00  0.00     0.164 HD
ENDROOT
TORSDOF 0
ENDMDL
MODEL 5
REMARK VINA RESULT:      -8.3      2.550      4.622
REMARK  0 active torsions:
REMARK  status: ('A' for Active; 'I' for Inactive)
ROOT
HETATM    1  C1  UNL     1      25.986   0.261  54.520  1.00  0.00     0.052 C 
HETATM    2  C2  UNL     1      24.712   0.266  53.758  1.00  0.00    -0.015 C 
HETATM    3  C3  UNL     1      23.951  -0.797  54.013  1.00  0.00     0.030 C 
HETATM    4  S1  UNL     1      22.552  -1.038  53.194  1.00  0.00    -0.098 SA
HETATM    5  C4  UNL     1      21.629   0.232  52.647  1.00  0.00     0.082 C 
HETATM    6  C5  UNL     1      21.979   1.675  52.617  1.00  0.00     0.063 C 
HETATM    7  N1  UNL     1      23.211   2.029  52.661  1.00  0.00    -0.248 NA
HETATM    8  C6  UNL     1      24.452   1.401  52.843  1.00  0.00     0.070 C 
HETATM    9  C7  UNL     1      25.649   1.667  52.274  1.00  0.00     0.106 C 
HETATM   10  C8  UNL     1      26.083   2.683  51.264  1.00  0.00     0.244 C 
HETATM   11  O1  UNL     1      27.151   3.010  50.694  1.00  0.00    -0.269 OA
HETATM   12  N2  UNL     1      25.151   3.644  50.653  1.00  0.00    -0.341 N 
HETATM   13  C9  UNL     1      24.341   4.637  49.983  1.00  0.00     0.090 A 
HETATM   14  C10 UNL     1      24.432   5.639  50.890  1.00  0.00     0.077 A 
HETATM   15  C11 UNL     1      23.514   6.652  50.904  1.00  0.00    -0.008 A 
HETATM   16  C12 UNL     1      23.120   5.847  49.894  1.00  0.00     0.071 A 
HETATM   17  C13 UNL     1      22.902   4.922  48.937  1.00  0.00     0.007 A 
HETATM   18  C14 UNL     1      23.851   3.901  48.936  1.00  0.00     0.007 A 
HETATM   19  N3  UNL     1      21.682   6.056  49.738  1.00  0.00    -0.393 N 
HETATM   20  C15 UNL     1      20.512   6.464  49.000  1.00  0.00     0.137 C 
HETATM   21  C16 UNL     1      19.403   5.487  48.935  1.00  0.00     0.136 C 
HETATM   22  N4  UNL     1      19.395   4.375  49.810  1.00  0.00    -0.406 N 
HETATM   23  C17 UNL     1      18.203   3.676  49.993  1.00  0.00     0.144 C 
HETATM   24  C18 UNL     1      20.498   4.207  50.654  1.00  0.00     0.119 C 
HETATM   25  C19 UNL     1      20.216   3.562  51.937  1.00  0.00     0.002 C 
HETATM   26  C20 UNL     1      20.888   2.609  52.542  1.00  0.00     0.030 C 
HETATM   27  C21 UNL     1      21.116   5.572  50.995  1.00  0.00     0.147 C 
HETATM   28  H6  UNL     1      24.300   3.285  51.190  1.00  0.00     0.164 HD
ENDROOT
TORSDOF 0
ENDMDL
MODEL 6
REMARK VINA RESULT:      -8.1      2.168      3.234
REMARK  0 active torsions:
REMARK  status: ('A' for Active; 'I' for Inactive)
ROOT
HETATM    1  C1  UNL     1      22.758  -0.633  53.058  1.00  0.00     0.052 C 
HETATM    2  C2  UNL     1      23.706   0.493  52.863  1.00  0.00    -0.015 C 
HETATM    3  C3  UNL     1      24.916   0.244  53.362  1.00  0.00     0.030 C 
HETATM    4  S1  UNL     1      26.078   1.401  53.347  1.00  0.00    -0.098 SA
HETATM    5  C4  UNL     1      26.157   2.545  52.144  1.00  0.00     0.082 C 
HETATM    6  C5  UNL     1      25.160   2.831  51.082  1.00  0.00     0.063 C 
HETATM    7  N1  UNL     1      23.941   2.461  51.240  1.00  0.00    -0.248 NA
HETATM    8  C6  UNL     1      23.212   1.705  52.170  1.00  0.00     0.070 C 
HETATM    9  C7  UNL     1      21.953   1.877  52.628  1.00  0.00     0.106 C 
HETATM   10  C8  UNL     1      20.905   2.905  52.339  1.00  0.00     0.244 C 
HETATM   11  O1  UNL     1      19.726   3.138  52.697  1.00  0.00    -0.269 OA
HETATM   12  N2  UNL     1      21.128   4.029  51.415  1.00  0.00    -0.341 N 
HETATM   13  C9  UNL     1      21.221   5.173  50.535  1.00  0.00     0.090 A 
HETATM   14  C10 UNL     1      20.832   4.588  49.377  1.00  0.00     0.077 A 
HETATM   15  C11 UNL     1      21.137   5.157  48.172  1.00  0.00    -0.008 A 
HETATM   16  C12 UNL     1      21.671   5.991  49.089  1.00  0.00     0.071 A 
HETATM   17  C13 UNL     1      22.123   6.686  50.154  1.00  0.00     0.007 A 
HETATM   18  C14 UNL     1      21.798   6.092  51.373  1.00  0.00     0.007 A 
HETATM   19  N3  UNL     1      22.775   6.681  48.425  1.00  0.00    -0.393 N 
HETATM   20  C15 UNL     1      23.444   7.856  47.923  1.00  0.00     0.137 C 
HETATM   21  C16 UNL     1      24.851   8.039  48.341  1.00  0.00     0.136 C 
HETATM   22  N4  UNL     1      25.555   6.960  48.927  1.00  0.00    -0.406 N 
HETATM   23  C17 UNL     1      26.946   7.021  48.984  1.00  0.00     0.144 C 
HETATM   24  C18 UNL     1      24.848   5.776  49.161  1.00  0.00     0.119 C 
HETATM   25  C19 UNL     1      25.638   4.547  49.092  1.00  0.00     0.002 C 
HETATM   26  C20 UNL     1      25.633   3.519  49.911  1.00  0.00     0.030 C 
HETATM   27  C21 UNL     1      23.727   5.615  48.121  1.00  0.00     0.147 C 
HETATM   28  H6  UNL     1      22.131   3.743  51.180  1.00  0.00     0.164 HD
ENDROOT
TORSDOF 0
ENDMDL
MODEL 7
REMARK VINA RESULT:      -7.9      5.682      9.050
REMARK  0 active torsions:
REMARK  status: ('A' for Active; 'I' for Inactive)
ROOT
HETATM    1  C1  UNL     1      26.052   3.691  50.084  1.00  0.00     0.052 C 
HETATM    2  C2  UNL     1      25.639   4.885  49.305  1.00  0.00    -0.015 C 
HETATM    3  C3  UNL     1      24.333   4.906  49.041  1.00  0.00     0.030 C 
HETATM    4  S1  UNL     1      23.692   6.084  48.099  1.00  0.00    -0.098 SA
HETATM    5  C4  UNL     1      24.326   7.620  48.066  1.00  0.00     0.082 C 
HETATM    6  C5  UNL     1      25.598   8.101  48.664  1.00  0.00     0.063 C 
HETATM    7  N1  UNL     1      26.528   7.260  48.938  1.00  0.00    -0.248 NA
HETATM    8  C6  UNL     1      26.684   5.866  48.930  1.00  0.00     0.070 C 
HETATM    9  C7  UNL     1      27.761   5.118  48.609  1.00  0.00     0.106 C 
HETATM   10  C8  UNL     1      29.139   5.477  48.146  1.00  0.00     0.244 C 
HETATM   11  O1  UNL     1      30.191   4.867  47.841  1.00  0.00    -0.269 OA
HETATM   12  N2  UNL     1      29.565   6.869  47.926  1.00  0.00    -0.341 N 
HETATM   13  C9  UNL     1      30.104   8.187  47.674  1.00  0.00     0.090 A 
HETATM   14  C10 UNL     1      30.549   8.480  48.919  1.00  0.00     0.077 A 
HETATM   15  C11 UNL     1      30.781   9.776  49.289  1.00  0.00    -0.008 A 
HETATM   16  C12 UNL     1      30.354   9.856  48.011  1.00  0.00     0.071 A 
HETATM   17  C13 UNL     1      29.915   9.717  46.742  1.00  0.00     0.007 A 
HETATM   18  C14 UNL     1      29.689   8.389  46.384  1.00  0.00     0.007 A 
HETATM   19  N3  UNL     1      29.769  11.186  47.854  1.00  0.00    -0.393 N 
HETATM   20  C15 UNL     1      29.703  12.504  47.272  1.00  0.00     0.137 C 
HETATM   21  C16 UNL     1      28.390  12.916  46.728  1.00  0.00     0.136 C 
HETATM   22  N4  UNL     1      27.230  12.176  47.059  1.00  0.00    -0.406 N 
HETATM   23  C17 UNL     1      25.982  12.760  46.850  1.00  0.00     0.144 C 
HETATM   24  C18 UNL     1      27.396  11.023  47.832  1.00  0.00     0.119 C 
HETATM   25  C19 UNL     1      26.273  10.684  48.707  1.00  0.00     0.002 C 
HETATM   26  C20 UNL     1      25.710   9.513  48.907  1.00  0.00     0.030 C 
HETATM   27  C21 UNL     1      28.617  11.174  48.753  1.00  0.00     0.147 C 
HETATM   28  H6  UNL     1      28.622   7.287  48.204  1.00  0.00     0.164 HD
ENDROOT
TORSDOF 0
ENDMDL
MODEL 8
REMARK VINA RESULT:      -7.8      4.244      7.474
REMARK  0 active torsions:
REMARK  status: ('A' for Active; 'I' for Inactive)
ROOT
HETATM    1  C1  UNL     1      22.024   4.058  49.208  1.00  0.00     0.052 C 
HETATM    2  C2  UNL     1      23.442   4.083  49.648  1.00  0.00    -0.015 C 
HETATM    3  C3  UNL     1      23.814   2.960  50.260  1.00  0.00     0.030 C 
HETATM    4  S1  UNL     1      25.309   2.825  50.919  1.00  0.00    -0.098 SA
HETATM    5  C4  UNL     1      26.624   3.609  50.272  1.00  0.00     0.082 C 
HETATM    6  C5  UNL     1      26.643   4.645  49.208  1.00  0.00     0.063 C 
HETATM    7  N1  UNL     1      25.579   5.317  48.958  1.00  0.00    -0.248 NA
HETATM    8  C6  UNL     1      24.237   5.301  49.367  1.00  0.00     0.070 C 
HETATM    9  C7  UNL     1      23.385   6.327  49.581  1.00  0.00     0.106 C 
HETATM   10  C8  UNL     1      23.546   7.811  49.481  1.00  0.00     0.244 C 
HETATM   11  O1  UNL     1      22.826   8.825  49.644  1.00  0.00    -0.269 OA
HETATM   12  N2  UNL     1      24.820   8.449  49.109  1.00  0.00    -0.341 N 
HETATM   13  C9  UNL     1      26.008   9.193  48.756  1.00  0.00     0.090 A 
HETATM   14  C10 UNL     1      25.859   9.214  47.411  1.00  0.00     0.077 A 
HETATM   15  C11 UNL     1      26.929   9.457  46.595  1.00  0.00    -0.008 A 
HETATM   16  C12 UNL     1      27.434   9.508  47.845  1.00  0.00     0.071 A 
HETATM   17  C13 UNL     1      27.734   9.518  49.161  1.00  0.00     0.007 A 
HETATM   18  C14 UNL     1      26.629   9.274  49.976  1.00  0.00     0.007 A 
HETATM   19  N3  UNL     1      28.853   9.174  47.732  1.00  0.00    -0.393 N 
HETATM   20  C15 UNL     1      30.259   9.469  47.853  1.00  0.00     0.137 C 
HETATM   21  C16 UNL     1      31.075   8.481  48.594  1.00  0.00     0.136 C 
HETATM   22  N4  UNL     1      30.543   7.199  48.872  1.00  0.00    -0.406 N 
HETATM   23  C17 UNL     1      31.418   6.177  49.237  1.00  0.00     0.144 C 
HETATM   24  C18 UNL     1      29.219   6.951  48.496  1.00  0.00     0.119 C 
HETATM   25  C19 UNL     1      28.913   5.565  48.143  1.00  0.00     0.002 C 
HETATM   26  C20 UNL     1      27.882   4.833  48.503  1.00  0.00     0.030 C 
HETATM   27  C21 UNL     1      28.853   7.791  47.261  1.00  0.00     0.147 C 
HETATM   28  H6  UNL     1      25.344   7.524  49.000  1.00  0.00     0.164 HD
ENDROOT
TORSDOF 0
ENDMDL
MODEL 9
REMARK VINA RESULT:      -7.6      5.273      8.822
REMARK  0 active torsions:
REMARK  status: ('A' for Active; 'I' for Inactive)
ROOT
HETATM    1  C1  UNL     1      22.485   5.861  47.654  1.00  0.00     0.052 C 
HETATM    2  C2  UNL     1      23.737   5.614  48.412  1.00  0.00    -0.015 C 
HETATM    3  C3  UNL     1      23.698   4.491  49.127  1.00  0.00     0.030 C 
HETATM    4  S1  UNL     1      24.940   4.090  50.120  1.00  0.00    -0.098 SA
HETATM    5  C4  UNL     1      26.509   4.516  49.774  1.00  0.00     0.082 C 
HETATM    6  C5  UNL     1      26.998   5.433  48.713  1.00  0.00     0.063 C 
HETATM    7  N1  UNL     1      26.198   6.297  48.203  1.00  0.00    -0.248 NA
HETATM    8  C6  UNL     1      24.832   6.604  48.288  1.00  0.00     0.070 C 
HETATM    9  C7  UNL     1      24.212   7.805  48.267  1.00  0.00     0.106 C 
HETATM   10  C8  UNL     1      24.727   9.206  48.163  1.00  0.00     0.244 C 
HETATM   11  O1  UNL     1      24.241  10.361  48.124  1.00  0.00    -0.269 OA
HETATM   12  N2  UNL     1      26.163   9.520  48.079  1.00  0.00    -0.341 N 
HETATM   13  C9  UNL     1      27.538   9.959  47.991  1.00  0.00     0.090 A 
HETATM   14  C10 UNL     1      27.698   9.901  46.648  1.00  0.00     0.077 A 
HETATM   15  C11 UNL     1      28.948   9.839  46.097  1.00  0.00    -0.008 A 
HETATM   16  C12 UNL     1      29.163   9.882  47.428  1.00  0.00     0.071 A 
HETATM   17  C13 UNL     1      29.160   9.935  48.777  1.00  0.00     0.007 A 
HETATM   18  C14 UNL     1      27.877  10.002  49.319  1.00  0.00     0.007 A 
HETATM   19  N3  UNL     1      30.456   9.241  47.659  1.00  0.00    -0.393 N 
HETATM   20  C15 UNL     1      31.831   9.234  48.096  1.00  0.00     0.137 C 
HETATM   21  C16 UNL     1      32.214   8.157  49.035  1.00  0.00     0.136 C 
HETATM   22  N4  UNL     1      31.356   7.048  49.219  1.00  0.00    -0.406 N 
HETATM   23  C17 UNL     1      31.870   5.894  49.809  1.00  0.00     0.144 C 
HETATM   24  C18 UNL     1      30.126   7.062  48.553  1.00  0.00     0.119 C 
HETATM   25  C19 UNL     1      29.596   5.750  48.180  1.00  0.00     0.002 C 
HETATM   26  C20 UNL     1      28.371   5.291  48.311  1.00  0.00     0.030 C 
HETATM   27  C21 UNL     1      30.244   7.857  47.243  1.00  0.00     0.147 C 
HETATM   28  H6  UNL     1      26.472   8.498  48.123  1.00  0.00     0.164 HD
ENDROOT
TORSDOF 0
ENDMDL
