MODEL 1
REMARK VINA RESULT:      -8.6      0.000      0.000
REMARK  4 active torsions:
REMARK  status: ('A' for Active; 'I' for Inactive)
REMARK    1  A    between atoms: C2_2  and  C3_3 
REMARK       I    between atoms: C3_3  and  N1_5 
REMARK    2  A    between atoms: C10_16  and  N4_17 
REMARK    3  A    between atoms: N4_17  and  C11_18 
REMARK    4  A    between atoms: C11_18  and  C13_20 
ROOT
HETATM    1  C3  UNL     1      21.349   5.778  50.565  1.00  0.00     0.239 C 
HETATM    2  O1  UNL     1      20.175   6.033  50.188  1.00  0.00    -0.269 OA
HETATM    3  N1  UNL     1      21.923   4.516  50.836  1.00  0.00    -0.342 N 
HETATM    4  C4  UNL     1      23.296   4.455  51.259  1.00  0.00     0.153 C 
HETATM    5  C5  UNL     1      24.060   3.350  50.569  1.00  0.00     0.195 C 
HETATM    6  O2  UNL     1      23.791   2.130  51.226  1.00  0.00    -0.347 OA
HETATM    7  C6  UNL     1      22.680   1.716  51.925  1.00  0.00     0.100 A 
HETATM    8  C7  UNL     1      21.385   2.347  51.602  1.00  0.00     0.037 A 
HETATM    9  S1  UNL     1      20.217   1.547  52.708  1.00  0.00    -0.069 SA
HETATM   10  C8  UNL     1      21.421   0.442  53.537  1.00  0.00     0.116 A 
HETATM   11  N2  UNL     1      21.248  -0.429  54.470  1.00  0.00    -0.234 NA
HETATM   12  C9  UNL     1      22.290  -1.137  54.936  1.00  0.00     0.236 A 
HETATM   13  N3  UNL     1      23.442  -0.856  54.363  1.00  0.00    -0.224 NA
HETATM   14  C10 UNL     1      23.698   0.028  53.396  1.00  0.00     0.141 A 
HETATM   15  C19 UNL     1      22.657   0.767  52.899  1.00  0.00     0.080 A 
HETATM   16  C20 UNL     1      21.018   3.375  50.645  1.00  0.00     0.175 C 
ENDROOT
BRANCH  14  17
HETATM   17  N4  UNL     1      25.021   0.160  52.934  1.00  0.00    -0.366 N 
HETATM   18  H9  UNL     1      25.385  -0.073  51.997  1.00  0.00     0.161 HD
BRANCH  17  19
HETATM   19  C11 UNL     1      26.057   0.672  53.804  1.00  0.00     0.112 C 
HETATM   20  C12 UNL     1      26.196   2.166  53.785  1.00  0.00     0.037 C 
BRANCH  19  21
HETATM   21  C13 UNL     1      27.341  -0.014  53.634  1.00  0.00    -0.036 A 
HETATM   22  C14 UNL     1      27.450  -1.321  53.145  1.00  0.00     0.009 A 
HETATM   23  C15 UNL     1      28.680  -1.941  52.997  1.00  0.00     0.001 A 
HETATM   24  C16 UNL     1      29.835  -1.249  53.342  1.00  0.00     0.000 A 
HETATM   25  C17 UNL     1      29.719   0.058  53.831  1.00  0.00     0.001 A 
HETATM   26  C18 UNL     1      28.495   0.670  53.977  1.00  0.00     0.009 A 
ENDBRANCH  19  21
ENDBRANCH  17  19
ENDBRANCH  14  17
BRANCH   1  27
HETATM   27  C2  UNL     1      22.148   6.986  50.719  1.00  0.00     0.048 C 
HETATM   28  C1  UNL     1      22.046   7.654  49.557  1.00  0.00     0.037 C 
ENDBRANCH   1  27
TORSDOF 4
ENDMDL
MODEL 2
REMARK VINA RESULT:      -8.4      2.420      4.340
REMARK  4 active torsions:
REMARK  status: ('A' for Active; 'I' for Inactive)
REMARK    1  A    between atoms: C2_2  and  C3_3 
REMARK       I    between atoms: C3_3  and  N1_5 
REMARK    2  A    between atoms: C10_16  and  N4_17 
REMARK    3  A    between atoms: N4_17  and  C11_18 
REMARK    4  A    between atoms: C11_18  and  C13_20 
ROOT
HETATM    1  C3  UNL     1      18.836   1.310  51.475  1.00  0.00     0.239 C 
HETATM    2  O1  UNL     1      17.943   2.089  51.051  1.00  0.00    -0.269 OA
HETATM    3  N1  UNL     1      20.169   1.621  51.825  1.00  0.00    -0.342 N 
HETATM    4  C4  UNL     1      21.028   0.566  52.290  1.00  0.00     0.153 C 
HETATM    5  C5  UNL     1      21.852   0.983  53.485  1.00  0.00     0.195 C 
HETATM    6  O2  UNL     1      22.974   1.712  53.034  1.00  0.00    -0.347 OA
HETATM    7  C6  UNL     1      23.140   2.495  51.914  1.00  0.00     0.100 A 
HETATM    8  C7  UNL     1      21.938   3.100  51.307  1.00  0.00     0.037 A 
HETATM    9  S1  UNL     1      22.570   4.023  49.903  1.00  0.00    -0.069 SA
HETATM   10  C8  UNL     1      24.338   3.604  50.141  1.00  0.00     0.116 A 
HETATM   11  N2  UNL     1      25.376   3.949  49.462  1.00  0.00    -0.234 NA
HETATM   12  C9  UNL     1      26.595   3.518  49.823  1.00  0.00     0.236 A 
HETATM   13  N3  UNL     1      26.609   2.747  50.891  1.00  0.00    -0.224 NA
HETATM   14  C10 UNL     1      25.581   2.349  51.644  1.00  0.00     0.141 A 
HETATM   15  C19 UNL     1      24.323   2.771  51.302  1.00  0.00     0.080 A 
HETATM   16  C20 UNL     1      20.533   3.036  51.667  1.00  0.00     0.175 C 
ENDROOT
BRANCH  14  17
HETATM   17  N4  UNL     1      25.836   1.516  52.750  1.00  0.00    -0.366 N 
HETATM   18  H9  UNL     1      25.866   1.786  53.745  1.00  0.00     0.161 HD
BRANCH  17  19
HETATM   19  C11 UNL     1      26.097   0.105  52.564  1.00  0.00     0.112 C 
HETATM   20  C12 UNL     1      25.056  -0.798  53.156  1.00  0.00     0.037 C 
BRANCH  19  21
HETATM   21  C13 UNL     1      27.459  -0.281  52.944  1.00  0.00    -0.036 A 
HETATM   22  C14 UNL     1      27.912  -1.605  52.920  1.00  0.00     0.009 A 
HETATM   23  C15 UNL     1      29.207  -1.935  53.287  1.00  0.00     0.001 A 
HETATM   24  C16 UNL     1      30.078  -0.929  53.687  1.00  0.00     0.000 A 
HETATM   25  C17 UNL     1      29.617   0.393  53.708  1.00  0.00     0.001 A 
HETATM   26  C18 UNL     1      28.331   0.718  53.344  1.00  0.00     0.009 A 
ENDBRANCH  19  21
ENDBRANCH  17  19
ENDBRANCH  14  17
BRANCH   1  27
HETATM   27  C2  UNL     1      18.357  -0.061  51.589  1.00  0.00     0.048 C 
HETATM   28  C1  UNL     1      17.354  -0.183  50.703  1.00  0.00     0.037 C 
ENDBRANCH   1  27
TORSDOF 4
ENDMDL
MODEL 3
REMARK VINA RESULT:      -8.4      1.981      2.200
REMARK  4 active torsions:
REMARK  status: ('A' for Active; 'I' for Inactive)
REMARK    1  A    between atoms: C2_2  and  C3_3 
REMARK       I    between atoms: C3_3  and  N1_5 
REMARK    2  A    between atoms: C10_16  and  N4_17 
REMARK    3  A    between atoms: N4_17  and  C11_18 
REMARK    4  A    between atoms: C11_18  and  C13_20 
ROOT
HETATM    1  C3  UNL     1      18.791   3.030  50.402  1.00  0.00     0.239 C 
HETATM    2  O1  UNL     1      17.576   2.711  50.330  1.00  0.00    -0.269 OA
HETATM    3  N1  UNL     1      19.890   2.208  50.734  1.00  0.00    -0.342 N 
HETATM    4  C4  UNL     1      21.207   2.785  50.756  1.00  0.00     0.153 C 
HETATM    5  C5  UNL     1      22.235   1.891  50.102  1.00  0.00     0.195 C 
HETATM    6  O2  UNL     1      22.640   0.907  51.029  1.00  0.00    -0.347 OA
HETATM    7  C6  UNL     1      21.959   0.334  52.079  1.00  0.00     0.100 A 
HETATM    8  C7  UNL     1      20.484   0.317  52.021  1.00  0.00     0.037 A 
HETATM    9  S1  UNL     1      19.992  -0.499  53.544  1.00  0.00    -0.069 SA
HETATM   10  C8  UNL     1      21.681  -0.787  54.194  1.00  0.00     0.116 A 
HETATM   11  N2  UNL     1      22.070  -1.349  55.286  1.00  0.00    -0.234 NA
HETATM   12  C9  UNL     1      23.379  -1.454  55.565  1.00  0.00     0.236 A 
HETATM   13  N3  UNL     1      24.175  -0.946  54.646  1.00  0.00    -0.224 NA
HETATM   14  C10 UNL     1      23.850  -0.352  53.497  1.00  0.00     0.141 A 
HETATM   15  C19 UNL     1      22.521  -0.229  53.183  1.00  0.00     0.080 A 
HETATM   16  C20 UNL     1      19.546   0.810  51.029  1.00  0.00     0.175 C 
ENDROOT
BRANCH  14  17
HETATM   17  N4  UNL     1      24.881   0.119  52.663  1.00  0.00    -0.366 N 
HETATM   18  H9  UNL     1      25.004  -0.060  51.655  1.00  0.00     0.161 HD
BRANCH  17  19
HETATM   19  C11 UNL     1      25.932   0.959  53.195  1.00  0.00     0.112 C 
HETATM   20  C12 UNL     1      26.035   2.307  52.546  1.00  0.00     0.037 C 
BRANCH  19  21
HETATM   21  C13 UNL     1      27.225   0.274  53.278  1.00  0.00    -0.036 A 
HETATM   22  C14 UNL     1      27.396  -1.080  52.964  1.00  0.00     0.009 A 
HETATM   23  C15 UNL     1      28.633  -1.695  53.054  1.00  0.00     0.001 A 
HETATM   24  C16 UNL     1      29.734  -0.953  53.465  1.00  0.00     0.000 A 
HETATM   25  C17 UNL     1      29.556   0.401  53.777  1.00  0.00     0.001 A 
HETATM   26  C18 UNL     1      28.326   1.009  53.688  1.00  0.00     0.009 A 
ENDBRANCH  19  21
ENDBRANCH  17  19
ENDBRANCH  14  17
BRANCH   1  27
HETATM   27  C2  UNL     1      19.007   4.437  50.089  1.00  0.00     0.048 C 
HETATM   28  C1  UNL     1      18.037   4.782  49.225  1.00  0.00     0.037 C 
ENDBRANCH   1  27
TORSDOF 4
ENDMDL
MODEL 4
REMARK VINA RESULT:      -8.3      2.763      6.959
REMARK  4 active torsions:
REMARK  status: ('A' for Active; 'I' for Inactive)
REMARK    1  A    between atoms: C2_2  and  C3_3 
REMARK       I    between atoms: C3_3  and  N1_5 
REMARK    2  A    between atoms: C10_16  and  N4_17 
REMARK    3  A    between atoms: N4_17  and  C11_18 
REMARK    4  A    between atoms: C11_18  and  C13_20 
ROOT
HETATM    1  C3  UNL     1      27.857  -0.031  54.087  1.00  0.00     0.239 C 
HETATM    2  O1  UNL     1      27.733  -0.463  55.263  1.00  0.00    -0.269 OA
HETATM    3  N1  UNL     1      26.934   0.729  53.336  1.00  0.00    -0.342 N 
HETATM    4  C4  UNL     1      27.284   1.119  51.996  1.00  0.00     0.153 C 
HETATM    5  C5  UNL     1      26.921   2.557  51.705  1.00  0.00     0.195 C 
HETATM    6  O2  UNL     1      25.550   2.624  51.378  1.00  0.00    -0.347 OA
HETATM    7  C6  UNL     1      24.497   1.830  51.771  1.00  0.00     0.100 A 
HETATM    8  C7  UNL     1      24.618   1.101  53.049  1.00  0.00     0.037 A 
HETATM    9  S1  UNL     1      23.070   0.202  53.193  1.00  0.00    -0.069 SA
HETATM   10  C8  UNL     1      22.328   0.788  51.623  1.00  0.00     0.116 A 
HETATM   11  N2  UNL     1      21.186   0.522  51.089  1.00  0.00    -0.234 NA
HETATM   12  C9  UNL     1      20.845   1.072  49.913  1.00  0.00     0.236 A 
HETATM   13  N3  UNL     1      21.757   1.870  49.397  1.00  0.00    -0.224 NA
HETATM   14  C10 UNL     1      22.956   2.192  49.887  1.00  0.00     0.141 A 
HETATM   15  C19 UNL     1      23.335   1.647  51.086  1.00  0.00     0.080 A 
HETATM   16  C20 UNL     1      25.681   1.043  54.036  1.00  0.00     0.175 C 
ENDROOT
BRANCH  14  17
HETATM   17  N4  UNL     1      23.772   3.074  49.153  1.00  0.00    -0.366 N 
HETATM   18  H9  UNL     1      24.494   2.829  48.459  1.00  0.00     0.161 HD
BRANCH  17  19
HETATM   19  C11 UNL     1      23.653   4.505  49.329  1.00  0.00     0.112 C 
HETATM   20  C12 UNL     1      22.419   5.101  48.721  1.00  0.00     0.037 C 
BRANCH  19  21
HETATM   21  C13 UNL     1      24.871   5.231  48.957  1.00  0.00    -0.036 A 
HETATM   22  C14 UNL     1      26.150   4.668  49.033  1.00  0.00     0.009 A 
HETATM   23  C15 UNL     1      27.281   5.384  48.674  1.00  0.00     0.001 A 
HETATM   24  C16 UNL     1      27.143   6.692  48.227  1.00  0.00     0.000 A 
HETATM   25  C17 UNL     1      25.860   7.249  48.153  1.00  0.00     0.001 A 
HETATM   26  C18 UNL     1      24.740   6.536  48.511  1.00  0.00     0.009 A 
ENDBRANCH  19  21
ENDBRANCH  17  19
ENDBRANCH  14  17
BRANCH   1  27
HETATM   27  C2  UNL     1      29.136  -0.405  53.499  1.00  0.00     0.048 C 
HETATM   28  C1  UNL     1      29.101  -1.740  53.341  1.00  0.00     0.037 C 
ENDBRANCH   1  27
TORSDOF 4
ENDMDL
MODEL 5
REMARK VINA RESULT:      -8.1      2.150      2.644
REMARK  4 active torsions:
REMARK  status: ('A' for Active; 'I' for Inactive)
REMARK    1  A    between atoms: C2_2  and  C3_3 
REMARK       I    between atoms: C3_3  and  N1_5 
REMARK    2  A    between atoms: C10_16  and  N4_17 
REMARK    3  A    between atoms: N4_17  and  C11_18 
REMARK    4  A    between atoms: C11_18  and  C13_20 
ROOT
HETATM    1  C3  UNL     1      24.687   6.614  48.655  1.00  0.00     0.239 C 
HETATM    2  O1  UNL     1      23.810   7.209  47.975  1.00  0.00    -0.269 OA
HETATM    3  N1  UNL     1      24.658   5.291  49.149  1.00  0.00    -0.342 N 
HETATM    4  C4  UNL     1      25.780   4.811  49.910  1.00  0.00     0.153 C 
HETATM    5  C5  UNL     1      26.182   3.409  49.515  1.00  0.00     0.195 C 
HETATM    6  O2  UNL     1      25.332   2.489  50.166  1.00  0.00    -0.347 OA
HETATM    7  C6  UNL     1      24.028   2.620  50.587  1.00  0.00     0.100 A 
HETATM    8  C7  UNL     1      23.176   3.613  49.903  1.00  0.00     0.037 A 
HETATM    9  S1  UNL     1      21.587   3.475  50.730  1.00  0.00    -0.069 SA
HETATM   10  C8  UNL     1      22.068   2.160  51.913  1.00  0.00     0.116 A 
HETATM   11  N2  UNL     1      21.382   1.571  52.829  1.00  0.00    -0.234 NA
HETATM   12  C9  UNL     1      21.946   0.621  53.592  1.00  0.00     0.236 A 
HETATM   13  N3  UNL     1      23.209   0.374  53.312  1.00  0.00    -0.224 NA
HETATM   14  C10 UNL     1      23.983   0.939  52.383  1.00  0.00     0.141 A 
HETATM   15  C19 UNL     1      23.437   1.913  51.587  1.00  0.00     0.080 A 
HETATM   16  C20 UNL     1      23.443   4.536  48.815  1.00  0.00     0.175 C 
ENDROOT
BRANCH  14  17
HETATM   17  N4  UNL     1      25.319   0.511  52.263  1.00  0.00    -0.366 N 
HETATM   18  H9  UNL     1      25.763   0.061  51.448  1.00  0.00     0.161 HD
BRANCH  17  19
HETATM   19  C11 UNL     1      26.247   0.681  53.359  1.00  0.00     0.112 C 
HETATM   20  C12 UNL     1      26.732   2.089  53.545  1.00  0.00     0.037 C 
BRANCH  19  21
HETATM   21  C13 UNL     1      27.342  -0.292  53.340  1.00  0.00    -0.036 A 
HETATM   22  C14 UNL     1      28.632  -0.002  53.800  1.00  0.00     0.009 A 
HETATM   23  C15 UNL     1      29.644  -0.947  53.767  1.00  0.00     0.001 A 
HETATM   24  C16 UNL     1      29.375  -2.214  53.266  1.00  0.00     0.000 A 
HETATM   25  C17 UNL     1      28.083  -2.498  52.807  1.00  0.00     0.001 A 
HETATM   26  C18 UNL     1      27.080  -1.557  52.841  1.00  0.00     0.009 A 
ENDBRANCH  19  21
ENDBRANCH  17  19
ENDBRANCH  14  17
BRANCH   1  27
HETATM   27  C2  UNL     1      25.841   7.462  48.921  1.00  0.00     0.048 C 
HETATM   28  C1  UNL     1      26.485   7.599  47.749  1.00  0.00     0.037 C 
ENDBRANCH   1  27
TORSDOF 4
ENDMDL
MODEL 6
REMARK VINA RESULT:      -7.9      2.957      7.029
REMARK  4 active torsions:
REMARK  status: ('A' for Active; 'I' for Inactive)
REMARK    1  A    between atoms: C2_2  and  C3_3 
REMARK       I    between atoms: C3_3  and  N1_5 
REMARK    2  A    between atoms: C10_16  and  N4_17 
REMARK    3  A    between atoms: N4_17  and  C11_18 
REMARK    4  A    between atoms: C11_18  and  C13_20 
ROOT
HETATM    1  C3  UNL     1      26.498  -0.578  53.478  1.00  0.00     0.239 C 
HETATM    2  O1  UNL     1      26.116  -1.065  54.573  1.00  0.00    -0.269 OA
HETATM    3  N1  UNL     1      25.959   0.523  52.777  1.00  0.00    -0.342 N 
HETATM    4  C4  UNL     1      26.558   0.912  51.529  1.00  0.00     0.153 C 
HETATM    5  C5  UNL     1      26.716   2.410  51.412  1.00  0.00     0.195 C 
HETATM    6  O2  UNL     1      25.484   2.969  51.008  1.00  0.00    -0.347 OA
HETATM    7  C6  UNL     1      24.194   2.538  51.219  1.00  0.00     0.100 A 
HETATM    8  C7  UNL     1      23.935   1.680  52.392  1.00  0.00     0.037 A 
HETATM    9  S1  UNL     1      22.172   1.344  52.312  1.00  0.00    -0.069 SA
HETATM   10  C8  UNL     1      21.834   2.308  50.790  1.00  0.00     0.116 A 
HETATM   11  N2  UNL     1      20.732   2.499  50.151  1.00  0.00    -0.234 NA
HETATM   12  C9  UNL     1      20.716   3.253  49.041  1.00  0.00     0.236 A 
HETATM   13  N3  UNL     1      21.888   3.747  48.698  1.00  0.00    -0.224 NA
HETATM   14  C10 UNL     1      23.066   3.594  49.305  1.00  0.00     0.141 A 
HETATM   15  C19 UNL     1      23.117   2.830  50.442  1.00  0.00     0.080 A 
HETATM   16  C20 UNL     1      24.809   1.164  53.430  1.00  0.00     0.175 C 
ENDROOT
BRANCH  14  17
HETATM   17  N4  UNL     1      24.198   4.223  48.752  1.00  0.00    -0.366 N 
HETATM   18  H9  UNL     1      24.853   3.836  48.056  1.00  0.00     0.161 HD
BRANCH  17  19
HETATM   19  C11 UNL     1      24.561   5.565  49.149  1.00  0.00     0.112 C 
HETATM   20  C12 UNL     1      23.538   6.608  48.808  1.00  0.00     0.037 C 
BRANCH  19  21
HETATM   21  C13 UNL     1      25.912   5.943  48.725  1.00  0.00    -0.036 A 
HETATM   22  C14 UNL     1      26.226   7.205  48.206  1.00  0.00     0.009 A 
HETATM   23  C15 UNL     1      27.514   7.529  47.813  1.00  0.00     0.001 A 
HETATM   24  C16 UNL     1      28.521   6.580  47.938  1.00  0.00     0.000 A 
HETATM   25  C17 UNL     1      28.201   5.320  48.457  1.00  0.00     0.001 A 
HETATM   26  C18 UNL     1      26.920   5.001  48.845  1.00  0.00     0.009 A 
ENDBRANCH  19  21
ENDBRANCH  17  19
ENDBRANCH  14  17
BRANCH   1  27
HETATM   27  C2  UNL     1      27.642  -1.296  52.930  1.00  0.00     0.048 C 
HETATM   28  C1  UNL     1      28.711  -0.894  53.637  1.00  0.00     0.037 C 
ENDBRANCH   1  27
TORSDOF 4
ENDMDL
MODEL 7
REMARK VINA RESULT:      -7.8      3.458      6.868
REMARK  4 active torsions:
REMARK  status: ('A' for Active; 'I' for Inactive)
REMARK    1  A    between atoms: C2_2  and  C3_3 
REMARK       I    between atoms: C3_3  and  N1_5 
REMARK    2  A    between atoms: C10_16  and  N4_17 
REMARK    3  A    between atoms: N4_17  and  C11_18 
REMARK    4  A    between atoms: C11_18  and  C13_20 
ROOT
HETATM    1  C3  UNL     1      21.538   0.396  53.432  1.00  0.00     0.239 C 
HETATM    2  O1  UNL     1      20.361   0.148  53.804  1.00  0.00    -0.269 OA
HETATM    3  N1  UNL     1      22.030   1.569  52.819  1.00  0.00    -0.342 N 
HETATM    4  C4  UNL     1      23.424   1.639  52.474  1.00  0.00     0.153 C 
HETATM    5  C5  UNL     1      24.036   2.973  52.833  1.00  0.00     0.195 C 
HETATM    6  O2  UNL     1      23.727   3.905  51.818  1.00  0.00    -0.347 OA
HETATM    7  C6  UNL     1      22.649   3.974  50.966  1.00  0.00     0.100 A 
HETATM    8  C7  UNL     1      21.386   3.341  51.395  1.00  0.00     0.037 A 
HETATM    9  S1  UNL     1      20.255   3.647  50.034  1.00  0.00    -0.069 SA
HETATM   10  C8  UNL     1      21.431   4.568  48.972  1.00  0.00     0.116 A 
HETATM   11  N2  UNL     1      21.269   5.096  47.809  1.00  0.00    -0.234 NA
HETATM   12  C9  UNL     1      22.285   5.733  47.207  1.00  0.00     0.236 A 
HETATM   13  N3  UNL     1      23.404   5.757  47.901  1.00  0.00    -0.224 NA
HETATM   14  C10 UNL     1      23.649   5.235  49.105  1.00  0.00     0.141 A 
HETATM   15  C19 UNL     1      22.632   4.578  49.747  1.00  0.00     0.080 A 
HETATM   16  C20 UNL     1      21.023   2.617  52.599  1.00  0.00     0.175 C 
ENDROOT
BRANCH  14  17
HETATM   17  N4  UNL     1      24.935   5.384  49.659  1.00  0.00    -0.366 N 
HETATM   18  H9  UNL     1      25.210   5.980  50.454  1.00  0.00     0.161 HD
BRANCH  17  19
HETATM   19  C11 UNL     1      26.059   4.657  49.112  1.00  0.00     0.112 C 
HETATM   20  C12 UNL     1      26.604   3.591  50.016  1.00  0.00     0.037 C 
BRANCH  19  21
HETATM   21  C13 UNL     1      27.107   5.534  48.583  1.00  0.00    -0.036 A 
HETATM   22  C14 UNL     1      26.863   6.845  48.156  1.00  0.00     0.009 A 
HETATM   23  C15 UNL     1      27.878   7.647  47.660  1.00  0.00     0.001 A 
HETATM   24  C16 UNL     1      29.170   7.140  47.584  1.00  0.00     0.000 A 
HETATM   25  C17 UNL     1      29.406   5.828  48.012  1.00  0.00     0.001 A 
HETATM   26  C18 UNL     1      28.396   5.034  48.504  1.00  0.00     0.009 A 
ENDBRANCH  19  21
ENDBRANCH  17  19
ENDBRANCH  14  17
BRANCH   1  27
HETATM   27  C2  UNL     1      22.441  -0.715  53.702  1.00  0.00     0.048 C 
HETATM   28  C1  UNL     1      21.689  -1.688  54.245  1.00  0.00     0.037 C 
ENDBRANCH   1  27
TORSDOF 4
ENDMDL
MODEL 8
REMARK VINA RESULT:      -7.6      2.793      7.636
REMARK  4 active torsions:
REMARK  status: ('A' for Active; 'I' for Inactive)
REMARK    1  A    between atoms: C2_2  and  C3_3 
REMARK       I    between atoms: C3_3  and  N1_5 
REMARK    2  A    between atoms: C10_16  and  N4_17 
REMARK    3  A    between atoms: N4_17  and  C11_18 
REMARK    4  A    between atoms: C11_18  and  C13_20 
ROOT
HETATM    1  C3  UNL     1      27.966   1.251  53.375  1.00  0.00     0.239 C 
HETATM    2  O1  UNL     1      28.986   1.683  52.778  1.00  0.00    -0.269 OA
HETATM    3  N1  UNL     1      26.628   1.244  52.922  1.00  0.00    -0.342 N 
HETATM    4  C4  UNL     1      25.609   0.696  53.777  1.00  0.00     0.153 C 
HETATM    5  C5  UNL     1      24.638  -0.181  53.021  1.00  0.00     0.195 C 
HETATM    6  O2  UNL     1      23.680   0.639  52.386  1.00  0.00    -0.347 OA
HETATM    7  C6  UNL     1      23.777   1.930  51.919  1.00  0.00     0.100 A 
HETATM    8  C7  UNL     1      25.115   2.435  51.552  1.00  0.00     0.037 A 
HETATM    9  S1  UNL     1      24.816   4.118  51.003  1.00  0.00    -0.069 SA
HETATM   10  C8  UNL     1      23.002   4.115  51.262  1.00  0.00     0.116 A 
HETATM   11  N2  UNL     1      22.128   5.040  51.061  1.00  0.00    -0.234 NA
HETATM   12  C9  UNL     1      20.831   4.815  51.325  1.00  0.00     0.236 A 
HETATM   13  N3  UNL     1      20.568   3.609  51.785  1.00  0.00    -0.224 NA
HETATM   14  C10 UNL     1      21.413   2.604  52.019  1.00  0.00     0.141 A 
HETATM   15  C19 UNL     1      22.745   2.801  51.760  1.00  0.00     0.080 A 
HETATM   16  C20 UNL     1      26.428   1.817  51.584  1.00  0.00     0.175 C 
ENDROOT
BRANCH  14  17
HETATM   17  N4  UNL     1      20.901   1.391  52.518  1.00  0.00    -0.366 N 
HETATM   18  H9  UNL     1      20.776   1.121  53.505  1.00  0.00     0.161 HD
BRANCH  17  19
HETATM   19  C11 UNL     1      20.475   0.345  51.613  1.00  0.00     0.112 C 
HETATM   20  C12 UNL     1      20.712   0.648  50.164  1.00  0.00     0.037 C 
BRANCH  19  21
HETATM   21  C13 UNL     1      19.110  -0.119  51.875  1.00  0.00    -0.036 A 
HETATM   22  C14 UNL     1      18.043   0.112  50.998  1.00  0.00     0.009 A 
HETATM   23  C15 UNL     1      16.764  -0.340  51.277  1.00  0.00     0.001 A 
HETATM   24  C16 UNL     1      16.532  -1.041  52.455  1.00  0.00     0.000 A 
HETATM   25  C17 UNL     1      17.603  -1.268  53.327  1.00  0.00     0.001 A 
HETATM   26  C18 UNL     1      18.872  -0.817  53.047  1.00  0.00     0.009 A 
ENDBRANCH  19  21
ENDBRANCH  17  19
ENDBRANCH  14  17
BRANCH   1  27
HETATM   27  C2  UNL     1      28.289   0.709  54.688  1.00  0.00     0.048 C 
HETATM   28  C1  UNL     1      29.125  -0.321  54.474  1.00  0.00     0.037 C 
ENDBRANCH   1  27
TORSDOF 4
ENDMDL
MODEL 9
REMARK VINA RESULT:      -7.6      2.888      4.771
REMARK  4 active torsions:
REMARK  status: ('A' for Active; 'I' for Inactive)
REMARK    1  A    between atoms: C2_2  and  C3_3 
REMARK       I    between atoms: C3_3  and  N1_5 
REMARK    2  A    between atoms: C10_16  and  N4_17 
REMARK    3  A    between atoms: N4_17  and  C11_18 
REMARK    4  A    between atoms: C11_18  and  C13_20 
ROOT
HETATM    1  C3  UNL     1      17.028   2.690  51.561  1.00  0.00     0.239 C 
HETATM    2  O1  UNL     1      16.032   1.942  51.740  1.00  0.00    -0.269 OA
HETATM    3  N1  UNL     1      18.375   2.314  51.357  1.00  0.00    -0.342 N 
HETATM    4  C4  UNL     1      19.362   3.344  51.172  1.00  0.00     0.153 C 
HETATM    5  C5  UNL     1      20.325   3.019  50.054  1.00  0.00     0.195 C 
HETATM    6  O2  UNL     1      21.316   2.142  50.545  1.00  0.00    -0.347 OA
HETATM    7  C6  UNL     1      21.261   1.205  51.552  1.00  0.00     0.100 A 
HETATM    8  C7  UNL     1      19.944   0.632  51.894  1.00  0.00     0.037 A 
HETATM    9  S1  UNL     1      20.298  -0.522  53.224  1.00  0.00    -0.069 SA
HETATM   10  C8  UNL     1      22.105  -0.231  53.294  1.00  0.00     0.116 A 
HETATM   11  N2  UNL     1      23.006  -0.752  54.053  1.00  0.00    -0.234 NA
HETATM   12  C9  UNL     1      24.291  -0.384  53.930  1.00  0.00     0.236 A 
HETATM   13  N3  UNL     1      24.514   0.518  52.997  1.00  0.00    -0.224 NA
HETATM   14  C10 UNL     1      23.639   1.101  52.175  1.00  0.00     0.141 A 
HETATM   15  C19 UNL     1      22.319   0.748  52.276  1.00  0.00     0.080 A 
HETATM   16  C20 UNL     1      18.616   0.865  51.357  1.00  0.00     0.175 C 
ENDROOT
BRANCH  14  17
HETATM   17  N4  UNL     1      24.111   2.049  51.247  1.00  0.00    -0.366 N 
HETATM   18  H9  UNL     1      24.159   1.952  50.221  1.00  0.00     0.161 HD
BRANCH  17  19
HETATM   19  C11 UNL     1      24.604   3.333  51.693  1.00  0.00     0.112 C 
HETATM   20  C12 UNL     1      23.572   4.192  52.362  1.00  0.00     0.037 C 
BRANCH  19  21
HETATM   21  C13 UNL     1      25.348   4.053  50.656  1.00  0.00    -0.036 A 
HETATM   22  C14 UNL     1      26.472   3.522  50.013  1.00  0.00     0.009 A 
HETATM   23  C15 UNL     1      27.153   4.231  49.036  1.00  0.00     0.001 A 
HETATM   24  C16 UNL     1      26.710   5.500  48.685  1.00  0.00     0.000 A 
HETATM   25  C17 UNL     1      25.584   6.026  49.331  1.00  0.00     0.001 A 
HETATM   26  C18 UNL     1      24.912   5.319  50.301  1.00  0.00     0.009 A 
ENDBRANCH  19  21
ENDBRANCH  17  19
ENDBRANCH  14  17
BRANCH   1  27
HETATM   27  C2  UNL     1      16.665   4.100  51.581  1.00  0.00     0.048 C 
HETATM   28  C1  UNL     1      15.749   4.238  52.556  1.00  0.00     0.037 C 
ENDBRANCH   1  27
TORSDOF 4
ENDMDL
