MODEL 1
REMARK VINA RESULT:      -8.9      0.000      0.000
REMARK  2 active torsions:
REMARK  status: ('A' for Active; 'I' for Inactive)
REMARK    1  A    between atoms: C9_11  and  N3_12 
REMARK    2  A    between atoms: N3_12  and  C10_13 
ROOT
HETATM    1  C1  UNL     1      29.929  -0.078  53.435  1.00  0.00     0.068 C 
HETATM    2  C2  UNL     1      28.653  -0.049  54.173  1.00  0.00     0.009 C 
HETATM    3  C3  UNL     1      27.564  -0.013  54.932  1.00  0.00     0.023 C 
HETATM    4  C4  UNL     1      26.143  -0.029  55.222  1.00  0.00     0.005 C 
HETATM    5  C5  UNL     1      25.245  -0.163  54.282  1.00  0.00     0.159 C 
HETATM    6  N1  UNL     1      24.133  -0.289  53.473  1.00  0.00    -0.288 NA
HETATM    7  C6  UNL     1      23.686   0.397  52.529  1.00  0.00     0.138 C 
HETATM    8  C7  UNL     1      23.647   1.498  51.578  1.00  0.00     0.112 C 
HETATM    9  C8  UNL     1      24.120   2.433  52.592  1.00  0.00     0.105 C 
HETATM   10  N2  UNL     1      24.486   3.202  53.411  1.00  0.00    -0.191 NA
HETATM   11  C9  UNL     1      23.552   2.498  50.656  1.00  0.00     0.166 C 
HETATM   12  O1  UNL     1      24.342   3.611  50.452  1.00  0.00    -0.323 OA
HETATM   13  C16 UNL     1      25.692   3.356  49.890  1.00  0.00     0.271 C 
HETATM   14  C17 UNL     1      26.427   2.622  50.838  1.00  0.00    -0.070 C 
HETATM   15  C18 UNL     1      26.985   2.045  51.591  1.00  0.00    -0.003 C 
HETATM   16  C19 UNL     1      27.678   1.301  52.571  1.00  0.00     0.300 C 
HETATM   17  O2  UNL     1      28.353   2.287  52.931  1.00  0.00    -0.258 OA
HETATM   18  N4  UNL     1      27.700  -0.066  53.090  1.00  0.00    -0.320 N 
HETATM   19  H15 UNL     1      27.064  -0.143  52.384  1.00  0.00     0.169 HD
ENDROOT
BRANCH  11  20
HETATM   20  N3  UNL     1      22.475   1.778  50.256  1.00  0.00    -0.336 N 
HETATM   21  H8  UNL     1      21.746   1.071  50.170  1.00  0.00     0.168 HD
BRANCH  20  22
HETATM   22  C10 UNL     1      22.001   2.547  49.153  1.00  0.00     0.035 A 
HETATM   23  C11 UNL     1      22.389   2.457  47.809  1.00  0.00     0.029 A 
HETATM   24  C12 UNL     1      21.859   3.235  46.809  1.00  0.00     0.004 A 
HETATM   25  C13 UNL     1      20.884   4.169  47.111  1.00  0.00     0.019 A 
HETATM   26  C14 UNL     1      20.419   4.353  48.390  1.00  0.00     0.013 A 
HETATM   27 BR1  UNL     1      19.089   5.594  48.887  1.00  0.00    -0.051 Br
HETATM   28  C15 UNL     1      21.010   3.530  49.322  1.00  0.00     0.048 A 
ENDBRANCH  20  22
ENDBRANCH  11  20
TORSDOF 2
ENDMDL
MODEL 2
REMARK VINA RESULT:      -8.3      2.961      5.127
REMARK  2 active torsions:
REMARK  status: ('A' for Active; 'I' for Inactive)
REMARK    1  A    between atoms: C9_11  and  N3_12 
REMARK    2  A    between atoms: N3_12  and  C10_13 
ROOT
HETATM    1  C1  UNL     1      21.907  -2.033  54.304  1.00  0.00     0.068 C 
HETATM    2  C2  UNL     1      21.361  -0.703  53.977  1.00  0.00     0.009 C 
HETATM    3  C3  UNL     1      20.810   0.489  53.779  1.00  0.00     0.023 C 
HETATM    4  C4  UNL     1      20.555   1.739  53.089  1.00  0.00     0.005 C 
HETATM    5  C5  UNL     1      21.124   2.030  51.949  1.00  0.00     0.159 C 
HETATM    6  N1  UNL     1      21.599   2.549  50.761  1.00  0.00    -0.288 NA
HETATM    7  C6  UNL     1      22.746   2.841  50.358  1.00  0.00     0.138 C 
HETATM    8  C7  UNL     1      24.192   2.986  50.433  1.00  0.00     0.112 C 
HETATM    9  C8  UNL     1      24.109   3.422  51.822  1.00  0.00     0.105 C 
HETATM   10  N2  UNL     1      24.052   3.793  52.942  1.00  0.00    -0.191 NA
HETATM   11  C9  UNL     1      25.546   3.143  50.432  1.00  0.00     0.166 C 
HETATM   12  O1  UNL     1      26.478   2.922  51.426  1.00  0.00    -0.323 OA
HETATM   13  C16 UNL     1      26.743   1.502  51.765  1.00  0.00     0.271 C 
HETATM   14  C17 UNL     1      25.567   0.958  52.313  1.00  0.00    -0.070 C 
HETATM   15  C18 UNL     1      24.637   0.550  52.737  1.00  0.00    -0.003 C 
HETATM   16  C19 UNL     1      23.430   0.049  53.273  1.00  0.00     0.300 C 
HETATM   17  O2  UNL     1      23.862   0.086  54.443  1.00  0.00    -0.258 OA
HETATM   18  N4  UNL     1      22.115  -0.371  52.792  1.00  0.00    -0.320 N 
HETATM   19  H15 UNL     1      22.559  -0.173  51.973  1.00  0.00     0.169 HD
ENDROOT
BRANCH  11  20
HETATM   20  N3  UNL     1      25.317   3.531  49.154  1.00  0.00    -0.336 N 
HETATM   21  H8  UNL     1      24.975   3.597  48.196  1.00  0.00     0.168 HD
BRANCH  20  22
HETATM   22  C10 UNL     1      26.155   4.681  49.041  1.00  0.00     0.035 A 
HETATM   23  C11 UNL     1      27.486   4.739  48.605  1.00  0.00     0.029 A 
HETATM   24  C12 UNL     1      28.208   5.903  48.514  1.00  0.00     0.004 A 
HETATM   25  C13 UNL     1      27.618   7.104  48.864  1.00  0.00     0.019 A 
HETATM   26  C14 UNL     1      26.320   7.180  49.307  1.00  0.00     0.013 A 
HETATM   27 BR1  UNL     1      25.437   8.773  49.795  1.00  0.00    -0.051 Br
HETATM   28  C15 UNL     1      25.678   5.963  49.365  1.00  0.00     0.048 A 
ENDBRANCH  20  22
ENDBRANCH  11  20
TORSDOF 2
ENDMDL
MODEL 3
REMARK VINA RESULT:      -8.2      4.226      6.953
REMARK  2 active torsions:
REMARK  status: ('A' for Active; 'I' for Inactive)
REMARK    1  A    between atoms: C9_11  and  N3_12 
REMARK    2  A    between atoms: N3_12  and  C10_13 
ROOT
HETATM    1  C1  UNL     1      29.217   8.466  48.563  1.00  0.00     0.068 C 
HETATM    2  C2  UNL     1      27.782   8.801  48.627  1.00  0.00     0.009 C 
HETATM    3  C3  UNL     1      26.508   9.174  48.601  1.00  0.00     0.023 C 
HETATM    4  C4  UNL     1      25.116   9.185  49.008  1.00  0.00     0.005 C 
HETATM    5  C5  UNL     1      24.675   8.443  49.989  1.00  0.00     0.159 C 
HETATM    6  N1  UNL     1      23.989   7.760  50.975  1.00  0.00    -0.288 NA
HETATM    7  C6  UNL     1      23.790   6.544  51.185  1.00  0.00     0.138 C 
HETATM    8  C7  UNL     1      23.877   5.113  50.938  1.00  0.00     0.112 C 
HETATM    9  C8  UNL     1      23.741   5.320  49.502  1.00  0.00     0.105 C 
HETATM   10  N2  UNL     1      23.614   5.475  48.337  1.00  0.00    -0.191 NA
HETATM   11  C9  UNL     1      23.924   3.761  50.770  1.00  0.00     0.166 C 
HETATM   12  O1  UNL     1      24.487   2.999  49.767  1.00  0.00    -0.323 OA
HETATM   13  C16 UNL     1      25.970   2.953  49.738  1.00  0.00     0.271 C 
HETATM   14  C17 UNL     1      26.439   4.247  49.447  1.00  0.00    -0.070 C 
HETATM   15  C18 UNL     1      26.788   5.266  49.221  1.00  0.00    -0.003 C 
HETATM   16  C19 UNL     1      27.209   6.583  48.935  1.00  0.00     0.300 C 
HETATM   17  O2  UNL     1      27.486   6.304  47.750  1.00  0.00    -0.258 OA
HETATM   18  N4  UNL     1      27.320   7.867  49.625  1.00  0.00    -0.320 N 
HETATM   19  H15 UNL     1      27.018   7.301  50.330  1.00  0.00     0.169 HD
ENDROOT
BRANCH  11  20
HETATM   20  N3  UNL     1      23.243   3.776  51.942  1.00  0.00    -0.336 N 
HETATM   21  H8  UNL     1      22.699   4.060  52.756  1.00  0.00     0.168 HD
BRANCH  20  22
HETATM   22  C10 UNL     1      23.361   2.420  52.368  1.00  0.00     0.035 A 
HETATM   23  C11 UNL     1      22.434   1.381  52.209  1.00  0.00     0.029 A 
HETATM   24  C12 UNL     1      22.647   0.095  52.641  1.00  0.00     0.004 A 
HETATM   25  C13 UNL     1      23.835  -0.227  53.272  1.00  0.00     0.019 A 
HETATM   26  C14 UNL     1      24.824   0.701  53.488  1.00  0.00     0.013 A 
HETATM   27 BR1  UNL     1      26.473   0.346  54.330  1.00  0.00    -0.051 Br
HETATM   28  C15 UNL     1      24.518   1.960  53.021  1.00  0.00     0.048 A 
ENDBRANCH  20  22
ENDBRANCH  11  20
TORSDOF 2
ENDMDL
MODEL 4
REMARK VINA RESULT:      -8.1      3.533      7.743
REMARK  2 active torsions:
REMARK  status: ('A' for Active; 'I' for Inactive)
REMARK    1  A    between atoms: C9_11  and  N3_12 
REMARK    2  A    between atoms: N3_12  and  C10_13 
ROOT
HETATM    1  C1  UNL     1      17.766  -0.134  50.387  1.00  0.00     0.068 C 
HETATM    2  C2  UNL     1      18.395   1.166  50.093  1.00  0.00     0.009 C 
HETATM    3  C3  UNL     1      18.859   2.384  49.836  1.00  0.00     0.023 C 
HETATM    4  C4  UNL     1      19.858   3.390  49.533  1.00  0.00     0.005 C 
HETATM    5  C5  UNL     1      21.119   3.089  49.373  1.00  0.00     0.159 C 
HETATM    6  N1  UNL     1      22.483   3.013  49.166  1.00  0.00    -0.288 NA
HETATM    7  C6  UNL     1      23.432   2.635  49.886  1.00  0.00     0.138 C 
HETATM    8  C7  UNL     1      24.079   2.116  51.082  1.00  0.00     0.112 C 
HETATM    9  C8  UNL     1      23.178   2.877  51.939  1.00  0.00     0.105 C 
HETATM   10  N2  UNL     1      22.464   3.504  52.642  1.00  0.00    -0.191 NA
HETATM   11  C9  UNL     1      24.748   1.630  52.165  1.00  0.00     0.166 C 
HETATM   12  O1  UNL     1      24.292   1.268  53.416  1.00  0.00    -0.323 OA
HETATM   13  C16 UNL     1      23.488   0.022  53.480  1.00  0.00     0.271 C 
HETATM   14  C17 UNL     1      22.296   0.236  52.763  1.00  0.00    -0.070 C 
HETATM   15  C18 UNL     1      21.372   0.421  52.195  1.00  0.00    -0.003 C 
HETATM   16  C19 UNL     1      20.196   0.682  51.458  1.00  0.00     0.300 C 
HETATM   17  O2  UNL     1      19.504   0.813  52.488  1.00  0.00    -0.258 OA
HETATM   18  N4  UNL     1      19.791   0.804  50.058  1.00  0.00    -0.320 N 
HETATM   19  H15 UNL     1      20.708   0.561  49.967  1.00  0.00     0.169 HD
ENDROOT
BRANCH  11  20
HETATM   20  N3  UNL     1      25.810   1.742  51.330  1.00  0.00    -0.336 N 
HETATM   21  H8  UNL     1      26.406   1.895  50.518  1.00  0.00     0.168 HD
BRANCH  20  22
HETATM   22  C10 UNL     1      26.895   1.389  52.186  1.00  0.00     0.035 A 
HETATM   23  C11 UNL     1      27.672   2.237  52.988  1.00  0.00     0.029 A 
HETATM   24  C12 UNL     1      28.691   1.799  53.797  1.00  0.00     0.004 A 
HETATM   25  C13 UNL     1      28.994   0.449  53.846  1.00  0.00     0.019 A 
HETATM   26  C14 UNL     1      28.307  -0.482  53.108  1.00  0.00     0.013 A 
HETATM   27 BR1  UNL     1      28.648  -2.337  53.123  1.00  0.00    -0.051 Br
HETATM   28  C15 UNL     1      27.306   0.052  52.329  1.00  0.00     0.048 A 
ENDBRANCH  20  22
ENDBRANCH  11  20
TORSDOF 2
ENDMDL
MODEL 5
REMARK VINA RESULT:      -7.9      5.760      7.828
REMARK  2 active torsions:
REMARK  status: ('A' for Active; 'I' for Inactive)
REMARK    1  A    between atoms: C9_11  and  N3_12 
REMARK    2  A    between atoms: N3_12  and  C10_13 
ROOT
HETATM    1  C1  UNL     1      32.190   8.113  47.396  1.00  0.00     0.068 C 
HETATM    2  C2  UNL     1      31.087   9.084  47.519  1.00  0.00     0.009 C 
HETATM    3  C3  UNL     1      30.138  10.012  47.542  1.00  0.00     0.023 C 
HETATM    4  C4  UNL     1      28.941  10.679  48.017  1.00  0.00     0.005 C 
HETATM    5  C5  UNL     1      28.263  10.240  49.043  1.00  0.00     0.159 C 
HETATM    6  N1  UNL     1      27.397   9.968  50.085  1.00  0.00    -0.288 NA
HETATM    7  C6  UNL     1      26.663   8.991  50.347  1.00  0.00     0.138 C 
HETATM    8  C7  UNL     1      26.054   7.684  50.147  1.00  0.00     0.112 C 
HETATM    9  C8  UNL     1      25.946   7.919  48.712  1.00  0.00     0.105 C 
HETATM   10  N2  UNL     1      25.836   8.107  47.551  1.00  0.00    -0.191 NA
HETATM   11  C9  UNL     1      25.452   6.468  50.025  1.00  0.00     0.166 C 
HETATM   12  O1  UNL     1      25.530   5.522  49.023  1.00  0.00    -0.323 OA
HETATM   13  C16 UNL     1      26.813   4.784  48.922  1.00  0.00     0.271 C 
HETATM   14  C17 UNL     1      27.816   5.703  48.563  1.00  0.00    -0.070 C 
HETATM   15  C18 UNL     1      28.588   6.437  48.285  1.00  0.00    -0.003 C 
HETATM   16  C19 UNL     1      29.560   7.398  47.932  1.00  0.00     0.300 C 
HETATM   17  O2  UNL     1      29.602   7.012  46.746  1.00  0.00    -0.258 OA
HETATM   18  N4  UNL     1      30.301   8.485  48.571  1.00  0.00    -0.320 N 
HETATM   19  H15 UNL     1      29.812   8.133  49.309  1.00  0.00     0.169 HD
ENDROOT
BRANCH  11  20
HETATM   20  N3  UNL     1      24.928   6.811  51.227  1.00  0.00    -0.336 N 
HETATM   21  H8  UNL     1      24.761   7.237  52.138  1.00  0.00     0.168 HD
BRANCH  20  22
HETATM   22  C10 UNL     1      23.766   5.985  51.287  1.00  0.00     0.035 A 
HETATM   23  C11 UNL     1      22.459   6.305  50.893  1.00  0.00     0.029 A 
HETATM   24  C12 UNL     1      21.403   5.431  50.975  1.00  0.00     0.004 A 
HETATM   25  C13 UNL     1      21.607   4.155  51.469  1.00  0.00     0.019 A 
HETATM   26  C14 UNL     1      22.840   3.721  51.888  1.00  0.00     0.013 A 
HETATM   27 BR1  UNL     1      23.207   1.999  52.565  1.00  0.00    -0.051 Br
HETATM   28  C15 UNL     1      23.834   4.666  51.769  1.00  0.00     0.048 A 
ENDBRANCH  20  22
ENDBRANCH  11  20
TORSDOF 2
ENDMDL
MODEL 6
REMARK VINA RESULT:      -7.7      8.283     10.007
REMARK  2 active torsions:
REMARK  status: ('A' for Active; 'I' for Inactive)
REMARK    1  A    between atoms: C9_11  and  N3_12 
REMARK    2  A    between atoms: N3_12  and  C10_13 
ROOT
HETATM    1  C1  UNL     1      33.122   2.011  47.687  1.00  0.00     0.068 C 
HETATM    2  C2  UNL     1      33.748   3.329  47.480  1.00  0.00     0.009 C 
HETATM    3  C3  UNL     1      34.375   4.469  47.213  1.00  0.00     0.023 C 
HETATM    4  C4  UNL     1      34.690   5.878  47.349  1.00  0.00     0.005 C 
HETATM    5  C5  UNL     1      34.093   6.640  48.227  1.00  0.00     0.159 C 
HETATM    6  N1  UNL     1      33.605   7.625  49.064  1.00  0.00    -0.288 NA
HETATM    7  C6  UNL     1      32.466   8.112  49.230  1.00  0.00     0.138 C 
HETATM    8  C7  UNL     1      31.039   8.283  49.001  1.00  0.00     0.112 C 
HETATM    9  C8  UNL     1      31.215   8.103  47.565  1.00  0.00     0.105 C 
HETATM   10  N2  UNL     1      31.349   7.976  46.398  1.00  0.00    -0.191 NA
HETATM   11  C9  UNL     1      29.701   8.491  48.842  1.00  0.00     0.166 C 
HETATM   12  O1  UNL     1      28.801   7.925  47.962  1.00  0.00    -0.323 OA
HETATM   13  C16 UNL     1      28.448   6.506  48.215  1.00  0.00     0.271 C 
HETATM   14  C17 UNL     1      29.605   5.729  48.020  1.00  0.00    -0.070 C 
HETATM   15  C18 UNL     1      30.521   5.138  47.867  1.00  0.00    -0.003 C 
HETATM   16  C19 UNL     1      31.710   4.403  47.668  1.00  0.00     0.300 C 
HETATM   17  O2  UNL     1      31.335   3.976  46.557  1.00  0.00    -0.258 OA
HETATM   18  N4  UNL     1      32.969   4.155  48.370  1.00  0.00    -0.320 N 
HETATM   19  H15 UNL     1      32.504   4.695  49.004  1.00  0.00     0.169 HD
ENDROOT
BRANCH  11  20
HETATM   20  N3  UNL     1      29.901   9.360  49.863  1.00  0.00    -0.336 N 
HETATM   21  H8  UNL     1      30.125   9.776  50.767  1.00  0.00     0.168 HD
BRANCH  20  22
HETATM   22  C10 UNL     1      29.536  10.603  49.267  1.00  0.00     0.035 A 
HETATM   23  C11 UNL     1      30.370  11.680  48.939  1.00  0.00     0.029 A 
HETATM   24  C12 UNL     1      29.926  12.837  48.348  1.00  0.00     0.004 A 
HETATM   25  C13 UNL     1      28.583  12.978  48.044  1.00  0.00     0.019 A 
HETATM   26  C14 UNL     1      27.665  11.995  48.315  1.00  0.00     0.013 A 
HETATM   27 BR1  UNL     1      25.822  12.101  47.927  1.00  0.00    -0.051 Br
HETATM   28  C15 UNL     1      28.204  10.875  48.908  1.00  0.00     0.048 A 
ENDBRANCH  20  22
ENDBRANCH  11  20
TORSDOF 2
ENDMDL
MODEL 7
REMARK VINA RESULT:      -7.7      2.030      2.567
REMARK  2 active torsions:
REMARK  status: ('A' for Active; 'I' for Inactive)
REMARK    1  A    between atoms: C9_11  and  N3_12 
REMARK    2  A    between atoms: N3_12  and  C10_13 
ROOT
HETATM    1  C1  UNL     1      27.915  -0.854  52.981  1.00  0.00     0.068 C 
HETATM    2  C2  UNL     1      26.532  -0.462  53.312  1.00  0.00     0.009 C 
HETATM    3  C3  UNL     1      25.311  -0.134  53.717  1.00  0.00     0.023 C 
HETATM    4  C4  UNL     1      23.944   0.331  53.581  1.00  0.00     0.005 C 
HETATM    5  C5  UNL     1      23.438   0.665  52.424  1.00  0.00     0.159 C 
HETATM    6  N1  UNL     1      22.697   1.067  51.329  1.00  0.00    -0.288 NA
HETATM    7  C6  UNL     1      22.838   1.992  50.500  1.00  0.00     0.138 C 
HETATM    8  C7  UNL     1      23.468   3.150  49.884  1.00  0.00     0.112 C 
HETATM    9  C8  UNL     1      23.812   3.698  51.190  1.00  0.00     0.105 C 
HETATM   10  N2  UNL     1      24.080   4.161  52.244  1.00  0.00    -0.191 NA
HETATM   11  C9  UNL     1      24.007   4.231  49.253  1.00  0.00     0.166 C 
HETATM   12  O1  UNL     1      25.113   4.995  49.565  1.00  0.00    -0.323 OA
HETATM   13  C16 UNL     1      26.432   4.344  49.361  1.00  0.00     0.271 C 
HETATM   14  C17 UNL     1      26.530   3.269  50.263  1.00  0.00    -0.070 C 
HETATM   15  C18 UNL     1      26.588   2.431  50.973  1.00  0.00    -0.003 C 
HETATM   16  C19 UNL     1      26.636   1.358  51.890  1.00  0.00     0.300 C 
HETATM   17  O2  UNL     1      27.404   1.969  52.661  1.00  0.00    -0.258 OA
HETATM   18  N4  UNL     1      26.063   0.020  52.036  1.00  0.00    -0.320 N 
HETATM   19  H15 UNL     1      25.723   0.278  51.183  1.00  0.00     0.169 HD
ENDROOT
BRANCH  11  20
HETATM   20  N3  UNL     1      22.976   4.018  48.399  1.00  0.00    -0.336 N 
HETATM   21  H8  UNL     1      22.254   3.587  47.823  1.00  0.00     0.168 HD
BRANCH  20  22
HETATM   22  C10 UNL     1      22.644   5.347  48.002  1.00  0.00     0.035 A 
HETATM   23  C11 UNL     1      23.005   6.010  46.821  1.00  0.00     0.029 A 
HETATM   24  C12 UNL     1      22.619   7.293  46.518  1.00  0.00     0.004 A 
HETATM   25  C13 UNL     1      21.828   7.998  47.408  1.00  0.00     0.019 A 
HETATM   26  C14 UNL     1      21.408   7.459  48.599  1.00  0.00     0.013 A 
HETATM   27 BR1  UNL     1      20.323   8.345  49.862  1.00  0.00    -0.051 Br
HETATM   28  C15 UNL     1      21.845   6.171  48.814  1.00  0.00     0.048 A 
ENDBRANCH  20  22
ENDBRANCH  11  20
TORSDOF 2
ENDMDL
MODEL 8
REMARK VINA RESULT:      -7.5      3.614      5.992
REMARK  2 active torsions:
REMARK  status: ('A' for Active; 'I' for Inactive)
REMARK    1  A    between atoms: C9_11  and  N3_12 
REMARK    2  A    between atoms: N3_12  and  C10_13 
ROOT
HETATM    1  C1  UNL     1      20.354  -1.639  54.075  1.00  0.00     0.068 C 
HETATM    2  C2  UNL     1      19.858  -0.722  53.032  1.00  0.00     0.009 C 
HETATM    3  C3  UNL     1      19.312   0.101  52.144  1.00  0.00     0.023 C 
HETATM    4  C4  UNL     1      19.270   0.960  50.977  1.00  0.00     0.005 C 
HETATM    5  C5  UNL     1      20.314   1.145  50.214  1.00  0.00     0.159 C 
HETATM    6  N1  UNL     1      21.269   1.489  49.277  1.00  0.00    -0.288 NA
HETATM    7  C6  UNL     1      22.374   2.066  49.361  1.00  0.00     0.138 C 
HETATM    8  C7  UNL     1      23.484   2.738  50.020  1.00  0.00     0.112 C 
HETATM    9  C8  UNL     1      22.571   3.444  50.910  1.00  0.00     0.105 C 
HETATM   10  N2  UNL     1      21.839   4.034  51.625  1.00  0.00    -0.191 NA
HETATM   11  C9  UNL     1      24.559   3.368  50.572  1.00  0.00     0.166 C 
HETATM   12  O1  UNL     1      24.805   3.753  51.874  1.00  0.00    -0.323 OA
HETATM   13  C16 UNL     1      25.080   2.656  52.836  1.00  0.00     0.271 C 
HETATM   14  C17 UNL     1      23.914   1.879  52.955  1.00  0.00    -0.070 C 
HETATM   15  C18 UNL     1      22.993   1.281  53.033  1.00  0.00    -0.003 C 
HETATM   16  C19 UNL     1      21.802   0.527  53.111  1.00  0.00     0.300 C 
HETATM   17  O2  UNL     1      21.497   1.007  54.222  1.00  0.00    -0.258 OA
HETATM   18  N4  UNL     1      21.071  -0.446  52.300  1.00  0.00    -0.320 N 
HETATM   19  H15 UNL     1      21.852  -0.310  51.771  1.00  0.00     0.169 HD
ENDROOT
BRANCH  11  20
HETATM   20  N3  UNL     1      25.014   3.317  49.296  1.00  0.00    -0.336 N 
HETATM   21  H8  UNL     1      25.241   3.020  48.347  1.00  0.00     0.168 HD
BRANCH  20  22
HETATM   22  C10 UNL     1      25.630   4.595  49.152  1.00  0.00     0.035 A 
HETATM   23  C11 UNL     1      25.053   5.858  49.348  1.00  0.00     0.029 A 
HETATM   24  C12 UNL     1      25.736   7.039  49.201  1.00  0.00     0.004 A 
HETATM   25  C13 UNL     1      27.072   7.018  48.840  1.00  0.00     0.019 A 
HETATM   26  C14 UNL     1      27.751   5.844  48.619  1.00  0.00     0.013 A 
HETATM   27 BR1  UNL     1      29.570   5.724  48.134  1.00  0.00    -0.051 Br
HETATM   28  C15 UNL     1      26.983   4.715  48.790  1.00  0.00     0.048 A 
ENDBRANCH  20  22
ENDBRANCH  11  20
TORSDOF 2
ENDMDL
MODEL 9
REMARK VINA RESULT:      -7.4      8.521     10.134
REMARK  2 active torsions:
REMARK  status: ('A' for Active; 'I' for Inactive)
REMARK    1  A    between atoms: C9_11  and  N3_12 
REMARK    2  A    between atoms: N3_12  and  C10_13 
ROOT
HETATM    1  C1  UNL     1      33.903   4.794  43.010  1.00  0.00     0.068 C 
HETATM    2  C2  UNL     1      34.153   4.507  44.435  1.00  0.00     0.009 C 
HETATM    3  C3  UNL     1      34.481   4.213  45.688  1.00  0.00     0.023 C 
HETATM    4  C4  UNL     1      34.290   4.098  47.121  1.00  0.00     0.005 C 
HETATM    5  C5  UNL     1      33.169   4.435  47.700  1.00  0.00     0.159 C 
HETATM    6  N1  UNL     1      32.096   4.724  48.522  1.00  0.00    -0.288 NA
HETATM    7  C6  UNL     1      31.475   5.781  48.769  1.00  0.00     0.138 C 
HETATM    8  C7  UNL     1      31.157   7.197  48.675  1.00  0.00     0.112 C 
HETATM    9  C8  UNL     1      32.571   7.544  48.616  1.00  0.00     0.105 C 
HETATM   10  N2  UNL     1      33.716   7.838  48.587  1.00  0.00    -0.191 NA
HETATM   11  C9  UNL     1      30.800   8.512  48.630  1.00  0.00     0.166 C 
HETATM   12  O1  UNL     1      31.365   9.574  47.954  1.00  0.00    -0.323 OA
HETATM   13  C16 UNL     1      31.184   9.578  46.480  1.00  0.00     0.271 C 
HETATM   14  C17 UNL     1      31.874   8.471  45.954  1.00  0.00    -0.070 C 
HETATM   15  C18 UNL     1      32.417   7.598  45.561  1.00  0.00    -0.003 C 
HETATM   16  C19 UNL     1      33.117   6.469  45.083  1.00  0.00     0.300 C 
HETATM   17  O2  UNL     1      34.065   7.160  44.657  1.00  0.00    -0.258 OA
HETATM   18  N4  UNL     1      32.947   5.017  45.042  1.00  0.00    -0.320 N 
HETATM   19  H15 UNL     1      32.127   5.290  45.443  1.00  0.00     0.169 HD
ENDROOT
BRANCH  11  20
HETATM   20  N3  UNL     1      29.817   8.085  49.459  1.00  0.00    -0.336 N 
HETATM   21  H8  UNL     1      29.299   7.701  50.249  1.00  0.00     0.168 HD
BRANCH  20  22
HETATM   22  C10 UNL     1      28.646   8.357  48.692  1.00  0.00     0.035 A 
HETATM   23  C11 UNL     1      27.869   7.454  47.954  1.00  0.00     0.029 A 
HETATM   24  C12 UNL     1      26.741   7.811  47.257  1.00  0.00     0.004 A 
HETATM   25  C13 UNL     1      26.320   9.129  47.264  1.00  0.00     0.019 A 
HETATM   26  C14 UNL     1      26.995  10.109  47.949  1.00  0.00     0.013 A 
HETATM   27 BR1  UNL     1      26.486  11.923  48.019  1.00  0.00    -0.051 Br
HETATM   28  C15 UNL     1      28.111   9.655  48.615  1.00  0.00     0.048 A 
ENDBRANCH  20  22
ENDBRANCH  11  20
TORSDOF 2
ENDMDL
