MODEL 1
REMARK VINA RESULT:      -7.6      0.000      0.000
REMARK  8 active torsions:
REMARK  status: ('A' for Active; 'I' for Inactive)
REMARK    1  A    between atoms: C2_2  and  N1_3 
REMARK    2  A    between atoms: N1_3  and  C4_5 
REMARK    3  A    between atoms: C4_5  and  C5_6 
REMARK    4  A    between atoms: C6_7  and  N2_8 
REMARK    5  A    between atoms: N2_8  and  O1_9 
REMARK    6  A    between atoms: N2_8  and  C7_10 
REMARK    7  A    between atoms: C13_18  and  N5_19 
REMARK    8  A    between atoms: C19_26  and  O2_27 
ROOT
HETATM    1  C7  UNL     1      24.006   2.220  50.672  1.00  0.00     0.186 A 
HETATM    2  C8  UNL     1      24.073   1.357  51.846  1.00  0.00     0.026 A 
HETATM    3  C9  UNL     1      22.725   1.147  51.821  1.00  0.00     0.076 A 
HETATM    4  N3  UNL     1      21.976   0.408  52.680  1.00  0.00    -0.260 NA
HETATM    5  C10 UNL     1      22.599  -0.231  53.717  1.00  0.00     0.142 A 
HETATM    6  C11 UNL     1      23.985  -0.032  53.761  1.00  0.00     0.089 A 
HETATM    7  C12 UNL     1      24.532  -0.813  54.861  1.00  0.00     0.103 C 
HETATM    8  N4  UNL     1      24.971  -1.464  55.740  1.00  0.00    -0.191 NA
HETATM    9  C13 UNL     1      24.765   0.714  52.902  1.00  0.00     0.067 A 
HETATM   10  C19 UNL     1      22.536   1.924  50.619  1.00  0.00     0.203 A 
ENDROOT
BRANCH   9  11
HETATM   11  N5  UNL     1      26.157   0.785  53.006  1.00  0.00    -0.349 N 
HETATM   12  C14 UNL     1      27.050   1.822  53.313  1.00  0.00     0.133 C 
HETATM   13  C15 UNL     1      28.333   1.785  53.586  1.00  0.00     0.131 C 
HETATM   14  F1  UNL     1      29.052   2.874  53.874  1.00  0.00    -0.205 F 
HETATM   15  C16 UNL     1      29.027   0.512  53.450  1.00  0.00     0.041 C 
HETATM   16  C17 UNL     1      28.208  -0.437  53.040  1.00  0.00    -0.004 C 
HETATM   17  C18 UNL     1      26.771  -0.491  52.689  1.00  0.00     0.156 C 
ENDBRANCH   9  11
BRANCH   1  18
HETATM   18  N2  UNL     1      24.201   3.670  50.930  1.00  0.00    -0.260 N 
BRANCH  18  19
HETATM   19  C6  UNL     1      24.259   5.016  50.474  1.00  0.00     0.115 C 
HETATM   20  C5  UNL     1      25.263   5.429  49.721  1.00  0.00     0.012 C 
BRANCH  20  21
HETATM   21  C4  UNL     1      26.456   4.720  49.200  1.00  0.00     0.150 C 
BRANCH  21  22
HETATM   22  N1  UNL     1      27.399   5.657  48.588  1.00  0.00    -0.392 N 
HETATM   23  C3  UNL     1      28.806   5.420  48.283  1.00  0.00     0.149 C 
BRANCH  22  24
HETATM   24  C2  UNL     1      27.026   6.974  48.205  1.00  0.00     0.075 C 
HETATM   25  C1  UNL     1      27.326   7.822  47.235  1.00  0.00     0.029 C 
ENDBRANCH  22  24
ENDBRANCH  21  22
ENDBRANCH  20  21
ENDBRANCH  18  19
BRANCH  18  26
HETATM   26  O1  UNL     1      24.480   4.091  52.212  1.00  0.00    -0.287 OA
HETATM   27  H11 UNL     1      25.364   4.511  52.254  1.00  0.00     0.244 HD
ENDBRANCH  18  26
ENDBRANCH   1  18
BRANCH  10  28
HETATM   28  O2  UNL     1      22.224   1.210  49.454  1.00  0.00    -0.382 OA
HETATM   29  C20 UNL     1      21.086   1.676  48.845  1.00  0.00     0.202 C 
ENDBRANCH  10  28
TORSDOF 8
ENDMDL
MODEL 2
REMARK VINA RESULT:      -7.6      1.496      1.962
REMARK  8 active torsions:
REMARK  status: ('A' for Active; 'I' for Inactive)
REMARK    1  A    between atoms: C2_2  and  N1_3 
REMARK    2  A    between atoms: N1_3  and  C4_5 
REMARK    3  A    between atoms: C4_5  and  C5_6 
REMARK    4  A    between atoms: C6_7  and  N2_8 
REMARK    5  A    between atoms: N2_8  and  O1_9 
REMARK    6  A    between atoms: N2_8  and  C7_10 
REMARK    7  A    between atoms: C13_18  and  N5_19 
REMARK    8  A    between atoms: C19_26  and  O2_27 
ROOT
HETATM    1  C7  UNL     1      23.756   2.164  50.698  1.00  0.00     0.186 A 
HETATM    2  C8  UNL     1      23.403   1.291  51.811  1.00  0.00     0.026 A 
HETATM    3  C9  UNL     1      22.069   1.467  51.582  1.00  0.00     0.076 A 
HETATM    4  N3  UNL     1      21.024   0.949  52.276  1.00  0.00    -0.260 NA
HETATM    5  C10 UNL     1      21.281   0.139  53.348  1.00  0.00     0.142 A 
HETATM    6  C11 UNL     1      22.644  -0.059  53.602  1.00  0.00     0.089 A 
HETATM    7  C12 UNL     1      22.781  -0.986  54.716  1.00  0.00     0.103 C 
HETATM    8  N4  UNL     1      22.884  -1.753  55.605  1.00  0.00    -0.191 NA
HETATM    9  C13 UNL     1      23.722   0.457  52.912  1.00  0.00     0.067 A 
HETATM   10  C19 UNL     1      22.288   2.292  50.417  1.00  0.00     0.203 A 
ENDROOT
BRANCH   9  11
HETATM   11  N5  UNL     1      25.047   0.133  53.217  1.00  0.00    -0.349 N 
HETATM   12  C14 UNL     1      25.847  -0.992  52.967  1.00  0.00     0.133 C 
HETATM   13  C15 UNL     1      27.140  -1.161  53.106  1.00  0.00     0.131 C 
HETATM   14  F1  UNL     1      27.765  -2.304  52.811  1.00  0.00    -0.205 F 
HETATM   15  C16 UNL     1      27.910  -0.090  53.725  1.00  0.00     0.041 C 
HETATM   16  C17 UNL     1      27.133   0.917  54.072  1.00  0.00    -0.004 C 
HETATM   17  C18 UNL     1      25.681   1.192  53.979  1.00  0.00     0.156 C 
ENDBRANCH   9  11
BRANCH   1  18
HETATM   18  N2  UNL     1      24.298   3.495  51.073  1.00  0.00    -0.260 N 
BRANCH  18  19
HETATM   19  C6  UNL     1      24.138   4.898  51.246  1.00  0.00     0.115 C 
HETATM   20  C5  UNL     1      24.485   5.738  50.287  1.00  0.00     0.012 C 
BRANCH  20  21
HETATM   21  C4  UNL     1      25.062   5.508  48.941  1.00  0.00     0.150 C 
BRANCH  21  22
HETATM   22  N1  UNL     1      26.423   6.039  48.854  1.00  0.00    -0.392 N 
HETATM   23  C3  UNL     1      26.839   7.430  49.002  1.00  0.00     0.149 C 
BRANCH  22  24
HETATM   24  C2  UNL     1      27.550   5.212  48.599  1.00  0.00     0.075 C 
HETATM   25  C1  UNL     1      28.813   5.378  48.242  1.00  0.00     0.029 C 
ENDBRANCH  22  24
ENDBRANCH  21  22
ENDBRANCH  20  21
ENDBRANCH  18  19
BRANCH  18  26
HETATM   26  O1  UNL     1      25.611   3.593  51.481  1.00  0.00    -0.287 OA
HETATM   27  H11 UNL     1      26.178   3.908  50.747  1.00  0.00     0.244 HD
ENDBRANCH  18  26
ENDBRANCH   1  18
BRANCH  10  28
HETATM   28  O2  UNL     1      21.976   1.720  49.177  1.00  0.00    -0.382 OA
HETATM   29  C20 UNL     1      21.122   2.502  48.440  1.00  0.00     0.202 C 
ENDBRANCH  10  28
TORSDOF 8
ENDMDL
MODEL 3
REMARK VINA RESULT:      -7.5      2.612      6.282
REMARK  8 active torsions:
REMARK  status: ('A' for Active; 'I' for Inactive)
REMARK    1  A    between atoms: C2_2  and  N1_3 
REMARK    2  A    between atoms: N1_3  and  C4_5 
REMARK    3  A    between atoms: C4_5  and  C5_6 
REMARK    4  A    between atoms: C6_7  and  N2_8 
REMARK    5  A    between atoms: N2_8  and  O1_9 
REMARK    6  A    between atoms: N2_8  and  C7_10 
REMARK    7  A    between atoms: C13_18  and  N5_19 
REMARK    8  A    between atoms: C19_26  and  O2_27 
ROOT
HETATM    1  C7  UNL     1      25.736   2.568  51.133  1.00  0.00     0.186 A 
HETATM    2  C8  UNL     1      24.358   3.021  51.275  1.00  0.00     0.026 A 
HETATM    3  C9  UNL     1      24.661   4.245  50.756  1.00  0.00     0.076 A 
HETATM    4  N3  UNL     1      23.834   5.307  50.575  1.00  0.00    -0.260 NA
HETATM    5  C10 UNL     1      22.520   5.190  50.938  1.00  0.00     0.142 A 
HETATM    6  C11 UNL     1      22.184   3.939  51.472  1.00  0.00     0.089 A 
HETATM    7  C12 UNL     1      20.756   3.921  51.752  1.00  0.00     0.103 C 
HETATM    8  N4  UNL     1      19.595   3.907  51.957  1.00  0.00    -0.191 NA
HETATM    9  C13 UNL     1      23.006   2.848  51.666  1.00  0.00     0.067 A 
HETATM   10  C19 UNL     1      26.038   3.894  50.501  1.00  0.00     0.203 A 
ENDROOT
BRANCH   9  11
HETATM   11  N5  UNL     1      22.541   1.621  52.147  1.00  0.00    -0.349 N 
HETATM   12  C14 UNL     1      22.686   0.946  53.368  1.00  0.00     0.133 C 
HETATM   13  C15 UNL     1      22.066  -0.114  53.831  1.00  0.00     0.131 C 
HETATM   14  F1  UNL     1      22.311  -0.637  55.036  1.00  0.00    -0.205 F 
HETATM   15  C16 UNL     1      21.157  -0.821  52.940  1.00  0.00     0.041 C 
HETATM   16  C17 UNL     1      21.118  -0.254  51.749  1.00  0.00    -0.004 C 
HETATM   17  C18 UNL     1      21.785   0.914  51.130  1.00  0.00     0.156 C 
ENDBRANCH   9  11
BRANCH   1  18
HETATM   18  N2  UNL     1      26.506   2.445  52.398  1.00  0.00    -0.260 N 
BRANCH  18  19
HETATM   19  C6  UNL     1      26.573   2.143  53.787  1.00  0.00     0.115 C 
HETATM   20  C5  UNL     1      26.366   0.912  54.218  1.00  0.00     0.012 C 
BRANCH  20  21
HETATM   21  C4  UNL     1      26.046  -0.342  53.494  1.00  0.00     0.150 C 
BRANCH  21  22
HETATM   22  N1  UNL     1      27.257  -1.124  53.236  1.00  0.00    -0.392 N 
HETATM   23  C3  UNL     1      27.352  -2.395  52.526  1.00  0.00     0.149 C 
BRANCH  22  24
HETATM   24  C2  UNL     1      28.542  -0.706  53.675  1.00  0.00     0.075 C 
HETATM   25  C1  UNL     1      29.803  -0.955  53.357  1.00  0.00     0.029 C 
ENDBRANCH  22  24
ENDBRANCH  21  22
ENDBRANCH  20  21
ENDBRANCH  18  19
BRANCH  18  26
HETATM   26  O1  UNL     1      27.852   2.739  52.395  1.00  0.00    -0.287 OA
HETATM   27  H11 UNL     1      28.313   2.240  51.689  1.00  0.00     0.244 HD
ENDBRANCH  18  26
ENDBRANCH   1  18
BRANCH  10  28
HETATM   28  O2  UNL     1      26.403   3.724  49.159  1.00  0.00    -0.382 OA
HETATM   29  C20 UNL     1      27.374   4.611  48.765  1.00  0.00     0.202 C 
ENDBRANCH  10  28
TORSDOF 8
ENDMDL
MODEL 4
REMARK VINA RESULT:      -7.2      2.060      3.672
REMARK  8 active torsions:
REMARK  status: ('A' for Active; 'I' for Inactive)
REMARK    1  A    between atoms: C2_2  and  N1_3 
REMARK    2  A    between atoms: N1_3  and  C4_5 
REMARK    3  A    between atoms: C4_5  and  C5_6 
REMARK    4  A    between atoms: C6_7  and  N2_8 
REMARK    5  A    between atoms: N2_8  and  O1_9 
REMARK    6  A    between atoms: N2_8  and  C7_10 
REMARK    7  A    between atoms: C13_18  and  N5_19 
REMARK    8  A    between atoms: C19_26  and  O2_27 
ROOT
HETATM    1  C7  UNL     1      23.868   2.112  50.674  1.00  0.00     0.186 A 
HETATM    2  C8  UNL     1      23.962   1.272  51.862  1.00  0.00     0.026 A 
HETATM    3  C9  UNL     1      22.618   1.040  51.857  1.00  0.00     0.076 A 
HETATM    4  N3  UNL     1      21.891   0.306  52.739  1.00  0.00    -0.260 NA
HETATM    5  C10 UNL     1      22.536  -0.304  53.780  1.00  0.00     0.142 A 
HETATM    6  C11 UNL     1      23.920  -0.082  53.803  1.00  0.00     0.089 A 
HETATM    7  C12 UNL     1      24.492  -0.834  54.910  1.00  0.00     0.103 C 
HETATM    8  N4  UNL     1      24.951  -1.462  55.796  1.00  0.00    -0.191 NA
HETATM    9  C13 UNL     1      24.678   0.660  52.921  1.00  0.00     0.067 A 
HETATM   10  C19 UNL     1      22.403   1.792  50.643  1.00  0.00     0.203 A 
ENDROOT
BRANCH   9  11
HETATM   11  N5  UNL     1      26.070   0.754  53.007  1.00  0.00    -0.349 N 
HETATM   12  C14 UNL     1      26.947   1.800  53.330  1.00  0.00     0.133 C 
HETATM   13  C15 UNL     1      28.234   1.780  53.584  1.00  0.00     0.131 C 
HETATM   14  F1  UNL     1      28.937   2.874  53.891  1.00  0.00    -0.205 F 
HETATM   15  C16 UNL     1      28.950   0.525  53.402  1.00  0.00     0.041 C 
HETATM   16  C17 UNL     1      28.143  -0.428  52.978  1.00  0.00    -0.004 C 
HETATM   17  C18 UNL     1      26.702  -0.500  52.646  1.00  0.00     0.156 C 
ENDBRANCH   9  11
BRANCH   1  18
HETATM   18  N2  UNL     1      24.043   3.569  50.902  1.00  0.00    -0.260 N 
BRANCH  18  19
HETATM   19  C6  UNL     1      23.743   4.922  50.582  1.00  0.00     0.115 C 
HETATM   20  C5  UNL     1      22.626   5.483  51.011  1.00  0.00     0.012 C 
BRANCH  20  21
HETATM   21  C4  UNL     1      21.513   4.951  51.835  1.00  0.00     0.150 C 
BRANCH  21  22
HETATM   22  N1  UNL     1      20.343   4.651  51.008  1.00  0.00    -0.392 N 
HETATM   23  C3  UNL     1      20.052   5.163  49.673  1.00  0.00     0.149 C 
BRANCH  22  24
HETATM   24  C2  UNL     1      19.306   3.782  51.441  1.00  0.00     0.075 C 
HETATM   25  C1  UNL     1      17.985   3.742  51.375  1.00  0.00     0.029 C 
ENDBRANCH  22  24
ENDBRANCH  21  22
ENDBRANCH  20  21
ENDBRANCH  18  19
BRANCH  18  26
HETATM   26  O1  UNL     1      24.904   3.993  51.892  1.00  0.00    -0.287 OA
HETATM   27  H11 UNL     1      25.184   3.241  52.452  1.00  0.00     0.244 HD
ENDBRANCH  18  26
ENDBRANCH   1  18
BRANCH  10  28
HETATM   28  O2  UNL     1      22.088   1.052  49.496  1.00  0.00    -0.382 OA
HETATM   29  C20 UNL     1      20.921   1.471  48.907  1.00  0.00     0.202 C 
ENDBRANCH  10  28
TORSDOF 8
ENDMDL
MODEL 5
REMARK VINA RESULT:      -7.2      2.109      2.921
REMARK  8 active torsions:
REMARK  status: ('A' for Active; 'I' for Inactive)
REMARK    1  A    between atoms: C2_2  and  N1_3 
REMARK    2  A    between atoms: N1_3  and  C4_5 
REMARK    3  A    between atoms: C4_5  and  C5_6 
REMARK    4  A    between atoms: C6_7  and  N2_8 
REMARK    5  A    between atoms: N2_8  and  O1_9 
REMARK    6  A    between atoms: N2_8  and  C7_10 
REMARK    7  A    between atoms: C13_18  and  N5_19 
REMARK    8  A    between atoms: C19_26  and  O2_27 
ROOT
HETATM    1  C7  UNL     1      23.890   2.105  50.593  1.00  0.00     0.186 A 
HETATM    2  C8  UNL     1      23.521   1.294  51.748  1.00  0.00     0.026 A 
HETATM    3  C9  UNL     1      22.197   1.580  51.580  1.00  0.00     0.076 A 
HETATM    4  N3  UNL     1      21.148   1.172  52.340  1.00  0.00    -0.260 NA
HETATM    5  C10 UNL     1      21.390   0.370  53.421  1.00  0.00     0.142 A 
HETATM    6  C11 UNL     1      22.743   0.060  53.613  1.00  0.00     0.089 A 
HETATM    7  C12 UNL     1      22.857  -0.847  54.746  1.00  0.00     0.103 C 
HETATM    8  N4  UNL     1      22.940  -1.597  55.651  1.00  0.00    -0.191 NA
HETATM    9  C13 UNL     1      23.823   0.463  52.856  1.00  0.00     0.067 A 
HETATM   10  C19 UNL     1      22.425   2.353  50.382  1.00  0.00     0.203 A 
ENDROOT
BRANCH   9  11
HETATM   11  N5  UNL     1      25.130   0.033  53.104  1.00  0.00    -0.349 N 
HETATM   12  C14 UNL     1      25.825  -1.153  52.825  1.00  0.00     0.133 C 
HETATM   13  C15 UNL     1      27.105  -1.427  52.909  1.00  0.00     0.131 C 
HETATM   14  F1  UNL     1      27.621  -2.618  52.591  1.00  0.00    -0.205 F 
HETATM   15  C16 UNL     1      27.985  -0.422  53.489  1.00  0.00     0.041 C 
HETATM   16  C17 UNL     1      27.308   0.645  53.866  1.00  0.00    -0.004 C 
HETATM   17  C18 UNL     1      25.881   1.037  53.834  1.00  0.00     0.156 C 
ENDBRANCH   9  11
BRANCH   1  18
HETATM   18  N2  UNL     1      24.562   3.393  50.902  1.00  0.00    -0.260 N 
BRANCH  18  19
HETATM   19  C6  UNL     1      25.338   4.517  50.502  1.00  0.00     0.115 C 
HETATM   20  C5  UNL     1      24.805   5.470  49.759  1.00  0.00     0.012 C 
BRANCH  20  21
HETATM   21  C4  UNL     1      23.442   5.634  49.199  1.00  0.00     0.150 C 
BRANCH  21  22
HETATM   22  N1  UNL     1      22.602   6.439  50.088  1.00  0.00    -0.392 N 
HETATM   23  C3  UNL     1      21.722   5.956  51.146  1.00  0.00     0.149 C 
BRANCH  22  24
HETATM   24  C2  UNL     1      22.548   7.856  50.009  1.00  0.00     0.075 C 
HETATM   25  C1  UNL     1      21.826   8.765  49.372  1.00  0.00     0.029 C 
ENDBRANCH  22  24
ENDBRANCH  21  22
ENDBRANCH  20  21
ENDBRANCH  18  19
BRANCH  18  26
HETATM   26  O1  UNL     1      24.501   3.890  52.185  1.00  0.00    -0.287 OA
HETATM   27  H11 UNL     1      24.032   3.265  52.776  1.00  0.00     0.244 HD
ENDBRANCH  18  26
ENDBRANCH   1  18
BRANCH  10  28
HETATM   28  O2  UNL     1      22.002   1.779  49.176  1.00  0.00    -0.382 OA
HETATM   29  C20 UNL     1      21.129   2.587  48.491  1.00  0.00     0.202 C 
ENDBRANCH  10  28
TORSDOF 8
ENDMDL
MODEL 6
REMARK VINA RESULT:      -6.9      2.972      6.859
REMARK  8 active torsions:
REMARK  status: ('A' for Active; 'I' for Inactive)
REMARK    1  A    between atoms: C2_2  and  N1_3 
REMARK    2  A    between atoms: N1_3  and  C4_5 
REMARK    3  A    between atoms: C4_5  and  C5_6 
REMARK    4  A    between atoms: C6_7  and  N2_8 
REMARK    5  A    between atoms: N2_8  and  O1_9 
REMARK    6  A    between atoms: N2_8  and  C7_10 
REMARK    7  A    between atoms: C13_18  and  N5_19 
REMARK    8  A    between atoms: C19_26  and  O2_27 
ROOT
HETATM    1  C7  UNL     1      25.952   3.051  50.449  1.00  0.00     0.186 A 
HETATM    2  C8  UNL     1      24.695   3.788  50.394  1.00  0.00     0.026 A 
HETATM    3  C9  UNL     1      25.336   4.940  50.041  1.00  0.00     0.076 A 
HETATM    4  N3  UNL     1      24.795   6.165  49.814  1.00  0.00    -0.260 NA
HETATM    5  C10 UNL     1      23.442   6.321  49.937  1.00  0.00     0.142 A 
HETATM    6  C11 UNL     1      22.761   5.150  50.296  1.00  0.00     0.089 A 
HETATM    7  C12 UNL     1      21.333   5.433  50.328  1.00  0.00     0.103 C 
HETATM    8  N4  UNL     1      20.177   5.664  50.331  1.00  0.00    -0.191 NA
HETATM    9  C13 UNL     1      23.288   3.898  50.533  1.00  0.00     0.067 A 
HETATM   10  C19 UNL     1      26.633   4.308  49.994  1.00  0.00     0.203 A 
ENDROOT
BRANCH   9  11
HETATM   11  N5  UNL     1      22.499   2.781  50.820  1.00  0.00    -0.349 N 
HETATM   12  C14 UNL     1      21.528   2.074  50.095  1.00  0.00     0.133 C 
HETATM   13  C15 UNL     1      20.959   0.917  50.342  1.00  0.00     0.131 C 
HETATM   14  F1  UNL     1      20.048   0.363  49.538  1.00  0.00    -0.205 F 
HETATM   15  C16 UNL     1      21.250   0.267  51.613  1.00  0.00     0.041 C 
HETATM   16  C17 UNL     1      22.068   0.997  52.346  1.00  0.00    -0.004 C 
HETATM   17  C18 UNL     1      22.738   2.305  52.170  1.00  0.00     0.156 C 
ENDBRANCH   9  11
BRANCH   1  18
HETATM   18  N2  UNL     1      26.432   2.702  51.810  1.00  0.00    -0.260 N 
BRANCH  18  19
HETATM   19  C6  UNL     1      26.183   2.272  53.143  1.00  0.00     0.115 C 
HETATM   20  C5  UNL     1      26.018   0.990  53.416  1.00  0.00     0.012 C 
BRANCH  20  21
HETATM   21  C4  UNL     1      26.039  -0.210  52.545  1.00  0.00     0.150 C 
BRANCH  21  22
HETATM   22  N1  UNL     1      27.198  -1.055  52.840  1.00  0.00    -0.392 N 
HETATM   23  C3  UNL     1      27.357  -2.472  52.535  1.00  0.00     0.149 C 
BRANCH  22  24
HETATM   24  C2  UNL     1      28.357  -0.557  53.494  1.00  0.00     0.075 C 
HETATM   25  C1  UNL     1      29.647  -0.851  53.537  1.00  0.00     0.029 C 
ENDBRANCH  22  24
ENDBRANCH  21  22
ENDBRANCH  20  21
ENDBRANCH  18  19
BRANCH  18  26
HETATM   26  O1  UNL     1      27.779   2.791  52.089  1.00  0.00    -0.287 OA
HETATM   27  H11 UNL     1      28.288   2.161  51.538  1.00  0.00     0.244 HD
ENDBRANCH  18  26
ENDBRANCH   1  18
BRANCH  10  28
HETATM   28  O2  UNL     1      27.196   4.126  48.724  1.00  0.00    -0.382 OA
HETATM   29  C20 UNL     1      28.199   5.026  48.462  1.00  0.00     0.202 C 
ENDBRANCH  10  28
TORSDOF 8
ENDMDL
MODEL 7
REMARK VINA RESULT:      -6.8      2.501      4.271
REMARK  8 active torsions:
REMARK  status: ('A' for Active; 'I' for Inactive)
REMARK    1  A    between atoms: C2_2  and  N1_3 
REMARK    2  A    between atoms: N1_3  and  C4_5 
REMARK    3  A    between atoms: C4_5  and  C5_6 
REMARK    4  A    between atoms: C6_7  and  N2_8 
REMARK    5  A    between atoms: N2_8  and  O1_9 
REMARK    6  A    between atoms: N2_8  and  C7_10 
REMARK    7  A    between atoms: C13_18  and  N5_19 
REMARK    8  A    between atoms: C19_26  and  O2_27 
ROOT
HETATM    1  C7  UNL     1      23.872   3.062  49.596  1.00  0.00     0.186 A 
HETATM    2  C8  UNL     1      23.405   2.056  50.542  1.00  0.00     0.026 A 
HETATM    3  C9  UNL     1      22.189   1.980  49.927  1.00  0.00     0.076 A 
HETATM    4  N3  UNL     1      21.122   1.214  50.272  1.00  0.00    -0.260 NA
HETATM    5  C10 UNL     1      21.223   0.393  51.361  1.00  0.00     0.142 A 
HETATM    6  C11 UNL     1      22.465   0.452  52.008  1.00  0.00     0.089 A 
HETATM    7  C12 UNL     1      22.466  -0.510  53.101  1.00  0.00     0.103 C 
HETATM    8  N4  UNL     1      22.468  -1.305  53.971  1.00  0.00    -0.191 NA
HETATM    9  C13 UNL     1      23.561   1.222  51.678  1.00  0.00     0.067 A 
HETATM   10  C19 UNL     1      22.555   2.916  48.891  1.00  0.00     0.203 A 
ENDROOT
BRANCH   9  11
HETATM   11  N5  UNL     1      24.778   1.146  52.360  1.00  0.00    -0.349 N 
HETATM   12  C14 UNL     1      25.840   0.230  52.339  1.00  0.00     0.133 C 
HETATM   13  C15 UNL     1      27.043   0.313  52.857  1.00  0.00     0.131 C 
HETATM   14  F1  UNL     1      27.959  -0.653  52.739  1.00  0.00    -0.205 F 
HETATM   15  C16 UNL     1      27.349   1.459  53.702  1.00  0.00     0.041 C 
HETATM   16  C17 UNL     1      26.305   2.257  53.820  1.00  0.00    -0.004 C 
HETATM   17  C18 UNL     1      24.919   2.242  53.301  1.00  0.00     0.156 C 
ENDBRANCH   9  11
BRANCH   1  18
HETATM   18  N2  UNL     1      23.987   4.443  50.132  1.00  0.00    -0.260 N 
BRANCH  18  19
HETATM   19  C6  UNL     1      23.455   5.747  50.329  1.00  0.00     0.115 C 
HETATM   20  C5  UNL     1      22.384   5.930  51.081  1.00  0.00     0.012 C 
BRANCH  20  21
HETATM   21  C4  UNL     1      21.538   4.974  51.834  1.00  0.00     0.150 C 
BRANCH  21  22
HETATM   22  N1  UNL     1      20.283   4.711  51.127  1.00  0.00    -0.392 N 
HETATM   23  C3  UNL     1      19.835   5.309  49.875  1.00  0.00     0.149 C 
BRANCH  22  24
HETATM   24  C2  UNL     1      19.312   3.795  51.613  1.00  0.00     0.075 C 
HETATM   25  C1  UNL     1      18.047   3.500  51.360  1.00  0.00     0.029 C 
ENDBRANCH  22  24
ENDBRANCH  21  22
ENDBRANCH  20  21
ENDBRANCH  18  19
BRANCH  18  26
HETATM   26  O1  UNL     1      25.133   4.806  50.804  1.00  0.00    -0.287 OA
HETATM   27  H11 UNL     1      25.854   5.010  50.174  1.00  0.00     0.244 HD
ENDBRANCH  18  26
ENDBRANCH   1  18
BRANCH  10  28
HETATM   28  O2  UNL     1      22.744   2.388  47.607  1.00  0.00    -0.382 OA
HETATM   29  C20 UNL     1      22.036   3.072  46.651  1.00  0.00     0.202 C 
ENDBRANCH  10  28
TORSDOF 8
ENDMDL
MODEL 8
REMARK VINA RESULT:      -6.8      2.729      6.711
REMARK  8 active torsions:
REMARK  status: ('A' for Active; 'I' for Inactive)
REMARK    1  A    between atoms: C2_2  and  N1_3 
REMARK    2  A    between atoms: N1_3  and  C4_5 
REMARK    3  A    between atoms: C4_5  and  C5_6 
REMARK    4  A    between atoms: C6_7  and  N2_8 
REMARK    5  A    between atoms: N2_8  and  O1_9 
REMARK    6  A    between atoms: N2_8  and  C7_10 
REMARK    7  A    between atoms: C13_18  and  N5_19 
REMARK    8  A    between atoms: C19_26  and  O2_27 
ROOT
HETATM    1  C7  UNL     1      23.467   2.765  52.149  1.00  0.00     0.186 A 
HETATM    2  C8  UNL     1      23.023   2.821  50.761  1.00  0.00     0.026 A 
HETATM    3  C9  UNL     1      22.524   1.553  50.824  1.00  0.00     0.076 A 
HETATM    4  N3  UNL     1      21.924   0.839  49.837  1.00  0.00    -0.260 NA
HETATM    5  C10 UNL     1      21.771   1.414  48.605  1.00  0.00     0.142 A 
HETATM    6  C11 UNL     1      22.274   2.719  48.517  1.00  0.00     0.089 A 
HETATM    7  C12 UNL     1      21.991   3.238  47.187  1.00  0.00     0.103 C 
HETATM    8  N4  UNL     1      21.740   3.659  46.115  1.00  0.00    -0.191 NA
HETATM    9  C13 UNL     1      22.887   3.462  49.504  1.00  0.00     0.067 A 
HETATM   10  C19 UNL     1      22.852   1.398  52.221  1.00  0.00     0.203 A 
ENDROOT
BRANCH   9  11
HETATM   11  N5  UNL     1      23.290   4.788  49.318  1.00  0.00    -0.349 N 
HETATM   12  C14 UNL     1      24.418   5.380  48.731  1.00  0.00     0.133 C 
HETATM   13  C15 UNL     1      24.651   6.631  48.412  1.00  0.00     0.131 C 
HETATM   14  F1  UNL     1      25.787   7.042  47.841  1.00  0.00    -0.205 F 
HETATM   15  C16 UNL     1      23.674   7.635  48.812  1.00  0.00     0.041 C 
HETATM   16  C17 UNL     1      22.672   7.088  49.474  1.00  0.00    -0.004 C 
HETATM   17  C18 UNL     1      22.332   5.711  49.897  1.00  0.00     0.156 C 
ENDBRANCH   9  11
BRANCH   1  18
HETATM   18  N2  UNL     1      24.934   2.650  52.349  1.00  0.00    -0.260 N 
BRANCH  18  19
HETATM   19  C6  UNL     1      26.242   2.403  51.845  1.00  0.00     0.115 C 
HETATM   20  C5  UNL     1      26.739   1.179  51.837  1.00  0.00     0.012 C 
BRANCH  20  21
HETATM   21  C4  UNL     1      26.171  -0.115  52.284  1.00  0.00     0.150 C 
BRANCH  21  22
HETATM   22  N1  UNL     1      27.217  -0.999  52.800  1.00  0.00    -0.392 N 
HETATM   23  C3  UNL     1      27.346  -2.436  52.580  1.00  0.00     0.149 C 
BRANCH  22  24
HETATM   24  C2  UNL     1      28.280  -0.528  53.617  1.00  0.00     0.075 C 
HETATM   25  C1  UNL     1      29.603  -0.532  53.585  1.00  0.00     0.029 C 
ENDBRANCH  22  24
ENDBRANCH  21  22
ENDBRANCH  20  21
ENDBRANCH  18  19
BRANCH  18  26
HETATM   26  O1  UNL     1      25.457   2.854  53.607  1.00  0.00    -0.287 OA
HETATM   27  H11 UNL     1      24.749   2.827  54.284  1.00  0.00     0.244 HD
ENDBRANCH  18  26
ENDBRANCH   1  18
BRANCH  10  28
HETATM   28  O2  UNL     1      21.778   1.393  53.120  1.00  0.00    -0.382 OA
HETATM   29  C20 UNL     1      21.736   0.250  53.879  1.00  0.00     0.202 C 
ENDBRANCH  10  28
TORSDOF 8
ENDMDL
MODEL 9
REMARK VINA RESULT:      -6.8      2.922      4.969
REMARK  8 active torsions:
REMARK  status: ('A' for Active; 'I' for Inactive)
REMARK    1  A    between atoms: C2_2  and  N1_3 
REMARK    2  A    between atoms: N1_3  and  C4_5 
REMARK    3  A    between atoms: C4_5  and  C5_6 
REMARK    4  A    between atoms: C6_7  and  N2_8 
REMARK    5  A    between atoms: N2_8  and  O1_9 
REMARK    6  A    between atoms: N2_8  and  C7_10 
REMARK    7  A    between atoms: C13_18  and  N5_19 
REMARK    8  A    between atoms: C19_26  and  O2_27 
ROOT
HETATM    1  C7  UNL     1      22.561   3.369  51.781  1.00  0.00     0.186 A 
HETATM    2  C8  UNL     1      23.666   2.424  51.895  1.00  0.00     0.026 A 
HETATM    3  C9  UNL     1      24.515   3.273  51.247  1.00  0.00     0.076 A 
HETATM    4  N3  UNL     1      25.820   3.073  50.928  1.00  0.00    -0.260 NA
HETATM    5  C10 UNL     1      26.410   1.890  51.280  1.00  0.00     0.142 A 
HETATM    6  C11 UNL     1      25.558   1.002  51.950  1.00  0.00     0.089 A 
HETATM    7  C12 UNL     1      26.320  -0.181  52.325  1.00  0.00     0.103 C 
HETATM    8  N4  UNL     1      26.948  -1.126  52.644  1.00  0.00    -0.191 NA
HETATM    9  C13 UNL     1      24.232   1.183  52.282  1.00  0.00     0.067 A 
HETATM   10  C19 UNL     1      23.525   4.318  51.132  1.00  0.00     0.203 A 
ENDROOT
BRANCH   9  11
HETATM   11  N5  UNL     1      23.496   0.249  53.016  1.00  0.00    -0.349 N 
HETATM   12  C14 UNL     1      23.722  -0.420  54.228  1.00  0.00     0.133 C 
HETATM   13  C15 UNL     1      22.910  -1.140  54.965  1.00  0.00     0.131 C 
HETATM   14  F1  UNL     1      23.277  -1.710  56.116  1.00  0.00    -0.205 F 
HETATM   15  C16 UNL     1      21.582  -1.428  54.441  1.00  0.00     0.041 C 
HETATM   16  C17 UNL     1      21.416  -0.900  53.243  1.00  0.00    -0.004 C 
HETATM   17  C18 UNL     1      22.266  -0.102  52.331  1.00  0.00     0.156 C 
ENDBRANCH   9  11
BRANCH   1  18
HETATM   18  N2  UNL     1      21.503   3.005  50.804  1.00  0.00    -0.260 N 
BRANCH  18  19
HETATM   19  C6  UNL     1      20.928   2.089  49.879  1.00  0.00     0.115 C 
HETATM   20  C5  UNL     1      21.466   1.912  48.686  1.00  0.00     0.012 C 
BRANCH  20  21
HETATM   21  C4  UNL     1      22.654   2.522  48.043  1.00  0.00     0.150 C 
BRANCH  21  22
HETATM   22  N1  UNL     1      22.279   3.690  47.244  1.00  0.00    -0.392 N 
HETATM   23  C3  UNL     1      22.200   5.076  47.690  1.00  0.00     0.149 C 
BRANCH  22  24
HETATM   24  C2  UNL     1      21.931   3.593  45.869  1.00  0.00     0.075 C 
HETATM   25  C1  UNL     1      20.931   3.980  45.093  1.00  0.00     0.029 C 
ENDBRANCH  22  24
ENDBRANCH  21  22
ENDBRANCH  20  21
ENDBRANCH  18  19
BRANCH  18  26
HETATM   26  O1  UNL     1      20.492   3.904  50.546  1.00  0.00    -0.287 OA
HETATM   27  H11 UNL     1      20.088   4.219  51.380  1.00  0.00     0.244 HD
ENDBRANCH  18  26
ENDBRANCH   1  18
BRANCH  10  28
HETATM   28  O2  UNL     1      23.712   5.450  51.935  1.00  0.00    -0.382 OA
HETATM   29  C20 UNL     1      24.024   6.567  51.201  1.00  0.00     0.202 C 
ENDBRANCH  10  28
TORSDOF 8
ENDMDL
