MODEL 1
REMARK VINA RESULT:      -8.6      0.000      0.000
REMARK  2 active torsions:
REMARK  status: ('A' for Active; 'I' for Inactive)
REMARK    1  A    between atoms: C8_11  and  N3_12 
REMARK    2  A    between atoms: N3_12  and  C9_13 
ROOT
HETATM    1  C1  UNL     1      22.637   2.096  47.577  1.00  0.00     0.053 C 
HETATM    2  C2  UNL     1      21.807   2.363  48.805  1.00  0.00    -0.005 C 
HETATM    3  C3  UNL     1      20.700   1.741  49.099  1.00  0.00     0.145 C 
HETATM    4  O1  UNL     1      19.530   1.331  49.750  1.00  0.00    -0.352 OA
HETATM    5  C4  UNL     1      19.640   0.402  50.857  1.00  0.00     0.163 C 
HETATM    6  C5  UNL     1      18.398   0.304  51.656  1.00  0.00     0.046 C 
HETATM    7  C6  UNL     1      20.769   0.845  51.692  1.00  0.00     0.118 C 
HETATM    8  N1  UNL     1      21.960   0.320  51.981  1.00  0.00    -0.272 NA
HETATM    9  C7  UNL     1      22.728   1.174  52.868  1.00  0.00     0.276 C 
HETATM   10  N2  UNL     1      23.693   2.013  53.215  1.00  0.00    -0.238 NA
HETATM   11  C8  UNL     1      24.657   2.457  52.245  1.00  0.00     0.157 C 
HETATM   12  C15 UNL     1      23.848   3.410  51.756  1.00  0.00     0.122 C 
HETATM   13  C16 UNL     1      22.481   3.916  52.026  1.00  0.00     0.244 C 
HETATM   14  O2  UNL     1      21.749   3.801  50.806  1.00  0.00    -0.342 OA
HETATM   15  C17 UNL     1      22.402   3.410  49.621  1.00  0.00     0.099 C 
HETATM   16  C18 UNL     1      23.492   4.154  49.526  1.00  0.00     0.179 C 
HETATM   17  O3  UNL     1      24.338   4.198  50.677  1.00  0.00    -0.318 OA
ENDROOT
BRANCH  11  18
HETATM   18  N3  UNL     1      25.948   2.294  51.692  1.00  0.00    -0.339 N 
HETATM   19  H11 UNL     1      26.085   2.862  50.825  1.00  0.00     0.167 HD
BRANCH  18  20
HETATM   20  C9  UNL     1      26.905   1.427  52.313  1.00  0.00     0.035 A 
HETATM   21  C10 UNL     1      27.935   2.051  52.972  1.00  0.00     0.032 A 
HETATM   22  C11 UNL     1      28.870   1.209  53.580  1.00  0.00     0.046 A 
HETATM   23  C12 UNL     1      28.766  -0.170  53.525  1.00  0.00     0.138 A 
HETATM   24  F1  UNL     1      29.661  -1.003  54.109  1.00  0.00    -0.204 F 
HETATM   25  C13 UNL     1      27.697  -0.745  52.842  1.00  0.00     0.074 A 
HETATM   26 CL1  UNL     1      27.452  -2.480  52.699  1.00  0.00    -0.081 Cl
HETATM   27  C14 UNL     1      26.760   0.062  52.232  1.00  0.00     0.056 A 
ENDBRANCH  18  20
ENDBRANCH  11  18
TORSDOF 2
ENDMDL
MODEL 2
REMARK VINA RESULT:      -8.5      3.913      4.835
REMARK  2 active torsions:
REMARK  status: ('A' for Active; 'I' for Inactive)
REMARK    1  A    between atoms: C8_11  and  N3_12 
REMARK    2  A    between atoms: N3_12  and  C9_13 
ROOT
HETATM    1  C1  UNL     1      21.538   1.141  48.583  1.00  0.00     0.053 C 
HETATM    2  C2  UNL     1      21.339   1.280  50.069  1.00  0.00    -0.005 C 
HETATM    3  C3  UNL     1      21.575   0.338  50.938  1.00  0.00     0.145 C 
HETATM    4  O1  UNL     1      21.698  -0.373  52.138  1.00  0.00    -0.352 OA
HETATM    5  C4  UNL     1      22.871  -0.151  52.960  1.00  0.00     0.163 C 
HETATM    6  C5  UNL     1      22.730  -0.697  54.328  1.00  0.00     0.046 C 
HETATM    7  C6  UNL     1      23.115   1.300  52.995  1.00  0.00     0.118 C 
HETATM    8  N1  UNL     1      24.093   2.080  52.532  1.00  0.00    -0.272 NA
HETATM    9  C7  UNL     1      23.854   3.480  52.827  1.00  0.00     0.276 C 
HETATM   10  N2  UNL     1      23.551   4.744  52.566  1.00  0.00    -0.238 NA
HETATM   11  C8  UNL     1      23.236   5.158  51.226  1.00  0.00     0.157 C 
HETATM   12  C15 UNL     1      21.960   4.750  51.313  1.00  0.00     0.122 C 
HETATM   13  C16 UNL     1      21.090   4.118  52.333  1.00  0.00     0.244 C 
HETATM   14  O2  UNL     1      20.591   2.909  51.760  1.00  0.00    -0.342 OA
HETATM   15  C17 UNL     1      20.847   2.606  50.410  1.00  0.00     0.099 C 
HETATM   16  C18 UNL     1      20.552   3.693  49.715  1.00  0.00     0.179 C 
HETATM   17  O3  UNL     1      21.136   4.918  50.164  1.00  0.00    -0.318 OA
ENDROOT
BRANCH  11  18
HETATM   18  N3  UNL     1      23.694   5.745  50.025  1.00  0.00    -0.339 N 
HETATM   19  H11 UNL     1      22.968   6.345  49.572  1.00  0.00     0.167 HD
BRANCH  18  20
HETATM   20  C9  UNL     1      25.023   5.496  49.550  1.00  0.00     0.035 A 
HETATM   21  C10 UNL     1      25.496   4.221  49.742  1.00  0.00     0.032 A 
HETATM   22  C11 UNL     1      26.791   3.975  49.279  1.00  0.00     0.046 A 
HETATM   23  C12 UNL     1      27.553   4.952  48.664  1.00  0.00     0.138 A 
HETATM   24  F1  UNL     1      28.811   4.732  48.208  1.00  0.00    -0.204 F 
HETATM   25  C13 UNL     1      27.018   6.228  48.497  1.00  0.00     0.074 A 
HETATM   26 CL1  UNL     1      27.883   7.555  47.734  1.00  0.00    -0.081 Cl
HETATM   27  C14 UNL     1      25.743   6.499  48.945  1.00  0.00     0.056 A 
ENDBRANCH  18  20
ENDBRANCH  11  18
TORSDOF 2
ENDMDL
MODEL 3
REMARK VINA RESULT:      -8.1      3.869      4.979
REMARK  2 active torsions:
REMARK  status: ('A' for Active; 'I' for Inactive)
REMARK    1  A    between atoms: C8_11  and  N3_12 
REMARK    2  A    between atoms: N3_12  and  C9_13 
ROOT
HETATM    1  C1  UNL     1      21.162   0.986  49.039  1.00  0.00     0.053 C 
HETATM    2  C2  UNL     1      21.427   1.245  50.498  1.00  0.00    -0.005 C 
HETATM    3  C3  UNL     1      21.370   0.339  51.433  1.00  0.00     0.145 C 
HETATM    4  O1  UNL     1      21.414  -0.303  52.676  1.00  0.00    -0.352 OA
HETATM    5  C4  UNL     1      22.703  -0.696  53.211  1.00  0.00     0.163 C 
HETATM    6  C5  UNL     1      22.650  -1.056  54.645  1.00  0.00     0.046 C 
HETATM    7  C6  UNL     1      23.632   0.424  52.984  1.00  0.00     0.118 C 
HETATM    8  N1  UNL     1      24.720   0.578  52.229  1.00  0.00    -0.272 NA
HETATM    9  C7  UNL     1      25.284   1.908  52.356  1.00  0.00     0.276 C 
HETATM   10  N2  UNL     1      25.592   3.141  51.978  1.00  0.00    -0.238 NA
HETATM   11  C8  UNL     1      25.206   3.623  50.679  1.00  0.00     0.157 C 
HETATM   12  C15 UNL     1      23.960   3.932  51.074  1.00  0.00     0.122 C 
HETATM   13  C16 UNL     1      23.171   3.864  52.326  1.00  0.00     0.244 C 
HETATM   14  O2  UNL     1      22.018   3.070  52.046  1.00  0.00    -0.342 OA
HETATM   15  C17 UNL     1      21.753   2.643  50.731  1.00  0.00     0.099 C 
HETATM   16  C18 UNL     1      21.874   3.709  49.956  1.00  0.00     0.179 C 
HETATM   17  O3  UNL     1      23.076   4.470  50.097  1.00  0.00    -0.318 OA
ENDROOT
BRANCH  11  18
HETATM   18  N3  UNL     1      25.586   3.861  49.339  1.00  0.00    -0.339 N 
HETATM   19  H11 UNL     1      25.156   3.178  48.675  1.00  0.00     0.167 HD
BRANCH  18  20
HETATM   20  C9  UNL     1      26.468   4.942  49.011  1.00  0.00     0.035 A 
HETATM   21  C10 UNL     1      25.926   6.200  49.092  1.00  0.00     0.032 A 
HETATM   22  C11 UNL     1      26.784   7.256  48.774  1.00  0.00     0.046 A 
HETATM   23  C12 UNL     1      28.100   7.051  48.400  1.00  0.00     0.138 A 
HETATM   24  F1  UNL     1      28.947   8.061  48.088  1.00  0.00    -0.204 F 
HETATM   25  C13 UNL     1      28.593   5.750  48.336  1.00  0.00     0.074 A 
HETATM   26 CL1  UNL     1      30.244   5.355  47.875  1.00  0.00    -0.081 Cl
HETATM   27  C14 UNL     1      27.769   4.689  48.644  1.00  0.00     0.056 A 
ENDBRANCH  18  20
ENDBRANCH  11  18
TORSDOF 2
ENDMDL
MODEL 4
REMARK VINA RESULT:      -7.9      1.429      1.720
REMARK  2 active torsions:
REMARK  status: ('A' for Active; 'I' for Inactive)
REMARK    1  A    between atoms: C8_11  and  N3_12 
REMARK    2  A    between atoms: N3_12  and  C9_13 
ROOT
HETATM    1  C1  UNL     1      22.451   3.794  47.763  1.00  0.00     0.053 C 
HETATM    2  C2  UNL     1      21.567   3.553  48.958  1.00  0.00    -0.005 C 
HETATM    3  C3  UNL     1      20.396   2.984  48.910  1.00  0.00     0.145 C 
HETATM    4  O1  UNL     1      19.155   2.446  49.272  1.00  0.00    -0.352 OA
HETATM    5  C4  UNL     1      19.114   1.107  49.826  1.00  0.00     0.163 C 
HETATM    6  C5  UNL     1      17.819   0.783  50.464  1.00  0.00     0.046 C 
HETATM    7  C6  UNL     1      20.219   0.997  50.793  1.00  0.00     0.118 C 
HETATM    8  N1  UNL     1      21.341   0.278  50.831  1.00  0.00    -0.272 NA
HETATM    9  C7  UNL     1      22.116   0.545  52.027  1.00  0.00     0.276 C 
HETATM   10  N2  UNL     1      23.123   1.026  52.742  1.00  0.00    -0.238 NA
HETATM   11  C8  UNL     1      24.183   1.763  52.108  1.00  0.00     0.157 C 
HETATM   12  C15 UNL     1      23.489   2.912  52.099  1.00  0.00     0.122 C 
HETATM   13  C16 UNL     1      22.154   3.377  52.545  1.00  0.00     0.244 C 
HETATM   14  O2  UNL     1      21.497   3.911  51.396  1.00  0.00    -0.342 OA
HETATM   15  C17 UNL     1      22.191   4.041  50.178  1.00  0.00     0.099 C 
HETATM   16  C18 UNL     1      23.343   4.628  50.461  1.00  0.00     0.179 C 
HETATM   17  O3  UNL     1      24.113   4.052  51.518  1.00  0.00    -0.318 OA
ENDROOT
BRANCH  11  18
HETATM   18  N3  UNL     1      25.489   1.739  51.568  1.00  0.00    -0.339 N 
HETATM   19  H11 UNL     1      25.548   2.225  50.645  1.00  0.00     0.167 HD
BRANCH  18  20
HETATM   20  C9  UNL     1      26.559   1.097  52.274  1.00  0.00     0.035 A 
HETATM   21  C10 UNL     1      26.571  -0.275  52.219  1.00  0.00     0.032 A 
HETATM   22  C11 UNL     1      27.614  -0.904  52.904  1.00  0.00     0.046 A 
HETATM   23  C12 UNL     1      28.577  -0.191  53.596  1.00  0.00     0.138 A 
HETATM   24  F1  UNL     1      29.596  -0.782  54.266  1.00  0.00    -0.204 F 
HETATM   25  C13 UNL     1      28.512   1.200  53.615  1.00  0.00     0.074 A 
HETATM   26 CL1  UNL     1      29.672   2.219  54.456  1.00  0.00    -0.081 Cl
HETATM   27  C14 UNL     1      27.494   1.847  52.947  1.00  0.00     0.056 A 
ENDBRANCH  18  20
ENDBRANCH  11  18
TORSDOF 2
ENDMDL
MODEL 5
REMARK VINA RESULT:      -7.9      2.249      2.904
REMARK  2 active torsions:
REMARK  status: ('A' for Active; 'I' for Inactive)
REMARK    1  A    between atoms: C8_11  and  N3_12 
REMARK    2  A    between atoms: N3_12  and  C9_13 
ROOT
HETATM    1  C1  UNL     1      21.559   0.844  48.594  1.00  0.00     0.053 C 
HETATM    2  C2  UNL     1      20.895   2.147  48.952  1.00  0.00    -0.005 C 
HETATM    3  C3  UNL     1      19.666   2.262  49.369  1.00  0.00     0.145 C 
HETATM    4  O1  UNL     1      18.453   2.792  49.825  1.00  0.00    -0.352 OA
HETATM    5  C4  UNL     1      18.325   3.124  51.231  1.00  0.00     0.163 C 
HETATM    6  C5  UNL     1      17.143   3.965  51.521  1.00  0.00     0.046 C 
HETATM    7  C6  UNL     1      19.567   3.803  51.637  1.00  0.00     0.118 C 
HETATM    8  N1  UNL     1      20.558   3.486  52.470  1.00  0.00    -0.272 NA
HETATM    9  C7  UNL     1      21.579   4.515  52.515  1.00  0.00     0.276 C 
HETATM   10  N2  UNL     1      22.763   5.065  52.287  1.00  0.00    -0.238 NA
HETATM   11  C8  UNL     1      23.777   4.342  51.568  1.00  0.00     0.157 C 
HETATM   12  C15 UNL     1      23.270   4.663  50.367  1.00  0.00     0.122 C 
HETATM   13  C16 UNL     1      22.127   5.452  49.847  1.00  0.00     0.244 C 
HETATM   14  O2  UNL     1      21.346   4.569  49.042  1.00  0.00    -0.342 OA
HETATM   15  C17 UNL     1      21.806   3.267  48.768  1.00  0.00     0.099 C 
HETATM   16  C18 UNL     1      23.064   3.385  48.373  1.00  0.00     0.179 C 
HETATM   17  O3  UNL     1      23.929   4.148  49.215  1.00  0.00    -0.318 OA
ENDROOT
BRANCH  11  18
HETATM   18  N3  UNL     1      24.938   3.539  51.636  1.00  0.00    -0.339 N 
HETATM   19  H11 UNL     1      25.735   3.944  51.096  1.00  0.00     0.167 HD
BRANCH  18  20
HETATM   20  C9  UNL     1      24.937   2.317  52.386  1.00  0.00     0.035 A 
HETATM   21  C10 UNL     1      23.805   1.548  52.273  1.00  0.00     0.032 A 
HETATM   22  C11 UNL     1      23.802   0.356  53.002  1.00  0.00     0.046 A 
HETATM   23  C12 UNL     1      24.872  -0.030  53.789  1.00  0.00     0.138 A 
HETATM   24  F1  UNL     1      24.888  -1.181  54.503  1.00  0.00    -0.204 F 
HETATM   25  C13 UNL     1      25.994   0.793  53.864  1.00  0.00     0.074 A 
HETATM   26 CL1  UNL     1      27.416   0.418  54.828  1.00  0.00    -0.081 Cl
HETATM   27  C14 UNL     1      26.024   1.975  53.155  1.00  0.00     0.056 A 
ENDBRANCH  18  20
ENDBRANCH  11  18
TORSDOF 2
ENDMDL
MODEL 6
REMARK VINA RESULT:      -7.8      2.230      3.197
REMARK  2 active torsions:
REMARK  status: ('A' for Active; 'I' for Inactive)
REMARK    1  A    between atoms: C8_11  and  N3_12 
REMARK    2  A    between atoms: N3_12  and  C9_13 
ROOT
HETATM    1  C1  UNL     1      23.236   7.049  50.682  1.00  0.00     0.053 C 
HETATM    2  C2  UNL     1      22.145   6.025  50.849  1.00  0.00    -0.005 C 
HETATM    3  C3  UNL     1      21.082   5.947  50.098  1.00  0.00     0.145 C 
HETATM    4  O1  UNL     1      19.860   5.539  49.550  1.00  0.00    -0.352 OA
HETATM    5  C4  UNL     1      19.848   4.408  48.643  1.00  0.00     0.163 C 
HETATM    6  C5  UNL     1      18.488   3.879  48.397  1.00  0.00     0.046 C 
HETATM    7  C6  UNL     1      20.720   3.372  49.220  1.00  0.00     0.118 C 
HETATM    8  N1  UNL     1      21.879   2.831  48.844  1.00  0.00    -0.272 NA
HETATM    9  C7  UNL     1      22.340   1.829  49.785  1.00  0.00     0.276 C 
HETATM   10  N2  UNL     1      23.108   1.314  50.736  1.00  0.00    -0.238 NA
HETATM   11  C8  UNL     1      24.192   2.077  51.292  1.00  0.00     0.157 C 
HETATM   12  C15 UNL     1      23.395   2.747  52.139  1.00  0.00     0.122 C 
HETATM   13  C16 UNL     1      21.951   2.776  52.477  1.00  0.00     0.244 C 
HETATM   14  O2  UNL     1      21.506   4.117  52.272  1.00  0.00    -0.342 OA
HETATM   15  C17 UNL     1      22.430   5.132  51.961  1.00  0.00     0.099 C 
HETATM   16  C18 UNL     1      23.421   5.021  52.832  1.00  0.00     0.179 C 
HETATM   17  O3  UNL     1      24.000   3.723  52.979  1.00  0.00    -0.318 OA
ENDROOT
BRANCH  11  18
HETATM   18  N3  UNL     1      25.579   2.350  51.285  1.00  0.00    -0.339 N 
HETATM   19  H11 UNL     1      25.821   3.169  50.683  1.00  0.00     0.167 HD
BRANCH  18  20
HETATM   20  C9  UNL     1      26.485   1.544  52.049  1.00  0.00     0.035 A 
HETATM   21  C10 UNL     1      26.300   0.187  51.957  1.00  0.00     0.032 A 
HETATM   22  C11 UNL     1      27.183  -0.601  52.699  1.00  0.00     0.046 A 
HETATM   23  C12 UNL     1      28.184  -0.052  53.480  1.00  0.00     0.138 A 
HETATM   24  F1  UNL     1      29.050  -0.799  54.206  1.00  0.00    -0.204 F 
HETATM   25  C13 UNL     1      28.323   1.333  53.533  1.00  0.00     0.074 A 
HETATM   26 CL1  UNL     1      29.552   2.154  54.486  1.00  0.00    -0.081 Cl
HETATM   27  C14 UNL     1      27.466   2.135  52.811  1.00  0.00     0.056 A 
ENDBRANCH  18  20
ENDBRANCH  11  18
TORSDOF 2
ENDMDL
MODEL 7
REMARK VINA RESULT:      -7.8      2.425      4.170
REMARK  2 active torsions:
REMARK  status: ('A' for Active; 'I' for Inactive)
REMARK    1  A    between atoms: C8_11  and  N3_12 
REMARK    2  A    between atoms: N3_12  and  C9_13 
ROOT
HETATM    1  C1  UNL     1      24.099   5.380  50.812  1.00  0.00     0.053 C 
HETATM    2  C2  UNL     1      22.885   5.075  49.975  1.00  0.00    -0.005 C 
HETATM    3  C3  UNL     1      22.860   5.095  48.672  1.00  0.00     0.145 C 
HETATM    4  O1  UNL     1      22.433   5.008  47.341  1.00  0.00    -0.352 OA
HETATM    5  C4  UNL     1      22.347   3.700  46.723  1.00  0.00     0.163 C 
HETATM    6  C5  UNL     1      21.584   3.708  45.455  1.00  0.00     0.046 C 
HETATM    7  C6  UNL     1      21.730   2.790  47.703  1.00  0.00     0.118 C 
HETATM    8  N1  UNL     1      22.170   1.726  48.374  1.00  0.00    -0.272 NA
HETATM    9  C7  UNL     1      21.149   1.173  49.244  1.00  0.00     0.276 C 
HETATM   10  N2  UNL     1      20.552   0.890  50.393  1.00  0.00    -0.238 NA
HETATM   11  C8  UNL     1      21.127   1.319  51.639  1.00  0.00     0.157 C 
HETATM   12  C15 UNL     1      20.614   2.556  51.545  1.00  0.00     0.122 C 
HETATM   13  C16 UNL     1      19.764   3.308  50.591  1.00  0.00     0.244 C 
HETATM   14  O2  UNL     1      20.508   4.459  50.194  1.00  0.00    -0.342 OA
HETATM   15  C17 UNL     1      21.738   4.757  50.811  1.00  0.00     0.099 C 
HETATM   16  C18 UNL     1      21.537   4.671  52.116  1.00  0.00     0.179 C 
HETATM   17  O3  UNL     1      20.916   3.474  52.590  1.00  0.00    -0.318 OA
ENDROOT
BRANCH  11  18
HETATM   18  N3  UNL     1      21.915   0.980  52.763  1.00  0.00    -0.339 N 
HETATM   19  H11 UNL     1      21.351   0.916  53.640  1.00  0.00     0.167 HD
BRANCH  18  20
HETATM   20  C9  UNL     1      23.325   0.764  52.628  1.00  0.00     0.035 A 
HETATM   21  C10 UNL     1      23.826  -0.332  53.286  1.00  0.00     0.032 A 
HETATM   22  C11 UNL     1      25.201  -0.547  53.155  1.00  0.00     0.046 A 
HETATM   23  C12 UNL     1      26.011   0.292  52.410  1.00  0.00     0.138 A 
HETATM   24  F1  UNL     1      27.345   0.100  52.271  1.00  0.00    -0.204 F 
HETATM   25  C13 UNL     1      25.444   1.389  51.765  1.00  0.00     0.074 A 
HETATM   26 CL1  UNL     1      26.362   2.527  50.789  1.00  0.00    -0.081 Cl
HETATM   27  C14 UNL     1      24.090   1.624  51.876  1.00  0.00     0.056 A 
ENDBRANCH  18  20
ENDBRANCH  11  18
TORSDOF 2
ENDMDL
MODEL 8
REMARK VINA RESULT:      -7.7      4.293      5.306
REMARK  2 active torsions:
REMARK  status: ('A' for Active; 'I' for Inactive)
REMARK    1  A    between atoms: C8_11  and  N3_12 
REMARK    2  A    between atoms: N3_12  and  C9_13 
ROOT
HETATM    1  C1  UNL     1      19.624   4.524  49.843  1.00  0.00     0.053 C 
HETATM    2  C2  UNL     1      20.296   4.024  51.095  1.00  0.00    -0.005 C 
HETATM    3  C3  UNL     1      19.999   2.907  51.698  1.00  0.00     0.145 C 
HETATM    4  O1  UNL     1      19.986   1.841  52.605  1.00  0.00    -0.352 OA
HETATM    5  C4  UNL     1      20.986   0.800  52.468  1.00  0.00     0.163 C 
HETATM    6  C5  UNL     1      21.074  -0.078  53.656  1.00  0.00     0.046 C 
HETATM    7  C6  UNL     1      22.275   1.461  52.205  1.00  0.00     0.118 C 
HETATM    8  N1  UNL     1      23.098   1.487  51.156  1.00  0.00    -0.272 NA
HETATM    9  C7  UNL     1      24.264   2.313  51.404  1.00  0.00     0.276 C 
HETATM   10  N2  UNL     1      25.056   3.369  51.279  1.00  0.00    -0.238 NA
HETATM   11  C8  UNL     1      24.691   4.458  50.415  1.00  0.00     0.157 C 
HETATM   12  C15 UNL     1      23.890   5.024  51.331  1.00  0.00     0.122 C 
HETATM   13  C16 UNL     1      23.468   4.745  52.725  1.00  0.00     0.244 C 
HETATM   14  O2  UNL     1      22.044   4.650  52.715  1.00  0.00    -0.342 OA
HETATM   15  C17 UNL     1      21.321   4.952  51.546  1.00  0.00     0.099 C 
HETATM   16  C18 UNL     1      21.787   6.108  51.101  1.00  0.00     0.179 C 
HETATM   17  O3  UNL     1      23.204   6.215  50.959  1.00  0.00    -0.318 OA
ENDROOT
BRANCH  11  18
HETATM   18  N3  UNL     1      24.835   5.070  49.149  1.00  0.00    -0.339 N 
HETATM   19  H11 UNL     1      23.939   5.091  48.612  1.00  0.00     0.167 HD
BRANCH  18  20
HETATM   20  C9  UNL     1      26.105   5.580  48.725  1.00  0.00     0.035 A 
HETATM   21  C10 UNL     1      27.168   4.722  48.860  1.00  0.00     0.032 A 
HETATM   22  C11 UNL     1      28.408   5.216  48.446  1.00  0.00     0.046 A 
HETATM   23  C12 UNL     1      28.559   6.491  47.930  1.00  0.00     0.138 A 
HETATM   24  F1  UNL     1      29.752   6.988  47.523  1.00  0.00    -0.204 F 
HETATM   25  C13 UNL     1      27.442   7.316  47.817  1.00  0.00     0.074 A 
HETATM   26 CL1  UNL     1      27.501   8.954  47.180  1.00  0.00    -0.081 Cl
HETATM   27  C14 UNL     1      26.207   6.854  48.218  1.00  0.00     0.056 A 
ENDBRANCH  18  20
ENDBRANCH  11  18
TORSDOF 2
ENDMDL
MODEL 9
REMARK VINA RESULT:      -7.7      4.200      7.449
REMARK  2 active torsions:
REMARK  status: ('A' for Active; 'I' for Inactive)
REMARK    1  A    between atoms: C8_11  and  N3_12 
REMARK    2  A    between atoms: N3_12  and  C9_13 
ROOT
HETATM    1  C1  UNL     1      26.260   0.001  52.036  1.00  0.00     0.053 C 
HETATM    2  C2  UNL     1      25.943   1.467  51.893  1.00  0.00    -0.005 C 
HETATM    3  C3  UNL     1      26.626   2.303  51.163  1.00  0.00     0.145 C 
HETATM    4  O1  UNL     1      27.068   3.470  50.527  1.00  0.00    -0.352 OA
HETATM    5  C4  UNL     1      26.392   3.903  49.320  1.00  0.00     0.163 C 
HETATM    6  C5  UNL     1      26.726   5.292  48.936  1.00  0.00     0.046 C 
HETATM    7  C6  UNL     1      24.946   3.753  49.549  1.00  0.00     0.118 C 
HETATM    8  N1  UNL     1      24.006   2.971  49.016  1.00  0.00    -0.272 NA
HETATM    9  C7  UNL     1      22.703   3.211  49.606  1.00  0.00     0.276 C 
HETATM   10  N2  UNL     1      21.637   2.950  50.349  1.00  0.00    -0.238 NA
HETATM   11  C8  UNL     1      21.553   1.727  51.102  1.00  0.00     0.157 C 
HETATM   12  C15 UNL     1      22.286   2.207  52.119  1.00  0.00     0.122 C 
HETATM   13  C16 UNL     1      22.966   3.479  52.461  1.00  0.00     0.244 C 
HETATM   14  O2  UNL     1      24.342   3.169  52.676  1.00  0.00    -0.342 OA
HETATM   15  C17 UNL     1      24.775   1.829  52.680  1.00  0.00     0.099 C 
HETATM   16  C18 UNL     1      23.944   1.166  53.468  1.00  0.00     0.179 C 
HETATM   17  O3  UNL     1      22.548   1.332  53.210  1.00  0.00    -0.318 OA
ENDROOT
BRANCH  11  18
HETATM   18  N3  UNL     1      21.062   0.404  51.167  1.00  0.00    -0.339 N 
HETATM   19  H11 UNL     1      21.815  -0.308  51.030  1.00  0.00     0.167 HD
BRANCH  18  20
HETATM   20  C9  UNL     1      19.670   0.151  51.400  1.00  0.00     0.035 A 
HETATM   21  C10 UNL     1      19.366  -0.456  52.593  1.00  0.00     0.032 A 
HETATM   22  C11 UNL     1      18.010  -0.703  52.823  1.00  0.00     0.046 A 
HETATM   23  C12 UNL     1      17.031  -0.356  51.909  1.00  0.00     0.138 A 
HETATM   24  F1  UNL     1      15.712  -0.586  52.114  1.00  0.00    -0.204 F 
HETATM   25  C13 UNL     1      17.403   0.259  50.715  1.00  0.00     0.074 A 
HETATM   26 CL1  UNL     1      16.257   0.747  49.473  1.00  0.00    -0.081 Cl
HETATM   27  C14 UNL     1      18.733   0.514  50.461  1.00  0.00     0.056 A 
ENDBRANCH  18  20
ENDBRANCH  11  18
TORSDOF 2
ENDMDL
