MODEL 1
REMARK VINA RESULT:      -8.7      0.000      0.000
REMARK  4 active torsions:
REMARK  status: ('A' for Active; 'I' for Inactive)
REMARK    1  A    between atoms: C7_7  and  N1_8 
REMARK    2  A    between atoms: N1_8  and  C8_9 
REMARK    3  A    between atoms: C15_21  and  C16_22 
REMARK    4  A    between atoms: C16_22  and  O4_23 
ROOT
HETATM    1  C1  UNL     1      29.156   6.645  47.777  1.00  0.00     0.018 C 
HETATM    2  C2  UNL     1      28.070   6.277  48.158  1.00  0.00    -0.078 C 
HETATM    3  C3  UNL     1      26.802   5.829  48.626  1.00  0.00     0.019 A 
HETATM    4  C4  UNL     1      25.730   6.690  48.495  1.00  0.00     0.021 A 
HETATM    5  C5  UNL     1      24.481   6.292  48.951  1.00  0.00     0.004 A 
HETATM    6  C6  UNL     1      24.375   5.022  49.526  1.00  0.00     0.029 A 
HETATM    7  C7  UNL     1      25.487   4.172  49.642  1.00  0.00     0.034 A 
HETATM    8  C20 UNL     1      26.711   4.581  49.187  1.00  0.00     0.050 A 
ENDROOT
BRANCH   7   9
HETATM    9  N1  UNL     1      25.031   2.961  50.270  1.00  0.00    -0.344 N 
HETATM   10  H5  UNL     1      24.330   2.478  49.624  1.00  0.00     0.167 HD
BRANCH   9  11
HETATM   11  C8  UNL     1      25.432   2.452  51.568  1.00  0.00     0.116 C 
HETATM   12  N2  UNL     1      26.713   2.514  51.537  1.00  0.00    -0.228 NA
HETATM   13  C9  UNL     1      27.623   2.151  52.520  1.00  0.00     0.231 C 
HETATM   14  N3  UNL     1      28.277   2.338  53.616  1.00  0.00    -0.257 NA
HETATM   15  C10 UNL     1      29.226   1.353  54.116  1.00  0.00     0.317 C 
HETATM   16  O1  UNL     1      28.715   0.124  54.323  1.00  0.00    -0.368 OA
HETATM   17  C11 UNL     1      27.730  -0.086  55.239  1.00  0.00     0.196 C 
HETATM   18  C12 UNL     1      26.457   0.698  55.029  1.00  0.00     0.201 C 
HETATM   19  O2  UNL     1      25.969   0.368  53.776  1.00  0.00    -0.351 OA
HETATM   20  C13 UNL     1      24.820   0.754  53.152  1.00  0.00     0.079 C 
HETATM   21  C14 UNL     1      24.125  -0.399  53.252  1.00  0.00     0.168 C 
HETATM   22  C19 UNL     1      24.377   2.022  52.524  1.00  0.00     0.116 C 
HETATM   23  O3  UNL     1      22.856  -0.319  52.684  1.00  0.00    -0.353 OA
HETATM   24  C15 UNL     1      22.229   0.948  52.728  1.00  0.00     0.152 C 
HETATM   25  C18 UNL     1      23.047   1.856  51.859  1.00  0.00     0.053 C 
BRANCH  24  26
HETATM   26  C16 UNL     1      20.778   0.905  52.440  1.00  0.00     0.199 C 
BRANCH  26  27
HETATM   27  O4  UNL     1      20.080  -0.184  52.896  1.00  0.00    -0.393 OA
HETATM   28  C17 UNL     1      18.847  -0.150  52.201  1.00  0.00     0.201 C 
ENDBRANCH  26  27
ENDBRANCH  24  26
ENDBRANCH   9  11
ENDBRANCH   7   9
TORSDOF 4
ENDMDL
MODEL 2
REMARK VINA RESULT:      -8.6      1.915      5.261
REMARK  4 active torsions:
REMARK  status: ('A' for Active; 'I' for Inactive)
REMARK    1  A    between atoms: C7_7  and  N1_8 
REMARK    2  A    between atoms: N1_8  and  C8_9 
REMARK    3  A    between atoms: C15_21  and  C16_22 
REMARK    4  A    between atoms: C16_22  and  O4_23 
ROOT
HETATM    1  C1  UNL     1      23.481   7.272  48.172  1.00  0.00     0.018 C 
HETATM    2  C2  UNL     1      24.148   6.420  48.708  1.00  0.00    -0.078 C 
HETATM    3  C3  UNL     1      24.914   5.405  49.349  1.00  0.00     0.019 A 
HETATM    4  C4  UNL     1      26.061   4.969  48.715  1.00  0.00     0.021 A 
HETATM    5  C5  UNL     1      26.825   3.972  49.304  1.00  0.00     0.004 A 
HETATM    6  C6  UNL     1      26.386   3.456  50.527  1.00  0.00     0.029 A 
HETATM    7  C7  UNL     1      25.215   3.924  51.146  1.00  0.00     0.034 A 
HETATM    8  C20 UNL     1      24.473   4.908  50.549  1.00  0.00     0.050 A 
ENDROOT
BRANCH   7   9
HETATM    9  N1  UNL     1      25.061   3.190  52.372  1.00  0.00    -0.344 N 
HETATM   10  H5  UNL     1      25.571   3.709  53.154  1.00  0.00     0.167 HD
BRANCH   9  11
HETATM   11  C8  UNL     1      24.340   1.942  52.552  1.00  0.00     0.116 C 
HETATM   12  N2  UNL     1      23.109   2.301  52.561  1.00  0.00    -0.228 NA
HETATM   13  C9  UNL     1      21.976   1.511  52.705  1.00  0.00     0.231 C 
HETATM   14  N3  UNL     1      21.074   0.695  52.276  1.00  0.00    -0.257 NA
HETATM   15  C10 UNL     1      20.014   0.205  53.145  1.00  0.00     0.317 C 
HETATM   16  O1  UNL     1      20.435  -0.431  54.255  1.00  0.00    -0.368 OA
HETATM   17  C11 UNL     1      21.158  -1.582  54.178  1.00  0.00     0.196 C 
HETATM   18  C12 UNL     1      22.456  -1.495  53.413  1.00  0.00     0.201 C 
HETATM   19  O2  UNL     1      23.235  -0.528  54.028  1.00  0.00    -0.351 OA
HETATM   20  C13 UNL     1      24.509  -0.126  53.760  1.00  0.00     0.079 C 
HETATM   21  C14 UNL     1      25.137  -0.688  54.815  1.00  0.00     0.168 C 
HETATM   22  C19 UNL     1      25.117   0.680  52.673  1.00  0.00     0.116 C 
HETATM   23  O3  UNL     1      26.509  -0.446  54.822  1.00  0.00    -0.353 OA
HETATM   24  C15 UNL     1      27.128  -0.313  53.557  1.00  0.00     0.152 C 
HETATM   25  C18 UNL     1      26.567   0.934  52.940  1.00  0.00     0.053 C 
BRANCH  24  26
HETATM   26  C16 UNL     1      28.604  -0.410  53.602  1.00  0.00     0.199 C 
BRANCH  26  27
HETATM   27  O4  UNL     1      29.143  -1.622  53.953  1.00  0.00    -0.393 OA
HETATM   28  C17 UNL     1      28.747  -2.513  52.926  1.00  0.00     0.201 C 
ENDBRANCH  26  27
ENDBRANCH  24  26
ENDBRANCH   9  11
ENDBRANCH   7   9
TORSDOF 4
ENDMDL
MODEL 3
REMARK VINA RESULT:      -8.4      3.080      6.349
REMARK  4 active torsions:
REMARK  status: ('A' for Active; 'I' for Inactive)
REMARK    1  A    between atoms: C7_7  and  N1_8 
REMARK    2  A    between atoms: N1_8  and  C8_9 
REMARK    3  A    between atoms: C15_21  and  C16_22 
REMARK    4  A    between atoms: C16_22  and  O4_23 
ROOT
HETATM    1  C1  UNL     1      30.168  -2.189  53.835  1.00  0.00     0.018 C 
HETATM    2  C2  UNL     1      29.555  -1.167  53.637  1.00  0.00    -0.078 C 
HETATM    3  C3  UNL     1      28.811   0.024  53.404  1.00  0.00     0.019 A 
HETATM    4  C4  UNL     1      29.319   1.206  53.907  1.00  0.00     0.021 A 
HETATM    5  C5  UNL     1      28.614   2.385  53.710  1.00  0.00     0.004 A 
HETATM    6  C6  UNL     1      27.411   2.311  53.003  1.00  0.00     0.029 A 
HETATM    7  C7  UNL     1      26.924   1.091  52.504  1.00  0.00     0.034 A 
HETATM    8  C20 UNL     1      27.633  -0.062  52.708  1.00  0.00     0.050 A 
ENDROOT
BRANCH   7   9
HETATM    9  N1  UNL     1      25.682   1.372  51.837  1.00  0.00    -0.344 N 
HETATM   10  H5  UNL     1      25.887   1.671  50.832  1.00  0.00     0.167 HD
BRANCH   9  11
HETATM   11  C8  UNL     1      24.350   1.279  52.406  1.00  0.00     0.116 C 
HETATM   12  N2  UNL     1      24.307   0.091  52.888  1.00  0.00    -0.228 NA
HETATM   13  C9  UNL     1      23.263  -0.539  53.552  1.00  0.00     0.231 C 
HETATM   14  N3  UNL     1      22.526  -0.780  54.583  1.00  0.00    -0.257 NA
HETATM   15  C10 UNL     1      21.417  -1.721  54.525  1.00  0.00     0.317 C 
HETATM   16  O1  UNL     1      20.483  -1.445  53.595  1.00  0.00    -0.368 OA
HETATM   17  C11 UNL     1      19.750  -0.299  53.650  1.00  0.00     0.196 C 
HETATM   18  C12 UNL     1      20.538   0.989  53.625  1.00  0.00     0.201 C 
HETATM   19  O2  UNL     1      21.280   0.998  52.457  1.00  0.00    -0.351 OA
HETATM   20  C13 UNL     1      22.095   1.962  51.942  1.00  0.00     0.079 C 
HETATM   21  C14 UNL     1      21.306   2.394  50.935  1.00  0.00     0.168 C 
HETATM   22  C19 UNL     1      23.446   2.455  52.304  1.00  0.00     0.116 C 
HETATM   23  O3  UNL     1      21.884   3.422  50.194  1.00  0.00    -0.353 OA
HETATM   24  C15 UNL     1      22.755   4.287  50.898  1.00  0.00     0.152 C 
HETATM   25  C18 UNL     1      23.936   3.458  51.308  1.00  0.00     0.053 C 
BRANCH  24  26
HETATM   26  C16 UNL     1      23.060   5.542  50.175  1.00  0.00     0.199 C 
BRANCH  26  27
HETATM   27  O4  UNL     1      24.078   6.319  50.669  1.00  0.00    -0.393 OA
HETATM   28  C17 UNL     1      23.543   7.628  50.735  1.00  0.00     0.201 C 
ENDBRANCH  26  27
ENDBRANCH  24  26
ENDBRANCH   9  11
ENDBRANCH   7   9
TORSDOF 4
ENDMDL
MODEL 4
REMARK VINA RESULT:      -8.3      1.546      2.132
REMARK  4 active torsions:
REMARK  status: ('A' for Active; 'I' for Inactive)
REMARK    1  A    between atoms: C7_7  and  N1_8 
REMARK    2  A    between atoms: N1_8  and  C8_9 
REMARK    3  A    between atoms: C15_21  and  C16_22 
REMARK    4  A    between atoms: C16_22  and  O4_23 
ROOT
HETATM    1  C1  UNL     1      25.672   9.514  49.039  1.00  0.00     0.018 C 
HETATM    2  C2  UNL     1      26.092   8.382  49.001  1.00  0.00    -0.078 C 
HETATM    3  C3  UNL     1      26.564   7.039  48.954  1.00  0.00     0.019 A 
HETATM    4  C4  UNL     1      27.798   6.813  48.377  1.00  0.00     0.021 A 
HETATM    5  C5  UNL     1      28.284   5.515  48.302  1.00  0.00     0.004 A 
HETATM    6  C6  UNL     1      27.486   4.492  48.824  1.00  0.00     0.029 A 
HETATM    7  C7  UNL     1      26.236   4.759  49.406  1.00  0.00     0.034 A 
HETATM    8  C20 UNL     1      25.772   6.046  49.471  1.00  0.00     0.050 A 
ENDROOT
BRANCH   7   9
HETATM    9  N1  UNL     1      25.691   3.500  49.835  1.00  0.00    -0.344 N 
HETATM   10  H5  UNL     1      25.216   3.026  49.003  1.00  0.00     0.167 HD
BRANCH   9  11
HETATM   11  C8  UNL     1      25.753   2.936  51.171  1.00  0.00     0.116 C 
HETATM   12  N2  UNL     1      26.935   2.442  51.238  1.00  0.00    -0.228 NA
HETATM   13  C9  UNL     1      27.539   1.776  52.297  1.00  0.00     0.231 C 
HETATM   14  N3  UNL     1      28.140   1.722  53.436  1.00  0.00    -0.257 NA
HETATM   15  C10 UNL     1      28.540   0.454  54.029  1.00  0.00     0.317 C 
HETATM   16  O1  UNL     1      27.538  -0.426  54.220  1.00  0.00    -0.368 OA
HETATM   17  C11 UNL     1      26.505  -0.146  55.061  1.00  0.00     0.196 C 
HETATM   18  C12 UNL     1      25.709   1.095  54.737  1.00  0.00     0.201 C 
HETATM   19  O2  UNL     1      25.204   0.941  53.457  1.00  0.00    -0.351 OA
HETATM   20  C13 UNL     1      24.374   1.748  52.737  1.00  0.00     0.079 C 
HETATM   21  C14 UNL     1      23.245   1.010  52.807  1.00  0.00     0.168 C 
HETATM   22  C19 UNL     1      24.560   3.049  52.050  1.00  0.00     0.116 C 
HETATM   23  O3  UNL     1      22.172   1.595  52.140  1.00  0.00    -0.353 OA
HETATM   24  C15 UNL     1      22.150   3.010  52.109  1.00  0.00     0.152 C 
HETATM   25  C18 UNL     1      23.332   3.433  51.287  1.00  0.00     0.053 C 
BRANCH  24  26
HETATM   26  C16 UNL     1      20.843   3.577  51.709  1.00  0.00     0.199 C 
BRANCH  26  27
HETATM   27  O4  UNL     1      19.770   3.316  52.525  1.00  0.00    -0.393 OA
HETATM   28  C17 UNL     1      18.745   2.872  51.656  1.00  0.00     0.201 C 
ENDBRANCH  26  27
ENDBRANCH  24  26
ENDBRANCH   9  11
ENDBRANCH   7   9
TORSDOF 4
ENDMDL
MODEL 5
REMARK VINA RESULT:      -8.3      1.595      5.254
REMARK  4 active torsions:
REMARK  status: ('A' for Active; 'I' for Inactive)
REMARK    1  A    between atoms: C7_7  and  N1_8 
REMARK    2  A    between atoms: N1_8  and  C8_9 
REMARK    3  A    between atoms: C15_21  and  C16_22 
REMARK    4  A    between atoms: C16_22  and  O4_23 
ROOT
HETATM    1  C1  UNL     1      24.516   8.218  47.667  1.00  0.00     0.018 C 
HETATM    2  C2  UNL     1      25.026   7.261  48.199  1.00  0.00    -0.078 C 
HETATM    3  C3  UNL     1      25.603   6.124  48.832  1.00  0.00     0.019 A 
HETATM    4  C4  UNL     1      26.793   5.642  48.323  1.00  0.00     0.021 A 
HETATM    5  C5  UNL     1      27.379   4.528  48.907  1.00  0.00     0.004 A 
HETATM    6  C6  UNL     1      26.723   3.946  49.995  1.00  0.00     0.029 A 
HETATM    7  C7  UNL     1      25.514   4.463  50.489  1.00  0.00     0.034 A 
HETATM    8  C20 UNL     1      24.951   5.563  49.900  1.00  0.00     0.050 A 
ENDROOT
BRANCH   7   9
HETATM    9  N1  UNL     1      25.120   3.637  51.597  1.00  0.00    -0.344 N 
HETATM   10  H5  UNL     1      25.716   3.890  52.447  1.00  0.00     0.167 HD
BRANCH   9  11
HETATM   11  C8  UNL     1      24.090   2.615  51.596  1.00  0.00     0.116 C 
HETATM   12  N2  UNL     1      23.004   3.278  51.434  1.00  0.00    -0.228 NA
HETATM   13  C9  UNL     1      21.701   2.804  51.358  1.00  0.00     0.231 C 
HETATM   14  N3  UNL     1      20.705   2.253  50.751  1.00  0.00    -0.257 NA
HETATM   15  C10 UNL     1      19.428   2.041  51.418  1.00  0.00     0.317 C 
HETATM   16  O1  UNL     1      19.489   1.304  52.543  1.00  0.00    -0.368 OA
HETATM   17  C11 UNL     1      19.901   0.007  52.516  1.00  0.00     0.196 C 
HETATM   18  C12 UNL     1      21.287  -0.232  51.967  1.00  0.00     0.201 C 
HETATM   19  O2  UNL     1      22.172   0.493  52.746  1.00  0.00    -0.351 OA
HETATM   20  C13 UNL     1      23.533   0.557  52.701  1.00  0.00     0.079 C 
HETATM   21  C14 UNL     1      23.818  -0.161  53.808  1.00  0.00     0.168 C 
HETATM   22  C19 UNL     1      24.493   1.194  51.767  1.00  0.00     0.116 C 
HETATM   23  O3  UNL     1      25.186  -0.281  54.041  1.00  0.00    -0.353 OA
HETATM   24  C15 UNL     1      26.017  -0.295  52.895  1.00  0.00     0.152 C 
HETATM   25  C18 UNL     1      25.897   1.063  52.268  1.00  0.00     0.053 C 
BRANCH  24  26
HETATM   26  C16 UNL     1      27.393  -0.768  53.163  1.00  0.00     0.199 C 
BRANCH  26  27
HETATM   27  O4  UNL     1      27.815  -0.763  54.469  1.00  0.00    -0.393 OA
HETATM   28  C17 UNL     1      28.681   0.352  54.572  1.00  0.00     0.201 C 
ENDBRANCH  26  27
ENDBRANCH  24  26
ENDBRANCH   9  11
ENDBRANCH   7   9
TORSDOF 4
ENDMDL
MODEL 6
REMARK VINA RESULT:      -8.0      1.214      2.405
REMARK  4 active torsions:
REMARK  status: ('A' for Active; 'I' for Inactive)
REMARK    1  A    between atoms: C7_7  and  N1_8 
REMARK    2  A    between atoms: N1_8  and  C8_9 
REMARK    3  A    between atoms: C15_21  and  C16_22 
REMARK    4  A    between atoms: C16_22  and  O4_23 
ROOT
HETATM    1  C1  UNL     1      21.141   7.804  50.486  1.00  0.00     0.018 C 
HETATM    2  C2  UNL     1      22.070   7.083  50.210  1.00  0.00    -0.078 C 
HETATM    3  C3  UNL     1      23.150   6.213  49.886  1.00  0.00     0.019 A 
HETATM    4  C4  UNL     1      24.142   6.702  49.060  1.00  0.00     0.021 A 
HETATM    5  C5  UNL     1      25.204   5.878  48.713  1.00  0.00     0.004 A 
HETATM    6  C6  UNL     1      25.210   4.578  49.226  1.00  0.00     0.029 A 
HETATM    7  C7  UNL     1      24.184   4.113  50.066  1.00  0.00     0.034 A 
HETATM    8  C20 UNL     1      23.145   4.940  50.398  1.00  0.00     0.050 A 
ENDROOT
BRANCH   7   9
HETATM    9  N1  UNL     1      24.500   2.753  50.408  1.00  0.00    -0.344 N 
HETATM   10  H5  UNL     1      24.208   2.115  49.601  1.00  0.00     0.167 HD
BRANCH   9  11
HETATM   11  C8  UNL     1      25.111   2.285  51.639  1.00  0.00     0.116 C 
HETATM   12  N2  UNL     1      26.369   2.399  51.416  1.00  0.00    -0.228 NA
HETATM   13  C9  UNL     1      27.430   2.093  52.258  1.00  0.00     0.231 C 
HETATM   14  N3  UNL     1      28.231   2.328  53.241  1.00  0.00    -0.257 NA
HETATM   15  C10 UNL     1      29.284   1.393  53.608  1.00  0.00     0.317 C 
HETATM   16  O1  UNL     1      28.863   0.148  53.905  1.00  0.00    -0.368 OA
HETATM   17  C11 UNL     1      28.035  -0.083  54.960  1.00  0.00     0.196 C 
HETATM   18  C12 UNL     1      26.713   0.644  54.931  1.00  0.00     0.201 C 
HETATM   19  O2  UNL     1      26.059   0.270  53.770  1.00  0.00    -0.351 OA
HETATM   20  C13 UNL     1      24.815   0.596  53.319  1.00  0.00     0.079 C 
HETATM   21  C14 UNL     1      24.192  -0.583  53.537  1.00  0.00     0.168 C 
HETATM   22  C19 UNL     1      24.229   1.832  52.746  1.00  0.00     0.116 C 
HETATM   23  O3  UNL     1      22.850  -0.566  53.163  1.00  0.00    -0.353 OA
HETATM   24  C15 UNL     1      22.183   0.676  53.283  1.00  0.00     0.152 C 
HETATM   25  C18 UNL     1      22.824   1.599  52.289  1.00  0.00     0.053 C 
BRANCH  24  26
HETATM   26  C16 UNL     1      20.709   0.569  53.214  1.00  0.00     0.199 C 
BRANCH  26  27
HETATM   27  O4  UNL     1      20.079   1.218  52.182  1.00  0.00    -0.393 OA
HETATM   28  C17 UNL     1      19.096   0.311  51.720  1.00  0.00     0.201 C 
ENDBRANCH  26  27
ENDBRANCH  24  26
ENDBRANCH   9  11
ENDBRANCH   7   9
TORSDOF 4
ENDMDL
MODEL 7
REMARK VINA RESULT:      -7.7      3.929      6.954
REMARK  4 active torsions:
REMARK  status: ('A' for Active; 'I' for Inactive)
REMARK    1  A    between atoms: C7_7  and  N1_8 
REMARK    2  A    between atoms: N1_8  and  C8_9 
REMARK    3  A    between atoms: C15_21  and  C16_22 
REMARK    4  A    between atoms: C16_22  and  O4_23 
ROOT
HETATM    1  C1  UNL     1      28.638  -0.064  53.687  1.00  0.00     0.018 C 
HETATM    2  C2  UNL     1      27.764   0.652  53.259  1.00  0.00    -0.078 C 
HETATM    3  C3  UNL     1      26.738   1.487  52.732  1.00  0.00     0.019 A 
HETATM    4  C4  UNL     1      25.699   1.835  53.573  1.00  0.00     0.021 A 
HETATM    5  C5  UNL     1      24.675   2.637  53.090  1.00  0.00     0.004 A 
HETATM    6  C6  UNL     1      24.752   3.056  51.759  1.00  0.00     0.029 A 
HETATM    7  C7  UNL     1      25.825   2.684  50.931  1.00  0.00     0.034 A 
HETATM    8  C20 UNL     1      26.827   1.892  51.425  1.00  0.00     0.050 A 
ENDROOT
BRANCH   7   9
HETATM    9  N1  UNL     1      25.593   3.280  49.643  1.00  0.00    -0.344 N 
HETATM   10  H5  UNL     1      24.965   2.634  49.070  1.00  0.00     0.167 HD
BRANCH   9  11
HETATM   11  C8  UNL     1      26.114   4.548  49.166  1.00  0.00     0.116 C 
HETATM   12  N2  UNL     1      27.377   4.344  49.078  1.00  0.00    -0.228 NA
HETATM   13  C9  UNL     1      28.372   5.223  48.670  1.00  0.00     0.231 C 
HETATM   14  N3  UNL     1      29.058   5.862  47.785  1.00  0.00    -0.257 NA
HETATM   15  C10 UNL     1      30.132   6.770  48.161  1.00  0.00     0.317 C 
HETATM   16  O1  UNL     1      29.767   7.774  48.982  1.00  0.00    -0.368 OA
HETATM   17  C11 UNL     1      28.860   8.710  48.593  1.00  0.00     0.196 C 
HETATM   18  C12 UNL     1      27.501   8.186  48.196  1.00  0.00     0.201 C 
HETATM   19  O2  UNL     1      26.986   7.503  49.284  1.00  0.00    -0.351 OA
HETATM   20  C13 UNL     1      25.772   6.908  49.452  1.00  0.00     0.079 C 
HETATM   21  C14 UNL     1      25.210   7.801  50.295  1.00  0.00     0.168 C 
HETATM   22  C19 UNL     1      25.163   5.664  48.920  1.00  0.00     0.116 C 
HETATM   23  O3  UNL     1      23.912   7.458  50.664  1.00  0.00    -0.353 OA
HETATM   24  C15 UNL     1      23.156   6.744  49.704  1.00  0.00     0.152 C 
HETATM   25  C18 UNL     1      23.826   5.412  49.542  1.00  0.00     0.053 C 
BRANCH  24  26
HETATM   26  C16 UNL     1      21.705   6.712  49.993  1.00  0.00     0.199 C 
BRANCH  26  27
HETATM   27  O4  UNL     1      21.185   7.759  50.712  1.00  0.00    -0.393 OA
HETATM   28  C17 UNL     1      20.685   8.661  49.742  1.00  0.00     0.201 C 
ENDBRANCH  26  27
ENDBRANCH  24  26
ENDBRANCH   9  11
ENDBRANCH   7   9
TORSDOF 4
ENDMDL
MODEL 8
REMARK VINA RESULT:      -7.6      3.145      7.739
REMARK  4 active torsions:
REMARK  status: ('A' for Active; 'I' for Inactive)
REMARK    1  A    between atoms: C7_7  and  N1_8 
REMARK    2  A    between atoms: N1_8  and  C8_9 
REMARK    3  A    between atoms: C15_21  and  C16_22 
REMARK    4  A    between atoms: C16_22  and  O4_23 
ROOT
HETATM    1  C1  UNL     1      22.496  -1.667  55.350  1.00  0.00     0.018 C 
HETATM    2  C2  UNL     1      21.951  -1.063  54.457  1.00  0.00    -0.078 C 
HETATM    3  C3  UNL     1      21.331  -0.353  53.390  1.00  0.00     0.019 A 
HETATM    4  C4  UNL     1      19.974  -0.531  53.203  1.00  0.00     0.021 A 
HETATM    5  C5  UNL     1      19.338   0.135  52.165  1.00  0.00     0.004 A 
HETATM    6  C6  UNL     1      20.118   0.964  51.353  1.00  0.00     0.029 A 
HETATM    7  C7  UNL     1      21.496   1.124  51.573  1.00  0.00     0.034 A 
HETATM    8  C20 UNL     1      22.106   0.458  52.601  1.00  0.00     0.050 A 
ENDROOT
BRANCH   7   9
HETATM    9  N1  UNL     1      21.982   2.034  50.571  1.00  0.00    -0.344 N 
HETATM   10  H5  UNL     1      21.875   1.580  49.609  1.00  0.00     0.167 HD
BRANCH   9  11
HETATM   11  C8  UNL     1      22.537   3.357  50.794  1.00  0.00     0.116 C 
HETATM   12  N2  UNL     1      21.611   4.146  50.389  1.00  0.00    -0.228 NA
HETATM   13  C9  UNL     1      21.602   5.535  50.369  1.00  0.00     0.231 C 
HETATM   14  N3  UNL     1      21.478   6.698  50.913  1.00  0.00    -0.257 NA
HETATM   15  C10 UNL     1      21.631   7.922  50.140  1.00  0.00     0.317 C 
HETATM   16  O1  UNL     1      22.815   8.053  49.510  1.00  0.00    -0.368 OA
HETATM   17  C11 UNL     1      23.981   8.127  50.209  1.00  0.00     0.196 C 
HETATM   18  C12 UNL     1      24.287   6.954  51.107  1.00  0.00     0.201 C 
HETATM   19  O2  UNL     1      24.324   5.821  50.311  1.00  0.00    -0.351 OA
HETATM   20  C13 UNL     1      24.624   4.532  50.632  1.00  0.00     0.079 C 
HETATM   21  C14 UNL     1      25.845   4.447  50.062  1.00  0.00     0.168 C 
HETATM   22  C19 UNL     1      23.901   3.470  51.374  1.00  0.00     0.116 C 
HETATM   23  O3  UNL     1      26.437   3.197  50.227  1.00  0.00    -0.353 OA
HETATM   24  C15 UNL     1      26.107   2.500  51.413  1.00  0.00     0.152 C 
HETATM   25  C18 UNL     1      24.646   2.174  51.321  1.00  0.00     0.053 C 
BRANCH  24  26
HETATM   26  C16 UNL     1      27.010   1.366  51.708  1.00  0.00     0.199 C 
BRANCH  26  27
HETATM   27  O4  UNL     1      27.370   1.175  53.019  1.00  0.00    -0.393 OA
HETATM   28  C17 UNL     1      28.146   2.310  53.357  1.00  0.00     0.201 C 
ENDBRANCH  26  27
ENDBRANCH  24  26
ENDBRANCH   9  11
ENDBRANCH   7   9
TORSDOF 4
ENDMDL
MODEL 9
REMARK VINA RESULT:      -7.6      2.849      4.454
REMARK  4 active torsions:
REMARK  status: ('A' for Active; 'I' for Inactive)
REMARK    1  A    between atoms: C7_7  and  N1_8 
REMARK    2  A    between atoms: N1_8  and  C8_9 
REMARK    3  A    between atoms: C15_21  and  C16_22 
REMARK    4  A    between atoms: C16_22  and  O4_23 
ROOT
HETATM    1  C1  UNL     1      27.746   4.976  48.506  1.00  0.00     0.018 C 
HETATM    2  C2  UNL     1      26.706   5.226  49.066  1.00  0.00    -0.078 C 
HETATM    3  C3  UNL     1      25.476   5.495  49.730  1.00  0.00     0.019 A 
HETATM    4  C4  UNL     1      25.357   6.699  50.396  1.00  0.00     0.021 A 
HETATM    5  C5  UNL     1      24.177   6.991  51.066  1.00  0.00     0.004 A 
HETATM    6  C6  UNL     1      23.157   6.036  51.029  1.00  0.00     0.029 A 
HETATM    7  C7  UNL     1      23.311   4.821  50.340  1.00  0.00     0.034 A 
HETATM    8  C20 UNL     1      24.483   4.551  49.685  1.00  0.00     0.050 A 
ENDROOT
BRANCH   7   9
HETATM    9  N1  UNL     1      22.088   4.083  50.503  1.00  0.00    -0.344 N 
HETATM   10  H5  UNL     1      21.393   4.395  49.754  1.00  0.00     0.167 HD
BRANCH   9  11
HETATM   11  C8  UNL     1      21.808   3.077  51.510  1.00  0.00     0.116 C 
HETATM   12  N2  UNL     1      22.912   2.431  51.610  1.00  0.00    -0.228 NA
HETATM   13  C9  UNL     1      23.214   1.353  52.431  1.00  0.00     0.231 C 
HETATM   14  N3  UNL     1      23.534   0.812  53.558  1.00  0.00    -0.257 NA
HETATM   15  C10 UNL     1      23.711  -0.627  53.689  1.00  0.00     0.317 C 
HETATM   16  O1  UNL     1      22.642  -1.367  53.338  1.00  0.00    -0.368 OA
HETATM   17  C11 UNL     1      21.461  -1.263  54.007  1.00  0.00     0.196 C 
HETATM   18  C12 UNL     1      20.836   0.111  54.032  1.00  0.00     0.201 C 
HETATM   19  O2  UNL     1      20.631   0.496  52.718  1.00  0.00    -0.351 OA
HETATM   20  C13 UNL     1      20.038   1.615  52.214  1.00  0.00     0.079 C 
HETATM   21  C14 UNL     1      18.882   1.068  51.781  1.00  0.00     0.168 C 
HETATM   22  C19 UNL     1      20.453   3.036  52.121  1.00  0.00     0.116 C 
HETATM   23  O3  UNL     1      18.027   1.998  51.193  1.00  0.00    -0.353 OA
HETATM   24  C15 UNL     1      18.096   3.318  51.698  1.00  0.00     0.152 C 
HETATM   25  C18 UNL     1      19.458   3.836  51.341  1.00  0.00     0.053 C 
BRANCH  24  26
HETATM   26  C16 UNL     1      16.952   4.168  51.301  1.00  0.00     0.199 C 
BRANCH  26  27
HETATM   27  O4  UNL     1      16.146   4.643  52.305  1.00  0.00    -0.393 OA
HETATM   28  C17 UNL     1      15.320   3.551  52.663  1.00  0.00     0.201 C 
ENDBRANCH  26  27
ENDBRANCH  24  26
ENDBRANCH   9  11
ENDBRANCH   7   9
TORSDOF 4
ENDMDL
