MODEL 1
REMARK VINA RESULT:      -8.1      0.000      0.000
REMARK  4 active torsions:
REMARK  status: ('A' for Active; 'I' for Inactive)
REMARK    1  A    between atoms: C6_7  and  C7_8 
REMARK    2  A    between atoms: C7_8  and  N1_9 
REMARK    3  A    between atoms: C11_14  and  N2_16 
REMARK    4  A    between atoms: N2_16  and  C12_17 
ROOT
HETATM    1  N1  UNL     1      24.804   1.723  52.286  1.00  0.00    -0.381 N 
HETATM    2  C8  UNL     1      24.371   3.071  52.151  1.00  0.00     0.087 C 
HETATM    3  C9  UNL     1      23.163   3.455  51.731  1.00  0.00     0.025 C 
HETATM    4  P1  UNL     1      22.145   1.951  51.348  1.00  0.00    -0.070 P 
HETATM    5  C10 UNL     1      22.557   0.810  52.723  1.00  0.00    -0.000 C 
HETATM    6  C11 UNL     1      21.791   0.016  53.453  1.00  0.00     0.088 C 
HETATM    7 BR1  UNL     1      22.188  -1.175  54.883  1.00  0.00    -0.031 Br
HETATM    8  C18 UNL     1      23.989   0.791  53.057  1.00  0.00     0.164 C 
HETATM    9  H9  UNL     1      22.785   1.361  50.160  1.00  0.00     0.066 HD
ENDROOT
BRANCH   6  10
HETATM   10  N2  UNL     1      20.440   0.163  52.992  1.00  0.00    -0.359 N 
HETATM   11  H10 UNL     1      20.270   1.004  52.372  1.00  0.00     0.166 HD
BRANCH  10  12
HETATM   12  C12 UNL     1      19.211  -0.543  53.142  1.00  0.00     0.097 C 
HETATM   13  C13 UNL     1      18.121  -0.693  52.402  1.00  0.00    -0.023 A 
HETATM   14  C14 UNL     1      17.045  -1.521  52.922  1.00  0.00     0.011 A 
HETATM   15  C17 UNL     1      18.136   0.031  51.083  1.00  0.00     0.188 A 
HETATM   16  C15 UNL     1      15.993  -1.622  52.128  1.00  0.00     0.019 A 
HETATM   17  C16 UNL     1      15.933  -0.940  50.819  1.00  0.00     0.110 A 
HETATM   18  N3  UNL     1      16.890  -0.213  50.374  1.00  0.00    -0.297 NA
ENDBRANCH  10  12
ENDBRANCH   6  10
BRANCH   1  19
HETATM   19  C7  UNL     1      26.032   1.216  51.679  1.00  0.00     0.162 C 
BRANCH  19  20
HETATM   20  C6  UNL     1      27.175   1.156  52.589  1.00  0.00    -0.019 A 
HETATM   21  C1  UNL     1      27.535  -0.149  52.941  1.00  0.00     0.042 A 
HETATM   22 CL1  UNL     1      26.772  -1.677  52.487  1.00  0.00    -0.084 Cl
HETATM   23  C2  UNL     1      28.621  -0.361  53.788  1.00  0.00     0.024 A 
HETATM   24  C3  UNL     1      29.363   0.703  54.297  1.00  0.00     0.002 A 
HETATM   25  C4  UNL     1      29.002   1.993  53.947  1.00  0.00     0.001 A 
HETATM   26  C5  UNL     1      27.931   2.182  53.112  1.00  0.00     0.010 A 
ENDBRANCH  19  20
ENDBRANCH   1  19
TORSDOF 4
ENDMDL
MODEL 2
REMARK VINA RESULT:      -7.7      2.750      3.776
REMARK  4 active torsions:
REMARK  status: ('A' for Active; 'I' for Inactive)
REMARK    1  A    between atoms: C6_7  and  C7_8 
REMARK    2  A    between atoms: C7_8  and  N1_9 
REMARK    3  A    between atoms: C11_14  and  N2_16 
REMARK    4  A    between atoms: N2_16  and  C12_17 
ROOT
HETATM    1  N1  UNL     1      23.070   1.017  52.871  1.00  0.00    -0.381 N 
HETATM    2  C8  UNL     1      23.759  -0.135  53.341  1.00  0.00     0.087 C 
HETATM    3  C9  UNL     1      23.283  -1.009  54.230  1.00  0.00     0.025 C 
HETATM    4  P1  UNL     1      21.583  -0.480  54.756  1.00  0.00    -0.070 P 
HETATM    5  C10 UNL     1      20.816   0.071  53.184  1.00  0.00    -0.000 C 
HETATM    6  C11 UNL     1      19.605  -0.129  52.692  1.00  0.00     0.088 C 
HETATM    7 BR1  UNL     1      18.782   0.427  51.069  1.00  0.00    -0.031 Br
HETATM    8  C18 UNL     1      21.719   0.867  52.341  1.00  0.00     0.164 C 
HETATM    9  H9  UNL     1      21.800   0.756  55.527  1.00  0.00     0.066 HD
ENDROOT
BRANCH   6  10
HETATM   10  N2  UNL     1      18.869  -0.917  53.640  1.00  0.00    -0.359 N 
HETATM   11  H10 UNL     1      18.634  -0.420  54.543  1.00  0.00     0.166 HD
BRANCH  10  12
HETATM   12  C12 UNL     1      18.343  -2.240  53.701  1.00  0.00     0.097 C 
HETATM   13  C13 UNL     1      17.226  -2.824  53.290  1.00  0.00    -0.023 A 
HETATM   14  C14 UNL     1      17.055  -4.244  53.553  1.00  0.00     0.011 A 
HETATM   15  C17 UNL     1      16.252  -1.920  52.584  1.00  0.00     0.188 A 
HETATM   16  C15 UNL     1      15.917  -4.754  53.113  1.00  0.00     0.019 A 
HETATM   17  C16 UNL     1      14.911  -3.929  52.412  1.00  0.00     0.110 A 
HETATM   18  N3  UNL     1      15.076  -2.678  52.188  1.00  0.00    -0.297 NA
ENDBRANCH  10  12
ENDBRANCH   6  10
BRANCH   1  19
HETATM   19  C7  UNL     1      23.647   2.359  52.900  1.00  0.00     0.162 C 
BRANCH  19  20
HETATM   20  C6  UNL     1      24.416   2.711  51.708  1.00  0.00    -0.019 A 
HETATM   21  C1  UNL     1      25.796   2.556  51.874  1.00  0.00     0.042 A 
HETATM   22 CL1  UNL     1      26.698   2.063  53.311  1.00  0.00    -0.084 Cl
HETATM   23  C2  UNL     1      26.655   2.835  50.812  1.00  0.00     0.024 A 
HETATM   24  C3  UNL     1      26.169   3.269  49.580  1.00  0.00     0.002 A 
HETATM   25  C4  UNL     1      24.801   3.421  49.422  1.00  0.00     0.001 A 
HETATM   26  C5  UNL     1      23.972   3.141  50.477  1.00  0.00     0.010 A 
ENDBRANCH  19  20
ENDBRANCH   1  19
TORSDOF 4
ENDMDL
MODEL 3
REMARK VINA RESULT:      -7.7      4.343      5.931
REMARK  4 active torsions:
REMARK  status: ('A' for Active; 'I' for Inactive)
REMARK    1  A    between atoms: C6_7  and  C7_8 
REMARK    2  A    between atoms: C7_8  and  N1_9 
REMARK    3  A    between atoms: C11_14  and  N2_16 
REMARK    4  A    between atoms: N2_16  and  C12_17 
ROOT
HETATM    1  N1  UNL     1      25.516   1.425  52.632  1.00  0.00    -0.381 N 
HETATM    2  C8  UNL     1      24.257   0.784  52.467  1.00  0.00     0.087 C 
HETATM    3  C9  UNL     1      23.104   1.403  52.209  1.00  0.00     0.025 C 
HETATM    4  P1  UNL     1      23.404   3.232  52.103  1.00  0.00    -0.070 P 
HETATM    5  C10 UNL     1      24.982   3.339  51.175  1.00  0.00    -0.000 C 
HETATM    6  C11 UNL     1      25.362   4.146  50.198  1.00  0.00     0.088 C 
HETATM    7 BR1  UNL     1      26.986   4.282  49.217  1.00  0.00    -0.031 Br
HETATM    8  C18 UNL     1      25.980   2.349  51.602  1.00  0.00     0.164 C 
HETATM    9  H9  UNL     1      23.745   3.633  53.479  1.00  0.00     0.066 HD
ENDROOT
BRANCH   6  10
HETATM   10  N2  UNL     1      24.273   5.038  49.915  1.00  0.00    -0.359 N 
HETATM   11  H10 UNL     1      23.779   5.422  50.768  1.00  0.00     0.166 HD
BRANCH  10  12
HETATM   12  C12 UNL     1      23.647   5.573  48.752  1.00  0.00     0.097 C 
HETATM   13  C13 UNL     1      22.867   5.082  47.799  1.00  0.00    -0.023 A 
HETATM   14  C14 UNL     1      22.420   5.980  46.745  1.00  0.00     0.011 A 
HETATM   15  C17 UNL     1      22.531   3.622  47.932  1.00  0.00     0.188 A 
HETATM   16  C15 UNL     1      21.646   5.418  45.832  1.00  0.00     0.019 A 
HETATM   17  C16 UNL     1      21.275   3.989  45.895  1.00  0.00     0.110 A 
HETATM   18  N3  UNL     1      21.676   3.210  46.830  1.00  0.00    -0.297 NA
ENDBRANCH  10  12
ENDBRANCH   6  10
BRANCH   1  19
HETATM   19  C7  UNL     1      26.374   1.212  53.795  1.00  0.00     0.162 C 
BRANCH  19  20
HETATM   20  C6  UNL     1      27.454   0.250  53.579  1.00  0.00    -0.019 A 
HETATM   21  C1  UNL     1      28.729   0.812  53.707  1.00  0.00     0.042 A 
HETATM   22 CL1  UNL     1      29.181   2.490  54.026  1.00  0.00    -0.084 Cl
HETATM   23  C2  UNL     1      29.856   0.008  53.549  1.00  0.00     0.024 A 
HETATM   24  C3  UNL     1      29.744  -1.352  53.263  1.00  0.00     0.002 A 
HETATM   25  C4  UNL     1      28.480  -1.902  53.137  1.00  0.00     0.001 A 
HETATM   26  C5  UNL     1      27.383  -1.096  53.297  1.00  0.00     0.010 A 
ENDBRANCH  19  20
ENDBRANCH   1  19
TORSDOF 4
ENDMDL
MODEL 4
REMARK VINA RESULT:      -7.6      4.780      8.114
REMARK  4 active torsions:
REMARK  status: ('A' for Active; 'I' for Inactive)
REMARK    1  A    between atoms: C6_7  and  C7_8 
REMARK    2  A    between atoms: C7_8  and  N1_9 
REMARK    3  A    between atoms: C11_14  and  N2_16 
REMARK    4  A    between atoms: N2_16  and  C12_17 
ROOT
HETATM    1  N1  UNL     1      25.376   1.947  51.986  1.00  0.00    -0.381 N 
HETATM    2  C8  UNL     1      24.116   1.388  51.635  1.00  0.00     0.087 C 
HETATM    3  C9  UNL     1      23.055   2.080  51.215  1.00  0.00     0.025 C 
HETATM    4  P1  UNL     1      23.485   3.885  51.167  1.00  0.00    -0.070 P 
HETATM    5  C10 UNL     1      25.185   3.888  50.479  1.00  0.00    -0.000 C 
HETATM    6  C11 UNL     1      25.755   4.666  49.574  1.00  0.00     0.088 C 
HETATM    7 BR1  UNL     1      27.511   4.693  48.842  1.00  0.00    -0.031 Br
HETATM    8  C18 UNL     1      26.044   2.836  51.042  1.00  0.00     0.164 C 
HETATM    9  H9  UNL     1      23.646   4.268  52.580  1.00  0.00     0.066 HD
ENDROOT
BRANCH   6  10
HETATM   10  N2  UNL     1      24.779   5.625  49.141  1.00  0.00    -0.359 N 
HETATM   11  H10 UNL     1      23.812   5.491  49.549  1.00  0.00     0.166 HD
BRANCH  10  12
HETATM   12  C12 UNL     1      24.751   6.758  48.277  1.00  0.00     0.097 C 
HETATM   13  C13 UNL     1      25.154   8.017  48.372  1.00  0.00    -0.023 A 
HETATM   14  C14 UNL     1      24.938   8.897  47.233  1.00  0.00     0.011 A 
HETATM   15  C17 UNL     1      25.799   8.389  49.679  1.00  0.00     0.188 A 
HETATM   16  C15 UNL     1      25.366  10.136  47.404  1.00  0.00     0.019 A 
HETATM   17  C16 UNL     1      26.009  10.575  48.660  1.00  0.00     0.110 A 
HETATM   18  N3  UNL     1      26.192   9.789  49.655  1.00  0.00    -0.297 NA
ENDBRANCH  10  12
ENDBRANCH   6  10
BRANCH   1  19
HETATM   19  C7  UNL     1      26.040   1.682  53.260  1.00  0.00     0.162 C 
BRANCH  19  20
HETATM   20  C6  UNL     1      27.007   0.586  53.221  1.00  0.00    -0.019 A 
HETATM   21  C1  UNL     1      28.319   0.998  53.476  1.00  0.00     0.042 A 
HETATM   22 CL1  UNL     1      28.941   2.625  53.771  1.00  0.00    -0.084 Cl
HETATM   23  C2  UNL     1      29.347   0.056  53.491  1.00  0.00     0.024 A 
HETATM   24  C3  UNL     1      29.098  -1.295  53.256  1.00  0.00     0.002 A 
HETATM   25  C4  UNL     1      27.796  -1.696  53.003  1.00  0.00     0.001 A 
HETATM   26  C5  UNL     1      26.799  -0.756  52.993  1.00  0.00     0.010 A 
ENDBRANCH  19  20
ENDBRANCH   1  19
TORSDOF 4
ENDMDL
MODEL 5
REMARK VINA RESULT:      -7.4      4.663      8.600
REMARK  4 active torsions:
REMARK  status: ('A' for Active; 'I' for Inactive)
REMARK    1  A    between atoms: C6_7  and  C7_8 
REMARK    2  A    between atoms: C7_8  and  N1_9 
REMARK    3  A    between atoms: C11_14  and  N2_16 
REMARK    4  A    between atoms: N2_16  and  C12_17 
ROOT
HETATM    1  N1  UNL     1      21.866   3.089  50.691  1.00  0.00    -0.381 N 
HETATM    2  C8  UNL     1      21.598   3.780  51.905  1.00  0.00     0.087 C 
HETATM    3  C9  UNL     1      22.336   4.774  52.406  1.00  0.00     0.025 C 
HETATM    4  P1  UNL     1      23.765   5.106  51.269  1.00  0.00    -0.070 P 
HETATM    5  C10 UNL     1      23.006   4.984  49.604  1.00  0.00    -0.000 C 
HETATM    6  C11 UNL     1      23.158   5.732  48.523  1.00  0.00     0.088 C 
HETATM    7 BR1  UNL     1      22.388   5.632  46.786  1.00  0.00    -0.031 Br
HETATM    8  C18 UNL     1      22.071   3.858  49.469  1.00  0.00     0.164 C 
HETATM    9  H9  UNL     1      24.618   3.911  51.386  1.00  0.00     0.066 HD
ENDROOT
BRANCH   6  10
HETATM   10  N2  UNL     1      24.098   6.771  48.836  1.00  0.00    -0.359 N 
HETATM   11  H10 UNL     1      23.808   7.409  49.628  1.00  0.00     0.166 HD
BRANCH  10  12
HETATM   12  C12 UNL     1      25.370   7.197  48.355  1.00  0.00     0.097 C 
HETATM   13  C13 UNL     1      26.576   6.651  48.288  1.00  0.00    -0.023 A 
HETATM   14  C14 UNL     1      27.656   7.436  47.708  1.00  0.00     0.011 A 
HETATM   15  C17 UNL     1      26.680   5.252  48.833  1.00  0.00     0.188 A 
HETATM   16  C15 UNL     1      28.827   6.824  47.677  1.00  0.00     0.019 A 
HETATM   17  C16 UNL     1      29.007   5.452  48.194  1.00  0.00     0.110 A 
HETATM   18  N3  UNL     1      28.046   4.772  48.702  1.00  0.00    -0.297 NA
ENDBRANCH  10  12
ENDBRANCH   6  10
BRANCH   1  19
HETATM   19  C7  UNL     1      21.957   1.634  50.605  1.00  0.00     0.162 C 
BRANCH  19  20
HETATM   20  C6  UNL     1      22.711   1.011  51.692  1.00  0.00    -0.019 A 
HETATM   21  C1  UNL     1      21.923   0.207  52.523  1.00  0.00     0.042 A 
HETATM   22 CL1  UNL     1      20.183  -0.092  52.460  1.00  0.00    -0.084 Cl
HETATM   23  C2  UNL     1      22.512  -0.467  53.591  1.00  0.00     0.024 A 
HETATM   24  C3  UNL     1      23.876  -0.360  53.855  1.00  0.00     0.002 A 
HETATM   25  C4  UNL     1      24.651   0.439  53.030  1.00  0.00     0.001 A 
HETATM   26  C5  UNL     1      24.055   1.094  51.983  1.00  0.00     0.010 A 
ENDBRANCH  19  20
ENDBRANCH   1  19
TORSDOF 4
ENDMDL
MODEL 6
REMARK VINA RESULT:      -7.4      5.156      9.354
REMARK  4 active torsions:
REMARK  status: ('A' for Active; 'I' for Inactive)
REMARK    1  A    between atoms: C6_7  and  C7_8 
REMARK    2  A    between atoms: C7_8  and  N1_9 
REMARK    3  A    between atoms: C11_14  and  N2_16 
REMARK    4  A    between atoms: N2_16  and  C12_17 
ROOT
HETATM    1  N1  UNL     1      24.179   2.270  51.684  1.00  0.00    -0.381 N 
HETATM    2  C8  UNL     1      25.431   1.866  52.226  1.00  0.00     0.087 C 
HETATM    3  C9  UNL     1      26.626   2.161  51.709  1.00  0.00     0.025 C 
HETATM    4  P1  UNL     1      26.393   3.176  50.173  1.00  0.00    -0.070 P 
HETATM    5  C10 UNL     1      25.043   4.327  50.638  1.00  0.00    -0.000 C 
HETATM    6  C11 UNL     1      24.889   5.622  50.415  1.00  0.00     0.088 C 
HETATM    7 BR1  UNL     1      23.505   6.840  50.884  1.00  0.00    -0.031 Br
HETATM    8  C18 UNL     1      23.957   3.681  51.390  1.00  0.00     0.164 C 
HETATM    9  H9  UNL     1      25.784   2.249  49.203  1.00  0.00     0.066 HD
ENDROOT
BRANCH   6  10
HETATM   10  N2  UNL     1      26.032   6.079  49.676  1.00  0.00    -0.359 N 
HETATM   11  H10 UNL     1      26.957   5.673  49.991  1.00  0.00     0.166 HD
BRANCH  10  12
HETATM   12  C12 UNL     1      26.276   6.965  48.587  1.00  0.00     0.097 C 
HETATM   13  C13 UNL     1      27.326   7.254  47.832  1.00  0.00    -0.023 A 
HETATM   14  C14 UNL     1      27.168   8.252  46.786  1.00  0.00     0.011 A 
HETATM   15  C17 UNL     1      28.582   6.494  48.161  1.00  0.00     0.188 A 
HETATM   16  C15 UNL     1      28.259   8.486  46.076  1.00  0.00     0.019 A 
HETATM   17  C16 UNL     1      29.529   7.780  46.341  1.00  0.00     0.110 A 
HETATM   18  N3  UNL     1      29.654   6.902  47.267  1.00  0.00    -0.297 NA
ENDBRANCH  10  12
ENDBRANCH   6  10
BRANCH   1  19
HETATM   19  C7  UNL     1      23.096   1.333  51.396  1.00  0.00     0.162 C 
BRANCH  19  20
HETATM   20  C6  UNL     1      22.614   0.592  52.560  1.00  0.00    -0.019 A 
HETATM   21  C1  UNL     1      21.402   1.078  53.063  1.00  0.00     0.042 A 
HETATM   22 CL1  UNL     1      20.447   2.464  52.525  1.00  0.00    -0.084 Cl
HETATM   23  C2  UNL     1      20.811   0.455  54.161  1.00  0.00     0.024 A 
HETATM   24  C3  UNL     1      21.402  -0.648  54.775  1.00  0.00     0.002 A 
HETATM   25  C4  UNL     1      22.601  -1.125  54.273  1.00  0.00     0.001 A 
HETATM   26  C5  UNL     1      23.167  -0.500  53.192  1.00  0.00     0.010 A 
ENDBRANCH  19  20
ENDBRANCH   1  19
TORSDOF 4
ENDMDL
MODEL 7
REMARK VINA RESULT:      -7.3      4.430      8.661
REMARK  4 active torsions:
REMARK  status: ('A' for Active; 'I' for Inactive)
REMARK    1  A    between atoms: C6_7  and  C7_8 
REMARK    2  A    between atoms: C7_8  and  N1_9 
REMARK    3  A    between atoms: C11_14  and  N2_16 
REMARK    4  A    between atoms: N2_16  and  C12_17 
ROOT
HETATM    1  N1  UNL     1      21.594   2.640  50.714  1.00  0.00    -0.381 N 
HETATM    2  C8  UNL     1      21.268   3.323  51.918  1.00  0.00     0.087 C 
HETATM    3  C9  UNL     1      21.978   4.315  52.459  1.00  0.00     0.025 C 
HETATM    4  P1  UNL     1      23.458   4.657  51.393  1.00  0.00    -0.070 P 
HETATM    5  C10 UNL     1      22.779   4.545  49.693  1.00  0.00    -0.000 C 
HETATM    6  C11 UNL     1      22.979   5.300  48.625  1.00  0.00     0.088 C 
HETATM    7 BR1  UNL     1      22.290   5.210  46.854  1.00  0.00    -0.031 Br
HETATM    8  C18 UNL     1      21.854   3.418  49.507  1.00  0.00     0.164 C 
HETATM    9  H9  UNL     1      24.308   3.464  51.541  1.00  0.00     0.066 HD
ENDROOT
BRANCH   6  10
HETATM   10  N2  UNL     1      23.900   6.339  48.989  1.00  0.00    -0.359 N 
HETATM   11  H10 UNL     1      23.651   6.866  49.871  1.00  0.00     0.166 HD
BRANCH  10  12
HETATM   12  C12 UNL     1      25.112   6.878  48.467  1.00  0.00     0.097 C 
HETATM   13  C13 UNL     1      26.364   6.452  48.376  1.00  0.00    -0.023 A 
HETATM   14  C14 UNL     1      27.346   7.327  47.756  1.00  0.00     0.011 A 
HETATM   15  C17 UNL     1      26.617   5.080  48.940  1.00  0.00     0.188 A 
HETATM   16  C15 UNL     1      28.571   6.832  47.702  1.00  0.00     0.019 A 
HETATM   17  C16 UNL     1      28.897   5.493  48.235  1.00  0.00     0.110 A 
HETATM   18  N3  UNL     1      28.020   4.733  48.780  1.00  0.00    -0.297 NA
ENDBRANCH  10  12
ENDBRANCH   6  10
BRANCH   1  19
HETATM   19  C7  UNL     1      21.692   1.186  50.623  1.00  0.00     0.162 C 
BRANCH  19  20
HETATM   20  C6  UNL     1      21.612   0.494  51.908  1.00  0.00    -0.019 A 
HETATM   21  C1  UNL     1      22.843   0.408  52.568  1.00  0.00     0.042 A 
HETATM   22 CL1  UNL     1      24.434   0.958  52.035  1.00  0.00    -0.084 Cl
HETATM   23  C2  UNL     1      22.914  -0.208  53.816  1.00  0.00     0.024 A 
HETATM   24  C3  UNL     1      21.783  -0.745  54.427  1.00  0.00     0.002 A 
HETATM   25  C4  UNL     1      20.567  -0.658  53.769  1.00  0.00     0.001 A 
HETATM   26  C5  UNL     1      20.516  -0.048  52.542  1.00  0.00     0.010 A 
ENDBRANCH  19  20
ENDBRANCH   1  19
TORSDOF 4
ENDMDL
MODEL 8
REMARK VINA RESULT:      -7.2      3.391      8.311
REMARK  4 active torsions:
REMARK  status: ('A' for Active; 'I' for Inactive)
REMARK    1  A    between atoms: C6_7  and  C7_8 
REMARK    2  A    between atoms: C7_8  and  N1_9 
REMARK    3  A    between atoms: C11_14  and  N2_16 
REMARK    4  A    between atoms: N2_16  and  C12_17 
ROOT
HETATM    1  N1  UNL     1      20.284   0.826  51.857  1.00  0.00    -0.381 N 
HETATM    2  C8  UNL     1      19.661   0.177  52.959  1.00  0.00     0.087 C 
HETATM    3  C9  UNL     1      20.229  -0.757  53.725  1.00  0.00     0.025 C 
HETATM    4  P1  UNL     1      21.956  -1.074  53.123  1.00  0.00    -0.070 P 
HETATM    5  C10 UNL     1      22.576   0.608  52.739  1.00  0.00    -0.000 C 
HETATM    6  C11 UNL     1      23.745   1.179  52.977  1.00  0.00     0.088 C 
HETATM    7 BR1  UNL     1      24.416   2.917  52.593  1.00  0.00    -0.031 Br
HETATM    8  C18 UNL     1      21.589   1.451  52.049  1.00  0.00     0.164 C 
HETATM    9  H9  UNL     1      21.779  -1.723  51.812  1.00  0.00     0.066 HD
ENDROOT
BRANCH   6  10
HETATM   10  N2  UNL     1      24.574   0.218  53.648  1.00  0.00    -0.359 N 
HETATM   11  H10 UNL     1      24.232  -0.072  54.606  1.00  0.00     0.166 HD
BRANCH  10  12
HETATM   12  C12 UNL     1      25.781  -0.485  53.367  1.00  0.00     0.097 C 
HETATM   13  C13 UNL     1      27.070  -0.251  53.572  1.00  0.00    -0.023 A 
HETATM   14  C14 UNL     1      28.030  -1.247  53.122  1.00  0.00     0.011 A 
HETATM   15  C17 UNL     1      27.386   1.048  54.262  1.00  0.00     0.188 A 
HETATM   16  C15 UNL     1      29.294  -0.943  53.361  1.00  0.00     0.019 A 
HETATM   17  C16 UNL     1      29.682   0.315  54.034  1.00  0.00     0.110 A 
HETATM   18  N3  UNL     1      28.824   1.184  54.424  1.00  0.00    -0.297 NA
ENDBRANCH  10  12
ENDBRANCH   6  10
BRANCH   1  19
HETATM   19  C7  UNL     1      19.685   0.893  50.527  1.00  0.00     0.162 C 
BRANCH  19  20
HETATM   20  C6  UNL     1      20.512   1.563  49.525  1.00  0.00    -0.019 A 
HETATM   21  C1  UNL     1      20.181   2.911  49.347  1.00  0.00     0.042 A 
HETATM   22 CL1  UNL     1      18.897   3.854  50.110  1.00  0.00    -0.084 Cl
HETATM   23  C2  UNL     1      20.901   3.683  48.437  1.00  0.00     0.024 A 
HETATM   24  C3  UNL     1      21.949   3.142  47.694  1.00  0.00     0.002 A 
HETATM   25  C4  UNL     1      22.271   1.807  47.874  1.00  0.00     0.001 A 
HETATM   26  C5  UNL     1      21.552   1.063  48.774  1.00  0.00     0.010 A 
ENDBRANCH  19  20
ENDBRANCH   1  19
TORSDOF 4
ENDMDL
MODEL 9
REMARK VINA RESULT:      -7.2      4.774      6.084
REMARK  4 active torsions:
REMARK  status: ('A' for Active; 'I' for Inactive)
REMARK    1  A    between atoms: C6_7  and  C7_8 
REMARK    2  A    between atoms: C7_8  and  N1_9 
REMARK    3  A    between atoms: C11_14  and  N2_16 
REMARK    4  A    between atoms: N2_16  and  C12_17 
ROOT
HETATM    1  N1  UNL     1      25.616   5.766  49.877  1.00  0.00    -0.381 N 
HETATM    2  C8  UNL     1      24.978   6.679  50.762  1.00  0.00     0.087 C 
HETATM    3  C9  UNL     1      23.839   6.448  51.419  1.00  0.00     0.025 C 
HETATM    4  P1  UNL     1      23.221   4.752  50.991  1.00  0.00    -0.070 P 
HETATM    5  C10 UNL     1      24.752   3.742  50.986  1.00  0.00    -0.000 C 
HETATM    6  C11 UNL     1      24.997   2.533  51.465  1.00  0.00     0.088 C 
HETATM    7 BR1  UNL     1      26.569   1.462  51.476  1.00  0.00    -0.031 Br
HETATM    8  C18 UNL     1      25.889   4.408  50.336  1.00  0.00     0.164 C 
HETATM    9  H9  UNL     1      22.823   4.846  49.576  1.00  0.00     0.066 HD
ENDROOT
BRANCH   6  10
HETATM   10  N2  UNL     1      23.785   2.040  52.057  1.00  0.00    -0.359 N 
HETATM   11  H10 UNL     1      22.905   2.538  51.747  1.00  0.00     0.166 HD
BRANCH  10  12
HETATM   12  C12 UNL     1      23.426   1.021  52.984  1.00  0.00     0.097 C 
HETATM   13  C13 UNL     1      22.316   0.346  53.250  1.00  0.00    -0.023 A 
HETATM   14  C14 UNL     1      22.353  -0.649  54.311  1.00  0.00     0.011 A 
HETATM   15  C17 UNL     1      21.128   0.702  52.398  1.00  0.00     0.188 A 
HETATM   16  C15 UNL     1      21.209  -1.279  54.517  1.00  0.00     0.019 A 
HETATM   17  C16 UNL     1      20.000  -0.983  53.722  1.00  0.00     0.110 A 
HETATM   18  N3  UNL     1      19.982  -0.103  52.789  1.00  0.00    -0.297 NA
ENDBRANCH  10  12
ENDBRANCH   6  10
BRANCH   1  19
HETATM   19  C7  UNL     1      26.007   6.118  48.514  1.00  0.00     0.162 C 
BRANCH  19  20
HETATM   20  C6  UNL     1      27.445   6.309  48.330  1.00  0.00    -0.019 A 
HETATM   21  C1  UNL     1      27.810   7.652  48.186  1.00  0.00     0.042 A 
HETATM   22 CL1  UNL     1      26.782   9.088  48.142  1.00  0.00    -0.084 Cl
HETATM   23  C2  UNL     1      29.153   7.988  48.023  1.00  0.00     0.024 A 
HETATM   24  C3  UNL     1      30.148   7.012  47.998  1.00  0.00     0.002 A 
HETATM   25  C4  UNL     1      29.780   5.684  48.140  1.00  0.00     0.001 A 
HETATM   26  C5  UNL     1      28.454   5.373  48.301  1.00  0.00     0.010 A 
ENDBRANCH  19  20
ENDBRANCH   1  19
TORSDOF 4
ENDMDL
