MODEL 1
REMARK VINA RESULT:      -8.7      0.000      0.000
REMARK  4 active torsions:
REMARK  status: ('A' for Active; 'I' for Inactive)
REMARK    1  A    between atoms: C2_3  and  C3_4 
REMARK    2  A    between atoms: C3_4  and  C4_5 
REMARK    3  A    between atoms: C9_10  and  N2_11 
REMARK    4  A    between atoms: C12_15  and  C13_16 
ROOT
HETATM    1  C1  UNL     1      22.920   0.990  51.891  1.00  0.00     0.158 C 
HETATM    2  N1  UNL     1      23.478   0.263  53.008  1.00  0.00    -0.340 N 
HETATM    3  C2  UNL     1      24.883   0.173  53.266  1.00  0.00     0.032 A 
HETATM    4  C10 UNL     1      24.951  -0.565  54.357  1.00  0.00     0.115 A 
HETATM    5  N3  UNL     1      23.703  -0.978  54.852  1.00  0.00    -0.350 N 
HETATM    6  C11 UNL     1      22.719  -0.441  53.975  1.00  0.00     0.107 A 
HETATM    7  C12 UNL     1      21.430  -0.634  54.143  1.00  0.00     0.051 C 
HETATM    8  H13 UNL     1      23.571  -1.575  55.717  1.00  0.00     0.166 HD
ENDROOT
BRANCH   3   9
HETATM    9  C3  UNL     1      25.963   0.790  52.457  1.00  0.00     0.099 C 
BRANCH   9  10
HETATM   10  C4  UNL     1      27.259   0.297  52.958  1.00  0.00    -0.026 A 
HETATM   11  C5  UNL     1      27.655  -0.991  52.740  1.00  0.00     0.010 A 
HETATM   12  C6  UNL     1      28.871  -1.415  53.222  1.00  0.00     0.001 A 
HETATM   13  C7  UNL     1      29.695  -0.559  53.922  1.00  0.00     0.002 A 
HETATM   14  C8  UNL     1      29.259   0.732  54.120  1.00  0.00     0.029 A 
HETATM   15  C9  UNL     1      28.063   1.182  53.657  1.00  0.00     0.032 A 
BRANCH  15  16
HETATM   16  N2  UNL     1      27.659   2.528  53.890  1.00  0.00    -0.399 N 
HETATM   17  H10 UNL     1      27.587   3.002  54.831  1.00  0.00     0.156 HD
HETATM   18  H11 UNL     1      27.367   3.285  53.241  1.00  0.00     0.156 HD
ENDBRANCH  15  16
ENDBRANCH   9  10
ENDBRANCH   3   9
BRANCH   7  19
HETATM   19  C13 UNL     1      20.300  -0.170  53.359  1.00  0.00     0.030 C 
HETATM   20  C14 UNL     1      19.142  -0.787  53.250  1.00  0.00     0.032 A 
HETATM   21  C15 UNL     1      17.896  -0.477  52.513  1.00  0.00     0.107 A 
HETATM   22  N5  UNL     1      18.918  -2.033  53.943  1.00  0.00    -0.283 N 
HETATM   23  C16 UNL     1      17.031  -1.630  52.871  1.00  0.00     0.117 A 
HETATM   24  N4  UNL     1      17.610  -2.488  53.667  1.00  0.00    -0.191 NA
HETATM   25  H19 UNL     1      19.467  -2.653  54.575  1.00  0.00     0.189 HD
ENDBRANCH   7  19
TORSDOF 4
ENDMDL
MODEL 2
REMARK VINA RESULT:      -8.0      2.679      7.276
REMARK  4 active torsions:
REMARK  status: ('A' for Active; 'I' for Inactive)
REMARK    1  A    between atoms: C2_3  and  C3_4 
REMARK    2  A    between atoms: C3_4  and  C4_5 
REMARK    3  A    between atoms: C9_10  and  N2_11 
REMARK    4  A    between atoms: C12_15  and  C13_16 
ROOT
HETATM    1  C1  UNL     1      24.567   2.381  53.098  1.00  0.00     0.158 C 
HETATM    2  N1  UNL     1      23.709   1.219  53.113  1.00  0.00    -0.340 N 
HETATM    3  C2  UNL     1      22.383   1.211  52.575  1.00  0.00     0.032 A 
HETATM    4  C10 UNL     1      21.967  -0.021  52.792  1.00  0.00     0.115 A 
HETATM    5  N3  UNL     1      22.908  -0.843  53.434  1.00  0.00    -0.350 N 
HETATM    6  C11 UNL     1      24.064  -0.042  53.654  1.00  0.00     0.107 A 
HETATM    7  C12 UNL     1      25.149  -0.498  54.240  1.00  0.00     0.051 C 
HETATM    8  H13 UNL     1      22.742  -1.858  53.686  1.00  0.00     0.166 HD
ENDROOT
BRANCH   3   9
HETATM    9  C3  UNL     1      21.693   2.358  51.933  1.00  0.00     0.099 C 
BRANCH   9  10
HETATM   10  C4  UNL     1      21.935   2.292  50.481  1.00  0.00    -0.026 A 
HETATM   11  C5  UNL     1      21.463   1.252  49.733  1.00  0.00     0.010 A 
HETATM   12  C6  UNL     1      21.709   1.225  48.381  1.00  0.00     0.001 A 
HETATM   13  C7  UNL     1      22.426   2.232  47.769  1.00  0.00     0.002 A 
HETATM   14  C8  UNL     1      22.885   3.263  48.558  1.00  0.00     0.029 A 
HETATM   15  C9  UNL     1      22.658   3.319  49.897  1.00  0.00     0.032 A 
BRANCH  15  16
HETATM   16  N2  UNL     1      23.156   4.409  50.668  1.00  0.00    -0.399 N 
HETATM   17  H10 UNL     1      22.573   5.120  51.188  1.00  0.00     0.156 HD
HETATM   18  H11 UNL     1      24.123   4.724  50.876  1.00  0.00     0.156 HD
ENDBRANCH  15  16
ENDBRANCH   9  10
ENDBRANCH   3   9
BRANCH   7  19
HETATM   19  C13 UNL     1      26.403   0.166  54.543  1.00  0.00     0.030 C 
HETATM   20  C14 UNL     1      27.601  -0.288  54.238  1.00  0.00     0.032 A 
HETATM   21  C15 UNL     1      28.968   0.235  54.459  1.00  0.00     0.107 A 
HETATM   22  N5  UNL     1      27.742  -1.546  53.544  1.00  0.00    -0.283 N 
HETATM   23  C16 UNL     1      29.806  -0.824  53.841  1.00  0.00     0.117 A 
HETATM   24  N4  UNL     1      29.113  -1.809  53.335  1.00  0.00    -0.191 NA
HETATM   25  H19 UNL     1      27.100  -2.278  53.174  1.00  0.00     0.189 HD
ENDBRANCH   7  19
TORSDOF 4
ENDMDL
MODEL 3
REMARK VINA RESULT:      -7.9      2.755      3.415
REMARK  4 active torsions:
REMARK  status: ('A' for Active; 'I' for Inactive)
REMARK    1  A    between atoms: C2_3  and  C3_4 
REMARK    2  A    between atoms: C3_4  and  C4_5 
REMARK    3  A    between atoms: C9_10  and  N2_11 
REMARK    4  A    between atoms: C12_15  and  C13_16 
ROOT
HETATM    1  C1  UNL     1      23.367   0.305  52.998  1.00  0.00     0.158 C 
HETATM    2  N1  UNL     1      24.330   1.207  52.411  1.00  0.00    -0.340 N 
HETATM    3  C2  UNL     1      25.625   1.449  52.970  1.00  0.00     0.032 A 
HETATM    4  C10 UNL     1      26.166   2.317  52.137  1.00  0.00     0.115 A 
HETATM    5  N3  UNL     1      25.336   2.678  51.062  1.00  0.00    -0.350 N 
HETATM    6  C11 UNL     1      24.121   1.955  51.226  1.00  0.00     0.107 A 
HETATM    7  C12 UNL     1      23.112   2.056  50.390  1.00  0.00     0.051 C 
HETATM    8  H13 UNL     1      25.608   3.362  50.301  1.00  0.00     0.166 HD
ENDROOT
BRANCH   3   9
HETATM    9  C3  UNL     1      26.175   0.834  54.203  1.00  0.00     0.099 C 
BRANCH   9  10
HETATM   10  C4  UNL     1      27.183  -0.169  53.814  1.00  0.00    -0.026 A 
HETATM   11  C5  UNL     1      26.836  -1.274  53.092  1.00  0.00     0.010 A 
HETATM   12  C6  UNL     1      27.803  -2.187  52.746  1.00  0.00     0.001 A 
HETATM   13  C7  UNL     1      29.119  -2.003  53.118  1.00  0.00     0.002 A 
HETATM   14  C8  UNL     1      29.428  -0.876  53.845  1.00  0.00     0.029 A 
HETATM   15  C9  UNL     1      28.495   0.046  54.202  1.00  0.00     0.032 A 
BRANCH  15  16
HETATM   16  N2  UNL     1      28.868   1.196  54.956  1.00  0.00    -0.399 N 
HETATM   17  H10 UNL     1      28.515   1.450  55.919  1.00  0.00     0.156 HD
HETATM   18  H11 UNL     1      29.516   1.979  54.747  1.00  0.00     0.156 HD
ENDBRANCH  15  16
ENDBRANCH   9  10
ENDBRANCH   3   9
BRANCH   7  19
HETATM   19  C13 UNL     1      21.815   1.404  50.400  1.00  0.00     0.030 C 
HETATM   20  C14 UNL     1      20.716   1.900  50.929  1.00  0.00     0.032 A 
HETATM   21  C15 UNL     1      19.327   1.395  51.035  1.00  0.00     0.107 A 
HETATM   22  N5  UNL     1      20.740   3.194  51.567  1.00  0.00    -0.283 N 
HETATM   23  C16 UNL     1      18.653   2.502  51.760  1.00  0.00     0.117 A 
HETATM   24  N4  UNL     1      19.448   3.497  52.049  1.00  0.00    -0.191 NA
HETATM   25  H19 UNL     1      21.453   3.931  51.749  1.00  0.00     0.189 HD
ENDBRANCH   7  19
TORSDOF 4
ENDMDL
MODEL 4
REMARK VINA RESULT:      -7.7      5.354      7.560
REMARK  4 active torsions:
REMARK  status: ('A' for Active; 'I' for Inactive)
REMARK    1  A    between atoms: C2_3  and  C3_4 
REMARK    2  A    between atoms: C3_4  and  C4_5 
REMARK    3  A    between atoms: C9_10  and  N2_11 
REMARK    4  A    between atoms: C12_15  and  C13_16 
ROOT
HETATM    1  C1  UNL     1      24.760   3.185  50.012  1.00  0.00     0.158 C 
HETATM    2  N1  UNL     1      24.505   4.453  50.654  1.00  0.00    -0.340 N 
HETATM    3  C2  UNL     1      24.577   5.710  49.973  1.00  0.00     0.032 A 
HETATM    4  C10 UNL     1      24.279   6.589  50.910  1.00  0.00     0.115 A 
HETATM    5  N3  UNL     1      24.013   6.023  52.167  1.00  0.00    -0.350 N 
HETATM    6  C11 UNL     1      24.157   4.614  52.018  1.00  0.00     0.107 A 
HETATM    7  C12 UNL     1      23.978   3.769  53.008  1.00  0.00     0.051 C 
HETATM    8  H13 UNL     1      23.758   6.579  53.031  1.00  0.00     0.166 HD
ENDROOT
BRANCH   3   9
HETATM    9  C3  UNL     1      24.913   5.912  48.541  1.00  0.00     0.099 C 
BRANCH   9  10
HETATM   10  C4  UNL     1      26.356   6.194  48.437  1.00  0.00    -0.026 A 
HETATM   11  C5  UNL     1      27.280   5.195  48.549  1.00  0.00     0.010 A 
HETATM   12  C6  UNL     1      28.617   5.496  48.447  1.00  0.00     0.001 A 
HETATM   13  C7  UNL     1      29.039   6.792  48.233  1.00  0.00     0.002 A 
HETATM   14  C8  UNL     1      28.076   7.770  48.127  1.00  0.00     0.029 A 
HETATM   15  C9  UNL     1      26.746   7.505  48.223  1.00  0.00     0.032 A 
BRANCH  15  16
HETATM   16  N2  UNL     1      25.791   8.555  48.105  1.00  0.00    -0.399 N 
HETATM   17  H10 UNL     1      25.283   8.838  47.223  1.00  0.00     0.156 HD
HETATM   18  H11 UNL     1      25.408   9.224  48.801  1.00  0.00     0.156 HD
ENDBRANCH  15  16
ENDBRANCH   9  10
ENDBRANCH   3   9
BRANCH   7  19
HETATM   19  C13 UNL     1      24.082   2.321  53.038  1.00  0.00     0.030 C 
HETATM   20  C14 UNL     1      25.114   1.639  53.490  1.00  0.00     0.032 A 
HETATM   21  C15 UNL     1      25.399   0.190  53.601  1.00  0.00     0.107 A 
HETATM   22  N5  UNL     1      26.267   2.333  54.011  1.00  0.00    -0.283 N 
HETATM   23  C16 UNL     1      26.755   0.189  54.205  1.00  0.00     0.117 A 
HETATM   24  N4  UNL     1      27.228   1.385  54.429  1.00  0.00    -0.191 NA
HETATM   25  H19 UNL     1      26.550   3.325  54.149  1.00  0.00     0.189 HD
ENDBRANCH   7  19
TORSDOF 4
ENDMDL
MODEL 5
REMARK VINA RESULT:      -7.7      3.797      4.538
REMARK  4 active torsions:
REMARK  status: ('A' for Active; 'I' for Inactive)
REMARK    1  A    between atoms: C2_3  and  C3_4 
REMARK    2  A    between atoms: C3_4  and  C4_5 
REMARK    3  A    between atoms: C9_10  and  N2_11 
REMARK    4  A    between atoms: C12_15  and  C13_16 
ROOT
HETATM    1  C1  UNL     1      23.685   2.213  52.804  1.00  0.00     0.158 C 
HETATM    2  N1  UNL     1      24.990   2.484  52.247  1.00  0.00    -0.340 N 
HETATM    3  C2  UNL     1      26.206   1.971  52.802  1.00  0.00     0.032 A 
HETATM    4  C10 UNL     1      27.139   2.451  52.003  1.00  0.00     0.115 A 
HETATM    5  N3  UNL     1      26.646   3.247  50.955  1.00  0.00    -0.350 N 
HETATM    6  C11 UNL     1      25.231   3.280  51.099  1.00  0.00     0.107 A 
HETATM    7  C12 UNL     1      24.444   3.941  50.280  1.00  0.00     0.051 C 
HETATM    8  H13 UNL     1      27.253   3.712  50.222  1.00  0.00     0.166 HD
ENDROOT
BRANCH   3   9
HETATM    9  C3  UNL     1      26.323   1.104  54.000  1.00  0.00     0.099 C 
BRANCH   9  10
HETATM   10  C4  UNL     1      27.246  -0.001  53.686  1.00  0.00    -0.026 A 
HETATM   11  C5  UNL     1      26.835  -1.077  52.953  1.00  0.00     0.010 A 
HETATM   12  C6  UNL     1      27.725  -2.088  52.679  1.00  0.00     0.001 A 
HETATM   13  C7  UNL     1      29.026  -2.033  53.134  1.00  0.00     0.002 A 
HETATM   14  C8  UNL     1      29.401  -0.931  53.870  1.00  0.00     0.029 A 
HETATM   15  C9  UNL     1      28.546   0.085  54.158  1.00  0.00     0.032 A 
BRANCH  15  16
HETATM   16  N2  UNL     1      28.985   1.203  54.924  1.00  0.00    -0.399 N 
HETATM   17  H10 UNL     1      29.679   1.178  55.720  1.00  0.00     0.156 HD
HETATM   18  H11 UNL     1      28.742   2.212  54.878  1.00  0.00     0.156 HD
ENDBRANCH  15  16
ENDBRANCH   9  10
ENDBRANCH   3   9
BRANCH   7  19
HETATM   19  C13 UNL     1      22.999   4.085  50.275  1.00  0.00     0.030 C 
HETATM   20  C14 UNL     1      22.156   3.286  49.655  1.00  0.00     0.032 A 
HETATM   21  C15 UNL     1      20.680   3.270  49.536  1.00  0.00     0.107 A 
HETATM   22  N5  UNL     1      22.648   2.158  48.901  1.00  0.00    -0.283 N 
HETATM   23  C16 UNL     1      20.453   2.075  48.684  1.00  0.00     0.117 A 
HETATM   24  N4  UNL     1      21.554   1.465  48.337  1.00  0.00    -0.191 NA
HETATM   25  H19 UNL     1      23.580   1.747  48.683  1.00  0.00     0.189 HD
ENDBRANCH   7  19
TORSDOF 4
ENDMDL
MODEL 6
REMARK VINA RESULT:      -7.6      5.131      8.333
REMARK  4 active torsions:
REMARK  status: ('A' for Active; 'I' for Inactive)
REMARK    1  A    between atoms: C2_3  and  C3_4 
REMARK    2  A    between atoms: C3_4  and  C4_5 
REMARK    3  A    between atoms: C9_10  and  N2_11 
REMARK    4  A    between atoms: C12_15  and  C13_16 
ROOT
HETATM    1  C1  UNL     1      24.336   4.434  49.382  1.00  0.00     0.158 C 
HETATM    2  N1  UNL     1      24.063   4.568  50.794  1.00  0.00    -0.340 N 
HETATM    3  C2  UNL     1      23.729   3.462  51.640  1.00  0.00     0.032 A 
HETATM    4  C10 UNL     1      23.563   4.017  52.824  1.00  0.00     0.115 A 
HETATM    5  N3  UNL     1      23.758   5.408  52.842  1.00  0.00    -0.350 N 
HETATM    6  C11 UNL     1      24.089   5.789  51.511  1.00  0.00     0.107 A 
HETATM    7  C12 UNL     1      24.338   7.032  51.165  1.00  0.00     0.051 C 
HETATM    8  H13 UNL     1      23.665   6.013  53.706  1.00  0.00     0.166 HD
ENDROOT
BRANCH   3   9
HETATM    9  C3  UNL     1      23.613   2.043  51.220  1.00  0.00     0.099 C 
BRANCH   9  10
HETATM   10  C4  UNL     1      24.643   1.263  51.930  1.00  0.00    -0.026 A 
HETATM   11  C5  UNL     1      25.967   1.412  51.636  1.00  0.00     0.010 A 
HETATM   12  C6  UNL     1      26.899   0.667  52.320  1.00  0.00     0.001 A 
HETATM   13  C7  UNL     1      26.516  -0.227  53.297  1.00  0.00     0.002 A 
HETATM   14  C8  UNL     1      25.170  -0.348  53.564  1.00  0.00     0.029 A 
HETATM   15  C9  UNL     1      24.224   0.374  52.906  1.00  0.00     0.032 A 
BRANCH  15  16
HETATM   16  N2  UNL     1      22.844   0.211  53.221  1.00  0.00    -0.399 N 
HETATM   17  H10 UNL     1      22.069   0.892  52.991  1.00  0.00     0.156 HD
HETATM   18  H11 UNL     1      22.330  -0.549  53.706  1.00  0.00     0.156 HD
ENDBRANCH  15  16
ENDBRANCH   9  10
ENDBRANCH   3   9
BRANCH   7  19
HETATM   19  C13 UNL     1      24.687   7.596  49.874  1.00  0.00     0.030 C 
HETATM   20  C14 UNL     1      25.787   8.269  49.607  1.00  0.00     0.032 A 
HETATM   21  C15 UNL     1      26.308   8.909  48.378  1.00  0.00     0.107 A 
HETATM   22  N5  UNL     1      26.765   8.498  50.644  1.00  0.00    -0.283 N 
HETATM   23  C16 UNL     1      27.600   9.472  48.848  1.00  0.00     0.117 A 
HETATM   24  N4  UNL     1      27.842   9.237  50.109  1.00  0.00    -0.191 NA
HETATM   25  H19 UNL     1      26.863   8.257  51.652  1.00  0.00     0.189 HD
ENDBRANCH   7  19
TORSDOF 4
ENDMDL
MODEL 7
REMARK VINA RESULT:      -7.5      3.661      7.545
REMARK  4 active torsions:
REMARK  status: ('A' for Active; 'I' for Inactive)
REMARK    1  A    between atoms: C2_3  and  C3_4 
REMARK    2  A    between atoms: C3_4  and  C4_5 
REMARK    3  A    between atoms: C9_10  and  N2_11 
REMARK    4  A    between atoms: C12_15  and  C13_16 
ROOT
HETATM    1  C1  UNL     1      26.666   2.434  51.241  1.00  0.00     0.158 C 
HETATM    2  N1  UNL     1      25.318   2.095  51.632  1.00  0.00    -0.340 N 
HETATM    3  C2  UNL     1      24.156   2.553  50.933  1.00  0.00     0.032 A 
HETATM    4  C10 UNL     1      23.156   2.021  51.609  1.00  0.00     0.115 A 
HETATM    5  N3  UNL     1      23.554   1.242  52.708  1.00  0.00    -0.350 N 
HETATM    6  C11 UNL     1      24.977   1.279  52.739  1.00  0.00     0.107 A 
HETATM    7  C12 UNL     1      25.688   0.651  53.648  1.00  0.00     0.051 C 
HETATM    8  H13 UNL     1      22.885   0.743  53.360  1.00  0.00     0.166 HD
ENDROOT
BRANCH   3   9
HETATM    9  C3  UNL     1      24.145   3.423  49.730  1.00  0.00     0.099 C 
BRANCH   9  10
HETATM   10  C4  UNL     1      23.656   4.756  50.124  1.00  0.00    -0.026 A 
HETATM   11  C5  UNL     1      22.324   4.992  50.311  1.00  0.00     0.010 A 
HETATM   12  C6  UNL     1      21.906   6.249  50.679  1.00  0.00     0.001 A 
HETATM   13  C7  UNL     1      22.811   7.274  50.863  1.00  0.00     0.002 A 
HETATM   14  C8  UNL     1      24.144   6.995  50.665  1.00  0.00     0.029 A 
HETATM   15  C9  UNL     1      24.590   5.763  50.301  1.00  0.00     0.032 A 
BRANCH  15  16
HETATM   16  N2  UNL     1      25.982   5.527  50.109  1.00  0.00    -0.399 N 
HETATM   17  H10 UNL     1      26.742   5.670  50.828  1.00  0.00     0.156 HD
HETATM   18  H11 UNL     1      26.519   5.189  49.287  1.00  0.00     0.156 HD
ENDBRANCH  15  16
ENDBRANCH   9  10
ENDBRANCH   3   9
BRANCH   7  19
HETATM   19  C13 UNL     1      27.126   0.579  53.832  1.00  0.00     0.030 C 
HETATM   20  C14 UNL     1      27.868  -0.490  53.631  1.00  0.00     0.032 A 
HETATM   21  C15 UNL     1      29.320  -0.754  53.761  1.00  0.00     0.107 A 
HETATM   22  N5  UNL     1      27.258  -1.722  53.191  1.00  0.00    -0.283 N 
HETATM   23  C16 UNL     1      29.410  -2.182  53.365  1.00  0.00     0.117 A 
HETATM   24  N4  UNL     1      28.258  -2.710  53.050  1.00  0.00    -0.191 NA
HETATM   25  H19 UNL     1      26.295  -2.046  52.962  1.00  0.00     0.189 HD
ENDBRANCH   7  19
TORSDOF 4
ENDMDL
MODEL 8
REMARK VINA RESULT:      -7.2      2.769      7.967
REMARK  4 active torsions:
REMARK  status: ('A' for Active; 'I' for Inactive)
REMARK    1  A    between atoms: C2_3  and  C3_4 
REMARK    2  A    between atoms: C3_4  and  C4_5 
REMARK    3  A    between atoms: C9_10  and  N2_11 
REMARK    4  A    between atoms: C12_15  and  C13_16 
ROOT
HETATM    1  C1  UNL     1      25.256   2.218  52.158  1.00  0.00     0.158 C 
HETATM    2  N1  UNL     1      24.191   1.261  52.351  1.00  0.00    -0.340 N 
HETATM    3  C2  UNL     1      22.972   1.277  51.602  1.00  0.00     0.032 A 
HETATM    4  C10 UNL     1      22.296   0.254  52.087  1.00  0.00     0.115 A 
HETATM    5  N3  UNL     1      22.964  -0.449  53.103  1.00  0.00    -0.350 N 
HETATM    6  C11 UNL     1      24.217   0.201  53.291  1.00  0.00     0.107 A 
HETATM    7  C12 UNL     1      25.103  -0.198  54.175  1.00  0.00     0.051 C 
HETATM    8  H13 UNL     1      22.570  -1.294  53.604  1.00  0.00     0.166 HD
ENDROOT
BRANCH   3   9
HETATM    9  C3  UNL     1      22.611   2.247  50.537  1.00  0.00     0.099 C 
BRANCH   9  10
HETATM   10  C4  UNL     1      21.174   2.551  50.653  1.00  0.00    -0.026 A 
HETATM   11  C5  UNL     1      20.698   3.335  51.665  1.00  0.00     0.010 A 
HETATM   12  C6  UNL     1      19.351   3.598  51.740  1.00  0.00     0.001 A 
HETATM   13  C7  UNL     1      18.473   3.081  50.810  1.00  0.00     0.002 A 
HETATM   14  C8  UNL     1      18.992   2.295  49.806  1.00  0.00     0.029 A 
HETATM   15  C9  UNL     1      20.319   2.017  49.703  1.00  0.00     0.032 A 
BRANCH  15  16
HETATM   16  N2  UNL     1      20.805   1.197  48.644  1.00  0.00    -0.399 N 
HETATM   17  H10 UNL     1      20.317   0.353  48.237  1.00  0.00     0.156 HD
HETATM   18  H11 UNL     1      21.676   1.240  48.080  1.00  0.00     0.156 HD
ENDBRANCH  15  16
ENDBRANCH   9  10
ENDBRANCH   3   9
BRANCH   7  19
HETATM   19  C13 UNL     1      26.414   0.336  54.499  1.00  0.00     0.030 C 
HETATM   20  C14 UNL     1      27.564  -0.233  54.204  1.00  0.00     0.032 A 
HETATM   21  C15 UNL     1      28.974   0.151  54.447  1.00  0.00     0.107 A 
HETATM   22  N5  UNL     1      27.588  -1.493  53.502  1.00  0.00    -0.283 N 
HETATM   23  C16 UNL     1      29.711  -0.981  53.829  1.00  0.00     0.117 A 
HETATM   24  N4  UNL     1      28.930  -1.889  53.307  1.00  0.00    -0.191 NA
HETATM   25  H19 UNL     1      26.882  -2.155  53.117  1.00  0.00     0.189 HD
ENDBRANCH   7  19
TORSDOF 4
ENDMDL
MODEL 9
REMARK VINA RESULT:      -7.1     11.510     12.456
REMARK  4 active torsions:
REMARK  status: ('A' for Active; 'I' for Inactive)
REMARK    1  A    between atoms: C2_3  and  C3_4 
REMARK    2  A    between atoms: C3_4  and  C4_5 
REMARK    3  A    between atoms: C9_10  and  N2_11 
REMARK    4  A    between atoms: C12_15  and  C13_16 
ROOT
HETATM    1  C1  UNL     1      30.183   7.326  46.813  1.00  0.00     0.158 C 
HETATM    2  N1  UNL     1      30.865   6.993  48.042  1.00  0.00    -0.340 N 
HETATM    3  C2  UNL     1      31.384   5.691  48.328  1.00  0.00     0.032 A 
HETATM    4  C10 UNL     1      31.916   5.824  49.527  1.00  0.00     0.115 A 
HETATM    5  N3  UNL     1      31.795   7.114  50.071  1.00  0.00    -0.350 N 
HETATM    6  C11 UNL     1      31.105   7.900  49.105  1.00  0.00     0.107 A 
HETATM    7  C12 UNL     1      30.819   9.169  49.288  1.00  0.00     0.051 C 
HETATM    8  H13 UNL     1      32.164   7.399  51.022  1.00  0.00     0.166 HD
ENDROOT
BRANCH   3   9
HETATM    9  C3  UNL     1      31.311   4.505  47.439  1.00  0.00     0.099 C 
BRANCH   9  10
HETATM   10  C4  UNL     1      32.607   4.357  46.752  1.00  0.00    -0.026 A 
HETATM   11  C5  UNL     1      32.932   5.142  45.683  1.00  0.00     0.010 A 
HETATM   12  C6  UNL     1      34.150   4.976  45.068  1.00  0.00     0.001 A 
HETATM   13  C7  UNL     1      35.048   4.028  45.515  1.00  0.00     0.002 A 
HETATM   14  C8  UNL     1      34.682   3.257  46.595  1.00  0.00     0.029 A 
HETATM   15  C9  UNL     1      33.486   3.397  47.225  1.00  0.00     0.032 A 
BRANCH  15  16
HETATM   16  N2  UNL     1      33.156   2.573  48.339  1.00  0.00    -0.399 N 
HETATM   17  H10 UNL     1      32.310   2.679  48.964  1.00  0.00     0.156 HD
HETATM   18  H11 UNL     1      33.632   1.750  48.756  1.00  0.00     0.156 HD
ENDBRANCH  15  16
ENDBRANCH   9  10
ENDBRANCH   3   9
BRANCH   7  19
HETATM   19  C13 UNL     1      30.130  10.112  48.425  1.00  0.00     0.030 C 
HETATM   20  C14 UNL     1      28.868  10.470  48.540  1.00  0.00     0.032 A 
HETATM   21  C15 UNL     1      28.007  11.398  47.772  1.00  0.00     0.107 A 
HETATM   22  N5  UNL     1      28.050   9.913  49.591  1.00  0.00    -0.283 N 
HETATM   23  C16 UNL     1      26.712  11.280  48.490  1.00  0.00     0.117 A 
HETATM   24  N4  UNL     1      26.749  10.452  49.499  1.00  0.00    -0.191 NA
HETATM   25  H19 UNL     1      28.185   9.236  50.371  1.00  0.00     0.189 HD
ENDBRANCH   7  19
TORSDOF 4
ENDMDL
