MODEL 1
REMARK VINA RESULT:      -7.6      0.000      0.000
REMARK  4 active torsions:
REMARK  status: ('A' for Active; 'I' for Inactive)
REMARK    1  A    between atoms: C17_20  and  O2_21 
REMARK    2  A    between atoms: C19_23  and  C20_24 
REMARK    3  A    between atoms: C20_24  and  C21_25 
REMARK    4  A    between atoms: C21_25  and  O3_26 
ROOT
HETATM    1  C1  UNL     1      28.381  -1.266  53.100  1.00  0.00     0.018 C 
HETATM    2  C2  UNL     1      27.463  -0.550  52.808  1.00  0.00    -0.078 C 
HETATM    3  C3  UNL     1      26.360   0.283  52.471  1.00  0.00     0.019 A 
HETATM    4  C4  UNL     1      25.065   0.192  52.903  1.00  0.00     0.021 A 
HETATM    5  C5  UNL     1      23.978   0.972  52.605  1.00  0.00     0.011 A 
HETATM    6  C6  UNL     1      24.206   2.013  51.737  1.00  0.00    -0.025 A 
HETATM    7  C7  UNL     1      25.483   2.179  51.255  1.00  0.00     0.041 A 
HETATM    8  C8  UNL     1      26.534   1.360  51.593  1.00  0.00     0.050 A 
HETATM    9  N1  UNL     1      25.767   3.232  50.399  1.00  0.00    -0.351 N 
HETATM   10  C9  UNL     1      26.111   4.410  49.716  1.00  0.00     0.201 C 
HETATM   11  N2  UNL     1      25.557   5.620  49.859  1.00  0.00    -0.284 NA
HETATM   12  C10 UNL     1      26.161   6.588  48.993  1.00  0.00     0.153 C 
HETATM   13  C11 UNL     1      25.272   7.558  48.307  1.00  0.00     0.049 C 
HETATM   14  C12 UNL     1      24.070   7.014  47.674  1.00  0.00    -0.025 C 
HETATM   15  C13 UNL     1      23.323   5.997  47.512  1.00  0.00    -0.002 C 
HETATM   16  C14 UNL     1      22.414   4.857  47.278  1.00  0.00     0.024 C 
HETATM   17  C15 UNL     1      22.178   3.616  47.577  1.00  0.00     0.134 C 
HETATM   18  O1  UNL     1      23.020   2.936  48.472  1.00  0.00    -0.360 OA
HETATM   19  C16 UNL     1      22.408   1.828  49.162  1.00  0.00     0.207 C 
HETATM   20  C17 UNL     1      22.028   2.299  50.525  1.00  0.00     0.153 C 
HETATM   21  C19 UNL     1      23.096   2.901  51.361  1.00  0.00     0.054 C 
HETATM   22  H5  UNL     1      25.508   2.593  49.583  1.00  0.00     0.166 HD
ENDROOT
BRANCH  21  23
HETATM   23  C20 UNL     1      22.406   3.449  52.614  1.00  0.00     0.038 C 
BRANCH  23  24
HETATM   24  C21 UNL     1      21.730   4.768  52.325  1.00  0.00     0.167 C 
BRANCH  24  25
HETATM   25  O3  UNL     1      22.600   5.574  51.622  1.00  0.00    -0.396 OA
HETATM   26  C22 UNL     1      22.004   6.572  50.870  1.00  0.00     0.201 C 
ENDBRANCH  24  25
ENDBRANCH  23  24
ENDBRANCH  21  23
BRANCH  20  27
HETATM   27  O2  UNL     1      21.375   1.245  51.211  1.00  0.00    -0.388 OA
HETATM   28  C18 UNL     1      20.078   1.077  50.746  1.00  0.00     0.202 C 
ENDBRANCH  20  27
TORSDOF 4
ENDMDL
MODEL 2
REMARK VINA RESULT:      -7.3      2.099      6.673
REMARK  4 active torsions:
REMARK  status: ('A' for Active; 'I' for Inactive)
REMARK    1  A    between atoms: C17_20  and  O2_21 
REMARK    2  A    between atoms: C19_23  and  C20_24 
REMARK    3  A    between atoms: C20_24  and  C21_25 
REMARK    4  A    between atoms: C21_25  and  O3_26 
ROOT
HETATM    1  C1  UNL     1      20.785   3.989  44.103  1.00  0.00     0.018 C 
HETATM    2  C2  UNL     1      21.324   4.110  45.169  1.00  0.00    -0.078 C 
HETATM    3  C3  UNL     1      21.971   4.274  46.426  1.00  0.00     0.019 A 
HETATM    4  C4  UNL     1      22.597   5.386  46.919  1.00  0.00     0.021 A 
HETATM    5  C5  UNL     1      23.229   5.584  48.120  1.00  0.00     0.011 A 
HETATM    6  C6  UNL     1      23.246   4.507  48.973  1.00  0.00    -0.025 A 
HETATM    7  C7  UNL     1      22.638   3.347  48.556  1.00  0.00     0.041 A 
HETATM    8  C8  UNL     1      22.020   3.211  47.336  1.00  0.00     0.050 A 
HETATM    9  N1  UNL     1      22.607   2.242  49.394  1.00  0.00    -0.351 N 
HETATM   10  C9  UNL     1      22.378   1.203  50.310  1.00  0.00     0.201 C 
HETATM   11  N2  UNL     1      22.209   1.311  51.633  1.00  0.00    -0.284 NA
HETATM   12  C10 UNL     1      22.003   0.035  52.250  1.00  0.00     0.153 C 
HETATM   13  C11 UNL     1      22.679  -0.230  53.543  1.00  0.00     0.049 C 
HETATM   14  C12 UNL     1      24.094   0.134  53.631  1.00  0.00    -0.025 C 
HETATM   15  C13 UNL     1      25.076   0.719  53.073  1.00  0.00    -0.002 C 
HETATM   16  C14 UNL     1      26.259   1.378  52.483  1.00  0.00     0.024 C 
HETATM   17  C15 UNL     1      26.685   2.078  51.476  1.00  0.00     0.134 C 
HETATM   18  O1  UNL     1      25.798   2.453  50.455  1.00  0.00    -0.360 OA
HETATM   19  C16 UNL     1      26.175   3.636  49.724  1.00  0.00     0.207 C 
HETATM   20  C17 UNL     1      25.380   4.776  50.265  1.00  0.00     0.153 C 
HETATM   21  C19 UNL     1      23.904   4.630  50.283  1.00  0.00     0.054 C 
HETATM   22  H5  UNL     1      23.542   1.941  48.974  1.00  0.00     0.166 HD
ENDROOT
BRANCH  21  23
HETATM   23  C20 UNL     1      23.359   5.845  51.039  1.00  0.00     0.038 C 
BRANCH  23  24
HETATM   24  C21 UNL     1      21.856   5.770  51.170  1.00  0.00     0.167 C 
BRANCH  24  25
HETATM   25  O3  UNL     1      21.523   4.630  51.870  1.00  0.00    -0.396 OA
HETATM   26  C22 UNL     1      20.273   4.107  51.587  1.00  0.00     0.201 C 
ENDBRANCH  24  25
ENDBRANCH  23  24
ENDBRANCH  21  23
BRANCH  20  27
HETATM   27  O2  UNL     1      25.769   5.966  49.601  1.00  0.00    -0.388 OA
HETATM   28  C18 UNL     1      26.842   5.735  48.752  1.00  0.00     0.202 C 
ENDBRANCH  20  27
TORSDOF 4
ENDMDL
MODEL 3
REMARK VINA RESULT:      -7.1      5.611      9.167
REMARK  4 active torsions:
REMARK  status: ('A' for Active; 'I' for Inactive)
REMARK    1  A    between atoms: C17_20  and  O2_21 
REMARK    2  A    between atoms: C19_23  and  C20_24 
REMARK    3  A    between atoms: C20_24  and  C21_25 
REMARK    4  A    between atoms: C21_25  and  O3_26 
ROOT
HETATM    1  C1  UNL     1      26.128   3.168  49.844  1.00  0.00     0.018 C 
HETATM    2  C2  UNL     1      26.738   4.093  49.381  1.00  0.00    -0.078 C 
HETATM    3  C3  UNL     1      27.478   5.175  48.828  1.00  0.00     0.019 A 
HETATM    4  C4  UNL     1      28.661   5.130  48.141  1.00  0.00     0.021 A 
HETATM    5  C5  UNL     1      29.402   6.145  47.594  1.00  0.00     0.011 A 
HETATM    6  C6  UNL     1      28.894   7.412  47.751  1.00  0.00    -0.025 A 
HETATM    7  C7  UNL     1      27.706   7.548  48.430  1.00  0.00     0.041 A 
HETATM    8  C8  UNL     1      27.008   6.488  48.958  1.00  0.00     0.050 A 
HETATM    9  N1  UNL     1      27.141   8.804  48.590  1.00  0.00    -0.351 N 
HETATM   10  C9  UNL     1      26.456  10.029  48.565  1.00  0.00     0.201 C 
HETATM   11  N2  UNL     1      26.499  10.963  47.607  1.00  0.00    -0.284 NA
HETATM   12  C10 UNL     1      25.672  12.089  47.922  1.00  0.00     0.153 C 
HETATM   13  C11 UNL     1      26.201  13.444  47.629  1.00  0.00     0.049 C 
HETATM   14  C12 UNL     1      27.579  13.715  48.041  1.00  0.00    -0.025 C 
HETATM   15  C13 UNL     1      28.664  13.234  48.499  1.00  0.00    -0.002 C 
HETATM   16  C14 UNL     1      29.952  12.744  49.030  1.00  0.00     0.024 C 
HETATM   17  C15 UNL     1      30.602  11.690  49.417  1.00  0.00     0.134 C 
HETATM   18  O1  UNL     1      29.986  10.429  49.373  1.00  0.00    -0.360 OA
HETATM   19  C16 UNL     1      30.891   9.312  49.269  1.00  0.00     0.207 C 
HETATM   20  C17 UNL     1      30.922   8.886  47.840  1.00  0.00     0.153 C 
HETATM   21  C19 UNL     1      29.625   8.562  47.197  1.00  0.00     0.054 C 
HETATM   22  H5  UNL     1      27.704   8.904  49.492  1.00  0.00     0.166 HD
ENDROOT
BRANCH  21  23
HETATM   23  C20 UNL     1      29.924   8.334  45.712  1.00  0.00     0.038 C 
BRANCH  23  24
HETATM   24  C21 UNL     1      29.262   9.391  44.860  1.00  0.00     0.167 C 
BRANCH  24  25
HETATM   25  O3  UNL     1      29.028  10.509  45.632  1.00  0.00    -0.396 OA
HETATM   26  C22 UNL     1      29.645  11.668  45.196  1.00  0.00     0.201 C 
ENDBRANCH  24  25
ENDBRANCH  23  24
ENDBRANCH  21  23
BRANCH  20  27
HETATM   27  O2  UNL     1      31.846   7.821  47.696  1.00  0.00    -0.388 OA
HETATM   28  C18 UNL     1      32.635   7.690  48.830  1.00  0.00     0.202 C 
ENDBRANCH  20  27
TORSDOF 4
ENDMDL
MODEL 4
REMARK VINA RESULT:      -7.0      5.697      8.745
REMARK  4 active torsions:
REMARK  status: ('A' for Active; 'I' for Inactive)
REMARK    1  A    between atoms: C17_20  and  O2_21 
REMARK    2  A    between atoms: C19_23  and  C20_24 
REMARK    3  A    between atoms: C20_24  and  C21_25 
REMARK    4  A    between atoms: C21_25  and  O3_26 
ROOT
HETATM    1  C1  UNL     1      24.496   3.226  49.628  1.00  0.00     0.018 C 
HETATM    2  C2  UNL     1      25.277   4.104  49.380  1.00  0.00    -0.078 C 
HETATM    3  C3  UNL     1      26.185   5.159  49.086  1.00  0.00     0.019 A 
HETATM    4  C4  UNL     1      25.970   6.509  49.162  1.00  0.00     0.021 A 
HETATM    5  C5  UNL     1      26.815   7.554  48.891  1.00  0.00     0.011 A 
HETATM    6  C6  UNL     1      28.079   7.211  48.476  1.00  0.00    -0.025 A 
HETATM    7  C7  UNL     1      28.381   5.874  48.373  1.00  0.00     0.041 A 
HETATM    8  C8  UNL     1      27.487   4.870  48.660  1.00  0.00     0.050 A 
HETATM    9  N1  UNL     1      29.653   5.480  47.985  1.00  0.00    -0.351 N 
HETATM   10  C9  UNL     1      30.985   5.073  47.809  1.00  0.00     0.201 C 
HETATM   11  N2  UNL     1      32.088   5.722  48.201  1.00  0.00    -0.284 NA
HETATM   12  C10 UNL     1      33.279   5.009  47.848  1.00  0.00     0.153 C 
HETATM   13  C11 UNL     1      34.428   5.790  47.326  1.00  0.00     0.049 C 
HETATM   14  C12 UNL     1      34.130   6.789  46.298  1.00  0.00    -0.025 C 
HETATM   15  C13 UNL     1      33.228   7.415  45.656  1.00  0.00    -0.002 C 
HETATM   16  C14 UNL     1      32.235   8.176  44.872  1.00  0.00     0.024 C 
HETATM   17  C15 UNL     1      30.966   8.390  44.699  1.00  0.00     0.134 C 
HETATM   18  O1  UNL     1      30.025   7.720  45.496  1.00  0.00    -0.360 OA
HETATM   19  C16 UNL     1      28.759   8.393  45.640  1.00  0.00     0.207 C 
HETATM   20  C17 UNL     1      28.763   9.089  46.959  1.00  0.00     0.153 C 
HETATM   21  C19 UNL     1      29.052   8.268  48.162  1.00  0.00     0.054 C 
HETATM   22  H5  UNL     1      29.316   5.514  46.971  1.00  0.00     0.166 HD
ENDROOT
BRANCH  21  23
HETATM   23  C20 UNL     1      29.169   9.247  49.334  1.00  0.00     0.038 C 
BRANCH  23  24
HETATM   24  C21 UNL     1      30.587   9.743  49.484  1.00  0.00     0.167 C 
BRANCH  24  25
HETATM   25  O3  UNL     1      30.600  11.116  49.350  1.00  0.00    -0.396 OA
HETATM   26  C22 UNL     1      31.258  11.594  48.231  1.00  0.00     0.201 C 
ENDBRANCH  24  25
ENDBRANCH  23  24
ENDBRANCH  21  23
BRANCH  20  27
HETATM   27  O2  UNL     1      27.550   9.805  47.107  1.00  0.00    -0.388 OA
HETATM   28  C18 UNL     1      26.860   9.870  45.905  1.00  0.00     0.202 C 
ENDBRANCH  20  27
TORSDOF 4
ENDMDL
MODEL 5
REMARK VINA RESULT:      -6.8      1.837      6.124
REMARK  4 active torsions:
REMARK  status: ('A' for Active; 'I' for Inactive)
REMARK    1  A    between atoms: C17_20  and  O2_21 
REMARK    2  A    between atoms: C19_23  and  C20_24 
REMARK    3  A    between atoms: C20_24  and  C21_25 
REMARK    4  A    between atoms: C21_25  and  O3_26 
ROOT
HETATM    1  C1  UNL     1      27.731   8.621  49.151  1.00  0.00     0.018 C 
HETATM    2  C2  UNL     1      26.824   7.835  49.147  1.00  0.00    -0.078 C 
HETATM    3  C3  UNL     1      25.738   6.915  49.127  1.00  0.00     0.019 A 
HETATM    4  C4  UNL     1      24.672   6.881  48.270  1.00  0.00     0.021 A 
HETATM    5  C5  UNL     1      23.610   6.016  48.216  1.00  0.00     0.011 A 
HETATM    6  C6  UNL     1      23.598   5.021  49.165  1.00  0.00    -0.025 A 
HETATM    7  C7  UNL     1      24.635   4.981  50.066  1.00  0.00     0.041 A 
HETATM    8  C8  UNL     1      25.674   5.882  50.069  1.00  0.00     0.050 A 
HETATM    9  N1  UNL     1      24.680   3.979  51.024  1.00  0.00    -0.351 N 
HETATM   10  C9  UNL     1      24.850   2.855  51.847  1.00  0.00     0.201 C 
HETATM   11  N2  UNL     1      24.472   1.596  51.588  1.00  0.00    -0.284 NA
HETATM   12  C10 UNL     1      24.806   0.709  52.661  1.00  0.00     0.153 C 
HETATM   13  C11 UNL     1      23.808  -0.319  53.049  1.00  0.00     0.049 C 
HETATM   14  C12 UNL     1      22.423   0.133  53.197  1.00  0.00    -0.025 C 
HETATM   15  C13 UNL     1      21.594   1.084  53.036  1.00  0.00    -0.002 C 
HETATM   16  C14 UNL     1      20.579   2.144  52.879  1.00  0.00     0.024 C 
HETATM   17  C15 UNL     1      20.371   3.351  52.449  1.00  0.00     0.134 C 
HETATM   18  O1  UNL     1      21.419   4.080  51.864  1.00  0.00    -0.360 OA
HETATM   19  C16 UNL     1      21.006   5.112  50.946  1.00  0.00     0.207 C 
HETATM   20  C17 UNL     1      21.162   4.575  49.563  1.00  0.00     0.153 C 
HETATM   21  C19 UNL     1      22.495   4.048  49.182  1.00  0.00     0.054 C 
HETATM   22  H5  UNL     1      24.106   4.614  51.664  1.00  0.00     0.166 HD
ENDROOT
BRANCH  21  23
HETATM   23  C20 UNL     1      22.328   3.410  47.800  1.00  0.00     0.038 C 
BRANCH  23  24
HETATM   24  C21 UNL     1      22.783   1.970  47.812  1.00  0.00     0.167 C 
BRANCH  24  25
HETATM   25  O3  UNL     1      21.686   1.154  47.990  1.00  0.00    -0.396 OA
HETATM   26  C22 UNL     1      21.347   0.898  49.307  1.00  0.00     0.201 C 
ENDBRANCH  24  25
ENDBRANCH  23  24
ENDBRANCH  21  23
BRANCH  20  27
HETATM   27  O2  UNL     1      20.712   5.550  48.638  1.00  0.00    -0.388 OA
HETATM   28  C18 UNL     1      20.004   6.556  49.279  1.00  0.00     0.202 C 
ENDBRANCH  20  27
TORSDOF 4
ENDMDL
MODEL 6
REMARK VINA RESULT:      -6.6      2.335      5.472
REMARK  4 active torsions:
REMARK  status: ('A' for Active; 'I' for Inactive)
REMARK    1  A    between atoms: C17_20  and  O2_21 
REMARK    2  A    between atoms: C19_23  and  C20_24 
REMARK    3  A    between atoms: C20_24  and  C21_25 
REMARK    4  A    between atoms: C21_25  and  O3_26 
ROOT
HETATM    1  C1  UNL     1      28.342   1.845  53.379  1.00  0.00     0.018 C 
HETATM    2  C2  UNL     1      27.376   2.047  52.694  1.00  0.00    -0.078 C 
HETATM    3  C3  UNL     1      26.245   2.301  51.869  1.00  0.00     0.019 A 
HETATM    4  C4  UNL     1      26.204   2.939  50.659  1.00  0.00     0.021 A 
HETATM    5  C5  UNL     1      25.139   3.202  49.836  1.00  0.00     0.011 A 
HETATM    6  C6  UNL     1      23.915   2.763  50.280  1.00  0.00    -0.025 A 
HETATM    7  C7  UNL     1      23.866   2.110  51.488  1.00  0.00     0.041 A 
HETATM    8  C8  UNL     1      24.972   1.877  52.271  1.00  0.00     0.050 A 
HETATM    9  N1  UNL     1      22.657   1.626  51.964  1.00  0.00    -0.351 N 
HETATM   10  C9  UNL     1      21.490   0.945  52.346  1.00  0.00     0.201 C 
HETATM   11  N2  UNL     1      20.566   0.405  51.541  1.00  0.00    -0.284 NA
HETATM   12  C10 UNL     1      19.505  -0.208  52.283  1.00  0.00     0.153 C 
HETATM   13  C11 UNL     1      18.116  -0.015  51.798  1.00  0.00     0.049 C 
HETATM   14  C12 UNL     1      17.733   1.348  51.428  1.00  0.00    -0.025 C 
HETATM   15  C13 UNL     1      18.122   2.542  51.226  1.00  0.00    -0.002 C 
HETATM   16  C14 UNL     1      18.502   3.947  50.978  1.00  0.00     0.024 C 
HETATM   17  C15 UNL     1      19.498   4.778  50.928  1.00  0.00     0.134 C 
HETATM   18  O1  UNL     1      20.804   4.327  51.175  1.00  0.00    -0.360 OA
HETATM   19  C16 UNL     1      21.847   5.117  50.572  1.00  0.00     0.207 C 
HETATM   20  C17 UNL     1      22.284   4.416  49.330  1.00  0.00     0.153 C 
HETATM   21  C19 UNL     1      22.717   3.003  49.460  1.00  0.00     0.054 C 
HETATM   22  H5  UNL     1      22.503   2.573  52.434  1.00  0.00     0.166 HD
ENDROOT
BRANCH  21  23
HETATM   23  C20 UNL     1      22.936   2.485  48.036  1.00  0.00     0.038 C 
BRANCH  23  24
HETATM   24  C21 UNL     1      21.754   2.812  47.155  1.00  0.00     0.167 C 
BRANCH  24  25
HETATM   25  O3  UNL     1      22.214   3.251  45.931  1.00  0.00    -0.396 OA
HETATM   26  C22 UNL     1      21.557   4.353  45.414  1.00  0.00     0.201 C 
ENDBRANCH  24  25
ENDBRANCH  23  24
ENDBRANCH  21  23
BRANCH  20  27
HETATM   27  O2  UNL     1      23.274   5.198  48.684  1.00  0.00    -0.388 OA
HETATM   28  C18 UNL     1      22.943   6.545  48.714  1.00  0.00     0.202 C 
ENDBRANCH  20  27
TORSDOF 4
ENDMDL
MODEL 7
REMARK VINA RESULT:      -6.5      1.565      6.354
REMARK  4 active torsions:
REMARK  status: ('A' for Active; 'I' for Inactive)
REMARK    1  A    between atoms: C17_20  and  O2_21 
REMARK    2  A    between atoms: C19_23  and  C20_24 
REMARK    3  A    between atoms: C20_24  and  C21_25 
REMARK    4  A    between atoms: C21_25  and  O3_26 
ROOT
HETATM    1  C1  UNL     1      29.003   9.155  46.821  1.00  0.00     0.018 C 
HETATM    2  C2  UNL     1      28.068   8.489  47.172  1.00  0.00    -0.078 C 
HETATM    3  C3  UNL     1      26.946   7.714  47.578  1.00  0.00     0.019 A 
HETATM    4  C4  UNL     1      25.640   7.846  47.191  1.00  0.00     0.021 A 
HETATM    5  C5  UNL     1      24.534   7.123  47.557  1.00  0.00     0.011 A 
HETATM    6  C6  UNL     1      24.753   6.102  48.451  1.00  0.00    -0.025 A 
HETATM    7  C7  UNL     1      26.039   5.899  48.891  1.00  0.00     0.041 A 
HETATM    8  C8  UNL     1      27.109   6.662  48.487  1.00  0.00     0.050 A 
HETATM    9  N1  UNL     1      26.313   4.864  49.773  1.00  0.00    -0.351 N 
HETATM   10  C9  UNL     1      26.634   3.697  50.483  1.00  0.00     0.201 C 
HETATM   11  N2  UNL     1      26.026   2.507  50.404  1.00  0.00    -0.284 NA
HETATM   12  C10 UNL     1      26.622   1.544  51.281  1.00  0.00     0.153 C 
HETATM   13  C11 UNL     1      25.721   0.636  52.032  1.00  0.00     0.049 C 
HETATM   14  C12 UNL     1      24.567   1.251  52.689  1.00  0.00    -0.025 C 
HETATM   15  C13 UNL     1      23.870   2.304  52.844  1.00  0.00    -0.002 C 
HETATM   16  C14 UNL     1      23.018   3.488  53.071  1.00  0.00     0.024 C 
HETATM   17  C15 UNL     1      22.821   4.727  52.737  1.00  0.00     0.134 C 
HETATM   18  O1  UNL     1      23.655   5.340  51.789  1.00  0.00    -0.360 OA
HETATM   19  C16 UNL     1      23.064   6.449  51.083  1.00  0.00     0.207 C 
HETATM   20  C17 UNL     1      22.613   5.950  49.752  1.00  0.00     0.153 C 
HETATM   21  C19 UNL     1      23.622   5.275  48.899  1.00  0.00     0.054 C 
HETATM   22  H5  UNL     1      26.111   5.541  50.575  1.00  0.00     0.166 HD
ENDROOT
BRANCH  21  23
HETATM   23  C20 UNL     1      22.863   4.715  47.692  1.00  0.00     0.038 C 
BRANCH  23  24
HETATM   24  C21 UNL     1      22.544   3.252  47.887  1.00  0.00     0.167 C 
BRANCH  24  25
HETATM   25  O3  UNL     1      22.915   2.877  49.161  1.00  0.00    -0.396 OA
HETATM   26  C22 UNL     1      22.238   1.786  49.676  1.00  0.00     0.201 C 
ENDBRANCH  24  25
ENDBRANCH  23  24
ENDBRANCH  21  23
BRANCH  20  27
HETATM   27  O2  UNL     1      21.977   7.007  49.054  1.00  0.00    -0.388 OA
HETATM   28  C18 UNL     1      20.781   7.358  49.663  1.00  0.00     0.202 C 
ENDBRANCH  20  27
TORSDOF 4
ENDMDL
MODEL 8
REMARK VINA RESULT:      -6.3      2.798      5.619
REMARK  4 active torsions:
REMARK  status: ('A' for Active; 'I' for Inactive)
REMARK    1  A    between atoms: C17_20  and  O2_21 
REMARK    2  A    between atoms: C19_23  and  C20_24 
REMARK    3  A    between atoms: C20_24  and  C21_25 
REMARK    4  A    between atoms: C21_25  and  O3_26 
ROOT
HETATM    1  C1  UNL     1      25.373  -0.788  55.035  1.00  0.00     0.018 C 
HETATM    2  C2  UNL     1      24.829  -0.186  54.150  1.00  0.00    -0.078 C 
HETATM    3  C3  UNL     1      24.203   0.539  53.098  1.00  0.00     0.019 A 
HETATM    4  C4  UNL     1      24.777   1.402  52.204  1.00  0.00     0.021 A 
HETATM    5  C5  UNL     1      24.212   2.116  51.179  1.00  0.00     0.011 A 
HETATM    6  C6  UNL     1      22.858   1.953  51.009  1.00  0.00    -0.025 A 
HETATM    7  C7  UNL     1      22.201   1.101  51.865  1.00  0.00     0.041 A 
HETATM    8  C8  UNL     1      22.826   0.412  52.877  1.00  0.00     0.050 A 
HETATM    9  N1  UNL     1      20.840   0.884  51.715  1.00  0.00    -0.351 N 
HETATM   10  C9  UNL     1      19.521   0.490  51.438  1.00  0.00     0.201 C 
HETATM   11  N2  UNL     1      18.935   0.409  50.236  1.00  0.00    -0.284 NA
HETATM   12  C10 UNL     1      17.574  -0.025  50.335  1.00  0.00     0.153 C 
HETATM   13  C11 UNL     1      16.567   0.643  49.475  1.00  0.00     0.049 C 
HETATM   14  C12 UNL     1      16.613   2.105  49.424  1.00  0.00    -0.025 C 
HETATM   15  C13 UNL     1      17.250   3.159  49.743  1.00  0.00    -0.002 C 
HETATM   16  C14 UNL     1      17.936   4.422  50.081  1.00  0.00     0.024 C 
HETATM   17  C15 UNL     1      18.990   4.935  50.638  1.00  0.00     0.134 C 
HETATM   18  O1  UNL     1      19.977   4.096  51.180  1.00  0.00    -0.360 OA
HETATM   19  C16 UNL     1      21.295   4.673  51.251  1.00  0.00     0.207 C 
HETATM   20  C17 UNL     1      22.079   4.155  50.093  1.00  0.00     0.153 C 
HETATM   21  C19 UNL     1      22.168   2.682  49.934  1.00  0.00     0.054 C 
HETATM   22  H5  UNL     1      20.671   1.716  52.363  1.00  0.00     0.166 HD
ENDROOT
BRANCH  21  23
HETATM   23  C20 UNL     1      22.864   2.434  48.593  1.00  0.00     0.038 C 
BRANCH  23  24
HETATM   24  C21 UNL     1      21.865   2.424  47.460  1.00  0.00     0.167 C 
BRANCH  24  25
HETATM   25  O3  UNL     1      22.093   3.517  46.651  1.00  0.00    -0.396 OA
HETATM   26  C22 UNL     1      21.034   3.881  45.837  1.00  0.00     0.201 C 
ENDBRANCH  24  25
ENDBRANCH  23  24
ENDBRANCH  21  23
BRANCH  20  27
HETATM   27  O2  UNL     1      23.366   4.747  50.105  1.00  0.00    -0.388 OA
HETATM   28  C18 UNL     1      23.436   5.769  51.042  1.00  0.00     0.202 C 
ENDBRANCH  20  27
TORSDOF 4
ENDMDL
MODEL 9
REMARK VINA RESULT:      -5.9      6.290      9.863
REMARK  4 active torsions:
REMARK  status: ('A' for Active; 'I' for Inactive)
REMARK    1  A    between atoms: C17_20  and  O2_21 
REMARK    2  A    between atoms: C19_23  and  C20_24 
REMARK    3  A    between atoms: C20_24  and  C21_25 
REMARK    4  A    between atoms: C21_25  and  O3_26 
ROOT
HETATM    1  C1  UNL     1      33.936   9.262  42.263  1.00  0.00     0.018 C 
HETATM    2  C2  UNL     1      33.380   9.037  43.303  1.00  0.00    -0.078 C 
HETATM    3  C3  UNL     1      32.741   8.764  44.545  1.00  0.00     0.019 A 
HETATM    4  C4  UNL     1      33.318   8.554  45.767  1.00  0.00     0.021 A 
HETATM    5  C5  UNL     1      32.740   8.290  46.982  1.00  0.00     0.011 A 
HETATM    6  C6  UNL     1      31.367   8.222  46.992  1.00  0.00    -0.025 A 
HETATM    7  C7  UNL     1      30.706   8.423  45.804  1.00  0.00     0.041 A 
HETATM    8  C8  UNL     1      31.344   8.683  44.614  1.00  0.00     0.050 A 
HETATM    9  N1  UNL     1      29.320   8.391  45.770  1.00  0.00    -0.351 N 
HETATM   10  C9  UNL     1      27.929   8.578  45.765  1.00  0.00     0.201 C 
HETATM   11  N2  UNL     1      27.175   9.077  46.753  1.00  0.00    -0.284 NA
HETATM   12  C10 UNL     1      25.788   9.118  46.396  1.00  0.00     0.153 C 
HETATM   13  C11 UNL     1      24.794   8.724  47.425  1.00  0.00     0.049 C 
HETATM   14  C12 UNL     1      25.073   7.498  48.173  1.00  0.00    -0.025 C 
HETATM   15  C13 UNL     1      25.914   6.578  48.428  1.00  0.00    -0.002 C 
HETATM   16  C14 UNL     1      26.839   5.479  48.768  1.00  0.00     0.024 C 
HETATM   17  C15 UNL     1      28.031   5.003  48.573  1.00  0.00     0.134 C 
HETATM   18  O1  UNL     1      28.932   5.685  47.740  1.00  0.00    -0.360 OA
HETATM   19  C16 UNL     1      30.325   5.435  48.014  1.00  0.00     0.207 C 
HETATM   20  C17 UNL     1      30.842   6.581  48.816  1.00  0.00     0.153 C 
HETATM   21  C19 UNL     1      30.663   7.943  48.253  1.00  0.00     0.054 C 
HETATM   22  H5  UNL     1      29.384   7.339  45.593  1.00  0.00     0.166 HD
ENDROOT
BRANCH  21  23
HETATM   23  C20 UNL     1      31.113   8.922  49.341  1.00  0.00     0.038 C 
BRANCH  23  24
HETATM   24  C21 UNL     1      30.262  10.170  49.329  1.00  0.00     0.167 C 
BRANCH  24  25
HETATM   25  O3  UNL     1      31.019  11.226  48.866  1.00  0.00    -0.396 OA
HETATM   26  C22 UNL     1      30.450  12.476  49.031  1.00  0.00     0.201 C 
ENDBRANCH  24  25
ENDBRANCH  23  24
ENDBRANCH  21  23
BRANCH  20  27
HETATM   27  O2  UNL     1      32.198   6.338  49.147  1.00  0.00    -0.388 OA
HETATM   28  C18 UNL     1      32.631   5.130  48.619  1.00  0.00     0.202 C 
ENDBRANCH  20  27
TORSDOF 4
ENDMDL
