MODEL 1
REMARK VINA RESULT:      -8.9      0.000      0.000
REMARK  2 active torsions:
REMARK  status: ('A' for Active; 'I' for Inactive)
REMARK    1  A    between atoms: C3_3  and  O1_4 
REMARK    2  A    between atoms: C17_21  and  N4_22 
ROOT
HETATM    1  C1  UNL     1      26.410  -1.625  52.124  1.00  0.00     0.044 C 
HETATM    2  C2  UNL     1      27.308  -1.026  52.848  1.00  0.00    -0.014 A 
HETATM    3  C3  UNL     1      28.467  -1.897  53.044  1.00  0.00     0.070 A 
HETATM    4  C4  UNL     1      29.511  -1.503  53.759  1.00  0.00     0.036 A 
HETATM    5  C5  UNL     1      29.503  -0.178  54.360  1.00  0.00     0.002 A 
HETATM    6  C6  UNL     1      28.417   0.536  54.129  1.00  0.00     0.010 A 
HETATM    7  C7  UNL     1      27.097   0.335  53.360  1.00  0.00     0.086 A 
HETATM    8  N1  UNL     1      27.328   1.296  52.277  1.00  0.00    -0.358 N 
HETATM    9  C8  UNL     1      26.435   2.099  51.537  1.00  0.00     0.121 C 
HETATM   10  C9  UNL     1      25.863   1.138  50.811  1.00  0.00     0.026 C 
HETATM   11  C10 UNL     1      24.454   0.958  51.322  1.00  0.00     0.073 C 
HETATM   12  C11 UNL     1      24.210   1.749  52.621  1.00  0.00     0.100 C 
HETATM   13  C12 UNL     1      23.780   3.055  52.088  1.00  0.00     0.045 C 
HETATM   14  C13 UNL     1      24.649   3.760  51.310  1.00  0.00     0.086 C 
HETATM   15  N2  UNL     1      25.946   3.467  51.359  1.00  0.00    -0.230 NA
HETATM   16  N3  UNL     1      25.354   2.284  53.300  1.00  0.00    -0.302 NA
HETATM   17  C14 UNL     1      25.904   2.084  54.388  1.00  0.00     0.140 C 
HETATM   18  C15 UNL     1      26.082   0.569  54.350  1.00  0.00     0.085 C 
HETATM   19  C16 UNL     1      24.657   0.159  54.303  1.00  0.00    -0.013 A 
HETATM   20  C17 UNL     1      24.174  -0.839  55.120  1.00  0.00     0.033 A 
HETATM   21  C18 UNL     1      22.840  -1.198  55.130  1.00  0.00     0.029 A 
HETATM   22  C19 UNL     1      21.928  -0.567  54.314  1.00  0.00     0.003 A 
HETATM   23  C20 UNL     1      22.383   0.434  53.486  1.00  0.00     0.011 A 
HETATM   24  C21 UNL     1      23.691   0.800  53.463  1.00  0.00    -0.015 A 
HETATM   25  H7  UNL     1      28.243   1.557  51.854  1.00  0.00     0.162 HD
ENDROOT
BRANCH   3  26
HETATM   26  O1  UNL     1      28.616  -3.178  52.535  1.00  0.00    -0.360 OA
HETATM   27  H3  UNL     1      28.683  -3.926  53.221  1.00  0.00     0.217 HD
ENDBRANCH   3  26
BRANCH  20  28
HETATM   28  N4  UNL     1      25.124  -1.494  55.966  1.00  0.00    -0.399 N 
HETATM   29  H14 UNL     1      25.948  -0.927  56.330  1.00  0.00     0.156 HD
HETATM   30  H15 UNL     1      25.232  -2.448  56.349  1.00  0.00     0.156 HD
ENDBRANCH  20  28
TORSDOF 2
ENDMDL
MODEL 2
REMARK VINA RESULT:      -8.8      2.465      4.875
REMARK  2 active torsions:
REMARK  status: ('A' for Active; 'I' for Inactive)
REMARK    1  A    between atoms: C3_3  and  O1_4 
REMARK    2  A    between atoms: C17_21  and  N4_22 
ROOT
HETATM    1  C1  UNL     1      24.446   3.457  53.613  1.00  0.00     0.044 C 
HETATM    2  C2  UNL     1      24.689   3.353  52.340  1.00  0.00    -0.014 A 
HETATM    3  C3  UNL     1      24.008   4.420  51.605  1.00  0.00     0.070 A 
HETATM    4  C4  UNL     1      24.102   4.516  50.286  1.00  0.00     0.036 A 
HETATM    5  C5  UNL     1      24.898   3.541  49.557  1.00  0.00     0.002 A 
HETATM    6  C6  UNL     1      25.475   2.617  50.303  1.00  0.00     0.010 A 
HETATM    7  C7  UNL     1      25.534   2.278  51.805  1.00  0.00     0.086 A 
HETATM    8  N1  UNL     1      26.941   2.609  52.047  1.00  0.00    -0.358 N 
HETATM    9  C8  UNL     1      27.886   2.067  52.944  1.00  0.00     0.121 C 
HETATM   10  C9  UNL     1      27.385   2.558  54.077  1.00  0.00     0.026 C 
HETATM   11  C10 UNL     1      26.777   1.408  54.843  1.00  0.00     0.073 C 
HETATM   12  C11 UNL     1      26.726   0.121  53.998  1.00  0.00     0.100 C 
HETATM   13  C12 UNL     1      28.045  -0.469  54.288  1.00  0.00     0.045 C 
HETATM   14  C13 UNL     1      29.163   0.231  53.943  1.00  0.00     0.086 C 
HETATM   15  N2  UNL     1      29.064   1.203  53.040  1.00  0.00    -0.230 NA
HETATM   16  N3  UNL     1      26.971   0.238  52.590  1.00  0.00    -0.302 NA
HETATM   17  C14 UNL     1      26.304   0.067  51.564  1.00  0.00     0.140 C 
HETATM   18  C15 UNL     1      25.074   0.917  51.870  1.00  0.00     0.085 C 
HETATM   19  C16 UNL     1      24.565   0.188  53.057  1.00  0.00    -0.013 A 
HETATM   20  C17 UNL     1      23.232  -0.139  53.176  1.00  0.00     0.033 A 
HETATM   21  C18 UNL     1      22.748  -0.865  54.247  1.00  0.00     0.029 A 
HETATM   22  C19 UNL     1      23.585  -1.295  55.252  1.00  0.00     0.003 A 
HETATM   23  C20 UNL     1      24.922  -0.981  55.159  1.00  0.00     0.011 A 
HETATM   24  C21 UNL     1      25.416  -0.268  54.114  1.00  0.00    -0.015 A 
HETATM   25  H7  UNL     1      27.506   3.342  51.567  1.00  0.00     0.162 HD
ENDROOT
BRANCH   3  26
HETATM   26  O1  UNL     1      23.220   5.416  52.162  1.00  0.00    -0.360 OA
HETATM   27  H3  UNL     1      23.642   6.339  52.220  1.00  0.00     0.217 HD
ENDBRANCH   3  26
BRANCH  20  28
HETATM   28  N4  UNL     1      22.364   0.309  52.131  1.00  0.00    -0.399 N 
HETATM   29  H14 UNL     1      21.345   0.499  52.370  1.00  0.00     0.156 HD
HETATM   30  H15 UNL     1      22.473   0.514  51.123  1.00  0.00     0.156 HD
ENDBRANCH  20  28
TORSDOF 2
ENDMDL
MODEL 3
REMARK VINA RESULT:      -8.4      3.507      5.872
REMARK  2 active torsions:
REMARK  status: ('A' for Active; 'I' for Inactive)
REMARK    1  A    between atoms: C3_3  and  O1_4 
REMARK    2  A    between atoms: C17_21  and  N4_22 
ROOT
HETATM    1  C1  UNL     1      25.053   3.261  49.531  1.00  0.00     0.044 C 
HETATM    2  C2  UNL     1      24.662   4.419  49.975  1.00  0.00    -0.014 A 
HETATM    3  C3  UNL     1      25.717   5.415  49.791  1.00  0.00     0.070 A 
HETATM    4  C4  UNL     1      25.552   6.673  50.175  1.00  0.00     0.036 A 
HETATM    5  C5  UNL     1      24.294   7.069  50.791  1.00  0.00     0.002 A 
HETATM    6  C6  UNL     1      23.402   6.104  50.915  1.00  0.00     0.010 A 
HETATM    7  C7  UNL     1      23.331   4.604  50.567  1.00  0.00     0.086 A 
HETATM    8  N1  UNL     1      22.335   4.678  49.494  1.00  0.00    -0.358 N 
HETATM    9  C8  UNL     1      21.344   3.763  49.077  1.00  0.00     0.121 C 
HETATM   10  C9  UNL     1      22.141   2.849  48.525  1.00  0.00     0.026 C 
HETATM   11  C10 UNL     1      22.138   1.637  49.426  1.00  0.00     0.073 C 
HETATM   12  C11 UNL     1      21.425   1.919  50.762  1.00  0.00     0.100 C 
HETATM   13  C12 UNL     1      20.029   1.588  50.421  1.00  0.00     0.045 C 
HETATM   14  C13 UNL     1      19.410   2.305  49.442  1.00  0.00     0.086 C 
HETATM   15  N2  UNL     1      19.906   3.490  49.094  1.00  0.00    -0.230 NA
HETATM   16  N3  UNL     1      21.133   3.285  51.087  1.00  0.00    -0.302 NA
HETATM   17  C14 UNL     1      21.504   4.081  51.955  1.00  0.00     0.140 C 
HETATM   18  C15 UNL     1      23.021   3.974  51.821  1.00  0.00     0.085 C 
HETATM   19  C16 UNL     1      23.196   2.547  52.186  1.00  0.00    -0.013 A 
HETATM   20  C17 UNL     1      24.168   2.153  53.079  1.00  0.00     0.033 A 
HETATM   21  C18 UNL     1      24.312   0.837  53.474  1.00  0.00     0.029 A 
HETATM   22  C19 UNL     1      23.482  -0.147  52.985  1.00  0.00     0.003 A 
HETATM   23  C20 UNL     1      22.502   0.219  52.091  1.00  0.00     0.011 A 
HETATM   24  C21 UNL     1      22.346   1.507  51.691  1.00  0.00    -0.015 A 
HETATM   25  H7  UNL     1      22.187   5.463  48.826  1.00  0.00     0.162 HD
ENDROOT
BRANCH   3  26
HETATM   26  O1  UNL     1      26.961   5.187  49.221  1.00  0.00    -0.360 OA
HETATM   27  H3  UNL     1      27.223   4.211  49.097  1.00  0.00     0.217 HD
ENDBRANCH   3  26
BRANCH  20  28
HETATM   28  N4  UNL     1      25.030   3.178  53.585  1.00  0.00    -0.399 N 
HETATM   29  H14 UNL     1      24.762   4.192  53.408  1.00  0.00     0.156 HD
HETATM   30  H15 UNL     1      25.915   3.196  54.119  1.00  0.00     0.156 HD
ENDBRANCH  20  28
TORSDOF 2
ENDMDL
MODEL 4
REMARK VINA RESULT:      -8.2      3.889      6.505
REMARK  2 active torsions:
REMARK  status: ('A' for Active; 'I' for Inactive)
REMARK    1  A    between atoms: C3_3  and  O1_4 
REMARK    2  A    between atoms: C17_21  and  N4_22 
ROOT
HETATM    1  C1  UNL     1      23.756   3.220  49.363  1.00  0.00     0.044 C 
HETATM    2  C2  UNL     1      23.138   4.260  49.839  1.00  0.00    -0.014 A 
HETATM    3  C3  UNL     1      23.801   5.489  49.405  1.00  0.00     0.070 A 
HETATM    4  C4  UNL     1      23.353   6.681  49.772  1.00  0.00     0.036 A 
HETATM    5  C5  UNL     1      22.177   6.767  50.626  1.00  0.00     0.002 A 
HETATM    6  C6  UNL     1      21.646   5.607  50.966  1.00  0.00     0.010 A 
HETATM    7  C7  UNL     1      21.949   4.121  50.691  1.00  0.00     0.086 A 
HETATM    8  N1  UNL     1      20.789   3.815  49.850  1.00  0.00    -0.358 N 
HETATM    9  C8  UNL     1      20.047   2.626  49.681  1.00  0.00     0.121 C 
HETATM   10  C9  UNL     1      20.955   1.923  49.005  1.00  0.00     0.026 C 
HETATM   11  C10 UNL     1      21.477   0.847  49.926  1.00  0.00     0.073 C 
HETATM   12  C11 UNL     1      20.983   1.041  51.372  1.00  0.00     0.100 C 
HETATM   13  C12 UNL     1      19.706   0.305  51.344  1.00  0.00     0.045 C 
HETATM   14  C13 UNL     1      18.729   0.728  50.493  1.00  0.00     0.086 C 
HETATM   15  N2  UNL     1      18.782   1.966  50.009  1.00  0.00    -0.230 NA
HETATM   16  N3  UNL     1      20.374   2.296  51.705  1.00  0.00    -0.302 NA
HETATM   17  C14 UNL     1      20.656   3.241  52.450  1.00  0.00     0.140 C 
HETATM   18  C15 UNL     1      22.083   3.548  52.003  1.00  0.00     0.085 C 
HETATM   19  C16 UNL     1      22.732   2.267  52.371  1.00  0.00    -0.013 A 
HETATM   20  C17 UNL     1      23.930   2.244  53.052  1.00  0.00     0.033 A 
HETATM   21  C18 UNL     1      24.524   1.062  53.452  1.00  0.00     0.029 A 
HETATM   22  C19 UNL     1      23.939  -0.155  53.182  1.00  0.00     0.003 A 
HETATM   23  C20 UNL     1      22.742  -0.161  52.501  1.00  0.00     0.011 A 
HETATM   24  C21 UNL     1      22.144   0.991  52.100  1.00  0.00    -0.015 A 
HETATM   25  H7  UNL     1      20.294   4.463  49.202  1.00  0.00     0.162 HD
ENDROOT
BRANCH   3  26
HETATM   26  O1  UNL     1      24.925   5.564  48.594  1.00  0.00    -0.360 OA
HETATM   27  H3  UNL     1      25.821   5.594  49.076  1.00  0.00     0.217 HD
ENDBRANCH   3  26
BRANCH  20  28
HETATM   28  N4  UNL     1      24.535   3.510  53.331  1.00  0.00    -0.399 N 
HETATM   29  H14 UNL     1      25.178   3.585  54.176  1.00  0.00     0.156 HD
HETATM   30  H15 UNL     1      24.512   4.447  52.895  1.00  0.00     0.156 HD
ENDBRANCH  20  28
TORSDOF 2
ENDMDL
MODEL 5
REMARK VINA RESULT:      -8.1      8.715     11.457
REMARK  2 active torsions:
REMARK  status: ('A' for Active; 'I' for Inactive)
REMARK    1  A    between atoms: C3_3  and  O1_4 
REMARK    2  A    between atoms: C17_21  and  N4_22 
ROOT
HETATM    1  C1  UNL     1      30.571   9.410  49.658  1.00  0.00     0.044 C 
HETATM    2  C2  UNL     1      30.918   9.932  48.519  1.00  0.00    -0.014 A 
HETATM    3  C3  UNL     1      30.921  11.392  48.611  1.00  0.00     0.070 A 
HETATM    4  C4  UNL     1      31.238  12.147  47.568  1.00  0.00     0.036 A 
HETATM    5  C5  UNL     1      31.588  11.509  46.308  1.00  0.00     0.002 A 
HETATM    6  C6  UNL     1      31.558  10.189  46.320  1.00  0.00     0.010 A 
HETATM    7  C7  UNL     1      31.238   9.094  47.356  1.00  0.00     0.086 A 
HETATM    8  N1  UNL     1      32.587   8.546  47.517  1.00  0.00    -0.358 N 
HETATM    9  C8  UNL     1      33.035   7.239  47.807  1.00  0.00     0.121 C 
HETATM   10  C9  UNL     1      32.660   7.181  49.084  1.00  0.00     0.026 C 
HETATM   11  C10 UNL     1      31.486   6.237  49.173  1.00  0.00     0.073 C 
HETATM   12  C11 UNL     1      30.968   5.833  47.780  1.00  0.00     0.100 C 
HETATM   13  C12 UNL     1      31.808   4.658  47.487  1.00  0.00     0.045 C 
HETATM   14  C13 UNL     1      33.159   4.824  47.414  1.00  0.00     0.086 C 
HETATM   15  N2  UNL     1      33.652   6.045  47.225  1.00  0.00    -0.230 NA
HETATM   16  N3  UNL     1      31.438   6.583  46.651  1.00  0.00    -0.302 NA
HETATM   17  C14 UNL     1      30.924   7.339  45.820  1.00  0.00     0.140 C 
HETATM   18  C15 UNL     1      30.197   8.323  46.732  1.00  0.00     0.085 C 
HETATM   19  C16 UNL     1      29.244   7.392  47.383  1.00  0.00    -0.013 A 
HETATM   20  C17 UNL     1      27.909   7.709  47.509  1.00  0.00     0.033 A 
HETATM   21  C18 UNL     1      26.995   6.833  48.063  1.00  0.00     0.029 A 
HETATM   22  C19 UNL     1      27.385   5.594  48.519  1.00  0.00     0.003 A 
HETATM   23  C20 UNL     1      28.713   5.251  48.407  1.00  0.00     0.011 A 
HETATM   24  C21 UNL     1      29.626   6.099  47.865  1.00  0.00    -0.015 A 
HETATM   25  H7  UNL     1      33.489   9.062  47.439  1.00  0.00     0.162 HD
ENDROOT
BRANCH   3  26
HETATM   26  O1  UNL     1      30.612  12.137  49.739  1.00  0.00    -0.360 OA
HETATM   27  H3  UNL     1      30.409  13.122  49.582  1.00  0.00     0.217 HD
ENDBRANCH   3  26
BRANCH  20  28
HETATM   28  N4  UNL     1      27.507   8.998  47.034  1.00  0.00    -0.399 N 
HETATM   29  H14 UNL     1      26.469   9.179  46.888  1.00  0.00     0.156 HD
HETATM   30  H15 UNL     1      27.997   9.871  46.775  1.00  0.00     0.156 HD
ENDBRANCH  20  28
TORSDOF 2
ENDMDL
MODEL 6
REMARK VINA RESULT:      -8.0      3.724      6.314
REMARK  2 active torsions:
REMARK  status: ('A' for Active; 'I' for Inactive)
REMARK    1  A    between atoms: C3_3  and  O1_4 
REMARK    2  A    between atoms: C17_21  and  N4_22 
ROOT
HETATM    1  C1  UNL     1      25.831   3.474  49.641  1.00  0.00     0.044 C 
HETATM    2  C2  UNL     1      25.283   3.414  50.818  1.00  0.00    -0.014 A 
HETATM    3  C3  UNL     1      25.970   2.424  51.647  1.00  0.00     0.070 A 
HETATM    4  C4  UNL     1      25.584   2.180  52.892  1.00  0.00     0.036 A 
HETATM    5  C5  UNL     1      24.454   2.913  53.442  1.00  0.00     0.002 A 
HETATM    6  C6  UNL     1      23.898   3.786  52.622  1.00  0.00     0.010 A 
HETATM    7  C7  UNL     1      24.135   4.257  51.174  1.00  0.00     0.086 A 
HETATM    8  N1  UNL     1      24.606   5.615  51.462  1.00  0.00    -0.358 N 
HETATM    9  C8  UNL     1      24.481   6.819  50.737  1.00  0.00     0.121 C 
HETATM   10  C9  UNL     1      25.323   6.539  49.743  1.00  0.00     0.026 C 
HETATM   11  C10 UNL     1      24.501   6.314  48.498  1.00  0.00     0.073 C 
HETATM   12  C11 UNL     1      22.993   6.255  48.809  1.00  0.00     0.100 C 
HETATM   13  C12 UNL     1      22.622   7.679  48.719  1.00  0.00     0.045 C 
HETATM   14  C13 UNL     1      23.206   8.561  49.578  1.00  0.00     0.086 C 
HETATM   15  N2  UNL     1      23.776   8.102  50.690  1.00  0.00    -0.230 NA
HETATM   16  N3  UNL     1      22.601   6.131  50.183  1.00  0.00    -0.302 NA
HETATM   17  C14 UNL     1      22.032   5.269  50.862  1.00  0.00     0.140 C 
HETATM   18  C15 UNL     1      22.869   4.037  50.528  1.00  0.00     0.085 C 
HETATM   19  C16 UNL     1      22.596   3.946  49.073  1.00  0.00    -0.013 A 
HETATM   20  C17 UNL     1      22.264   2.746  48.483  1.00  0.00     0.033 A 
HETATM   21  C18 UNL     1      21.954   2.650  47.140  1.00  0.00     0.029 A 
HETATM   22  C19 UNL     1      21.966   3.761  46.326  1.00  0.00     0.003 A 
HETATM   23  C20 UNL     1      22.296   4.973  46.890  1.00  0.00     0.011 A 
HETATM   24  C21 UNL     1      22.604   5.086  48.208  1.00  0.00    -0.015 A 
HETATM   25  H7  UNL     1      25.142   5.929  52.297  1.00  0.00     0.162 HD
ENDROOT
BRANCH   3  26
HETATM   26  O1  UNL     1      27.057   1.653  51.261  1.00  0.00    -0.360 OA
HETATM   27  H3  UNL     1      26.838   0.779  50.787  1.00  0.00     0.217 HD
ENDBRANCH   3  26
BRANCH  20  28
HETATM   28  N4  UNL     1      22.253   1.594  49.331  1.00  0.00    -0.399 N 
HETATM   29  H14 UNL     1      22.977   1.533  50.107  1.00  0.00     0.156 HD
HETATM   30  H15 UNL     1      21.681   0.734  49.395  1.00  0.00     0.156 HD
ENDBRANCH  20  28
TORSDOF 2
ENDMDL
MODEL 7
REMARK VINA RESULT:      -7.8      4.780      8.457
REMARK  2 active torsions:
REMARK  status: ('A' for Active; 'I' for Inactive)
REMARK    1  A    between atoms: C3_3  and  O1_4 
REMARK    2  A    between atoms: C17_21  and  N4_22 
ROOT
HETATM    1  C1  UNL     1      22.690   5.515  47.473  1.00  0.00     0.044 C 
HETATM    2  C2  UNL     1      22.189   6.233  48.435  1.00  0.00    -0.014 A 
HETATM    3  C3  UNL     1      21.306   7.265  47.892  1.00  0.00     0.070 A 
HETATM    4  C4  UNL     1      20.683   8.125  48.685  1.00  0.00     0.036 A 
HETATM    5  C5  UNL     1      20.884   8.041  50.123  1.00  0.00     0.002 A 
HETATM    6  C6  UNL     1      21.696   7.079  50.521  1.00  0.00     0.010 A 
HETATM    7  C7  UNL     1      22.526   5.973  49.841  1.00  0.00     0.086 A 
HETATM    8  N1  UNL     1      21.765   4.811  50.309  1.00  0.00    -0.358 N 
HETATM    9  C8  UNL     1      22.167   3.492  50.611  1.00  0.00     0.121 C 
HETATM   10  C9  UNL     1      22.401   3.069  49.369  1.00  0.00     0.026 C 
HETATM   11  C10 UNL     1      23.895   2.931  49.208  1.00  0.00     0.073 C 
HETATM   12  C11 UNL     1      24.658   3.520  50.409  1.00  0.00     0.100 C 
HETATM   13  C12 UNL     1      24.714   2.359  51.316  1.00  0.00     0.045 C 
HETATM   14  C13 UNL     1      23.543   1.828  51.767  1.00  0.00     0.086 C 
HETATM   15  N2  UNL     1      22.433   2.560  51.708  1.00  0.00    -0.230 NA
HETATM   16  N3  UNL     1      23.923   4.338  51.330  1.00  0.00    -0.302 NA
HETATM   17  C14 UNL     1      23.946   5.527  51.664  1.00  0.00     0.140 C 
HETATM   18  C15 UNL     1      23.866   6.213  50.303  1.00  0.00     0.085 C 
HETATM   19  C16 UNL     1      25.132   5.721  49.709  1.00  0.00    -0.013 A 
HETATM   20  C17 UNL     1      25.997   6.577  49.063  1.00  0.00     0.033 A 
HETATM   21  C18 UNL     1      27.207   6.149  48.550  1.00  0.00     0.029 A 
HETATM   22  C19 UNL     1      27.602   4.835  48.663  1.00  0.00     0.003 A 
HETATM   23  C20 UNL     1      26.756   3.957  49.303  1.00  0.00     0.011 A 
HETATM   24  C21 UNL     1      25.563   4.360  49.813  1.00  0.00    -0.015 A 
HETATM   25  H7  UNL     1      20.743   4.768  50.508  1.00  0.00     0.162 HD
ENDROOT
BRANCH   3  26
HETATM   26  O1  UNL     1      21.019   7.466  46.550  1.00  0.00    -0.360 OA
HETATM   27  H3  UNL     1      21.489   6.844  45.895  1.00  0.00     0.217 HD
ENDBRANCH   3  26
BRANCH  20  28
HETATM   28  N4  UNL     1      25.584   7.942  48.946  1.00  0.00    -0.399 N 
HETATM   29  H14 UNL     1      24.570   8.141  48.694  1.00  0.00     0.156 HD
HETATM   30  H15 UNL     1      26.047   8.861  49.051  1.00  0.00     0.156 HD
ENDBRANCH  20  28
TORSDOF 2
ENDMDL
MODEL 8
REMARK VINA RESULT:      -7.7      4.419      7.188
REMARK  2 active torsions:
REMARK  status: ('A' for Active; 'I' for Inactive)
REMARK    1  A    between atoms: C3_3  and  O1_4 
REMARK    2  A    between atoms: C17_21  and  N4_22 
ROOT
HETATM    1  C1  UNL     1      23.799   6.843  51.200  1.00  0.00     0.044 C 
HETATM    2  C2  UNL     1      24.711   6.346  50.419  1.00  0.00    -0.014 A 
HETATM    3  C3  UNL     1      25.700   7.369  50.077  1.00  0.00     0.070 A 
HETATM    4  C4  UNL     1      26.726   7.097  49.284  1.00  0.00     0.036 A 
HETATM    5  C5  UNL     1      26.871   5.754  48.743  1.00  0.00     0.002 A 
HETATM    6  C6  UNL     1      25.933   4.899  49.106  1.00  0.00     0.010 A 
HETATM    7  C7  UNL     1      24.670   4.942  49.988  1.00  0.00     0.086 A 
HETATM    8  N1  UNL     1      25.141   4.090  51.084  1.00  0.00    -0.358 N 
HETATM    9  C8  UNL     1      24.451   3.205  51.939  1.00  0.00     0.121 C 
HETATM   10  C9  UNL     1      23.803   4.107  52.675  1.00  0.00     0.026 C 
HETATM   11  C10 UNL     1      22.344   4.045  52.293  1.00  0.00     0.073 C 
HETATM   12  C11 UNL     1      22.113   3.154  51.058  1.00  0.00     0.100 C 
HETATM   13  C12 UNL     1      21.939   1.830  51.683  1.00  0.00     0.045 C 
HETATM   14  C13 UNL     1      22.971   1.309  52.405  1.00  0.00     0.086 C 
HETATM   15  N2  UNL     1      24.198   1.790  52.221  1.00  0.00    -0.230 NA
HETATM   16  N3  UNL     1      23.262   2.759  50.296  1.00  0.00    -0.302 NA
HETATM   17  C14 UNL     1      23.678   2.978  49.153  1.00  0.00     0.140 C 
HETATM   18  C15 UNL     1      23.621   4.503  49.109  1.00  0.00     0.085 C 
HETATM   19  C16 UNL     1      22.160   4.695  49.275  1.00  0.00    -0.013 A 
HETATM   20  C17 UNL     1      21.458   5.562  48.466  1.00  0.00     0.033 A 
HETATM   21  C18 UNL     1      20.088   5.715  48.568  1.00  0.00     0.029 A 
HETATM   22  C19 UNL     1      19.360   5.001  49.493  1.00  0.00     0.003 A 
HETATM   23  C20 UNL     1      20.036   4.128  50.315  1.00  0.00     0.011 A 
HETATM   24  C21 UNL     1      21.382   3.965  50.229  1.00  0.00    -0.015 A 
HETATM   25  H7  UNL     1      26.119   3.993  51.429  1.00  0.00     0.162 HD
ENDROOT
BRANCH   3  26
HETATM   26  O1  UNL     1      25.693   8.685  50.515  1.00  0.00    -0.360 OA
HETATM   27  H3  UNL     1      26.291   9.329  50.003  1.00  0.00     0.217 HD
ENDBRANCH   3  26
BRANCH  20  28
HETATM   28  N4  UNL     1      22.217   6.303  47.506  1.00  0.00    -0.399 N 
HETATM   29  H14 UNL     1      22.936   7.001  47.863  1.00  0.00     0.156 HD
HETATM   30  H15 UNL     1      22.257   6.344  46.473  1.00  0.00     0.156 HD
ENDBRANCH  20  28
TORSDOF 2
ENDMDL
MODEL 9
REMARK VINA RESULT:      -7.6      9.762     11.740
REMARK  2 active torsions:
REMARK  status: ('A' for Active; 'I' for Inactive)
REMARK    1  A    between atoms: C3_3  and  O1_4 
REMARK    2  A    between atoms: C17_21  and  N4_22 
ROOT
HETATM    1  C1  UNL     1      32.720   4.921  46.685  1.00  0.00     0.044 C 
HETATM    2  C2  UNL     1      33.619   5.612  47.321  1.00  0.00    -0.014 A 
HETATM    3  C3  UNL     1      34.445   4.731  48.148  1.00  0.00     0.070 A 
HETATM    4  C4  UNL     1      35.427   5.211  48.896  1.00  0.00     0.036 A 
HETATM    5  C5  UNL     1      35.689   6.643  48.896  1.00  0.00     0.002 A 
HETATM    6  C6  UNL     1      34.894   7.357  48.120  1.00  0.00     0.010 A 
HETATM    7  C7  UNL     1      33.712   7.070  47.174  1.00  0.00     0.086 A 
HETATM    8  N1  UNL     1      34.371   7.382  45.902  1.00  0.00    -0.358 N 
HETATM    9  C8  UNL     1      33.866   7.911  44.695  1.00  0.00     0.121 C 
HETATM   10  C9  UNL     1      33.177   6.846  44.287  1.00  0.00     0.026 C 
HETATM   11  C10 UNL     1      31.710   7.169  44.433  1.00  0.00     0.073 C 
HETATM   12  C11 UNL     1      31.487   8.490  45.195  1.00  0.00     0.100 C 
HETATM   13  C12 UNL     1      31.526   9.469  44.094  1.00  0.00     0.045 C 
HETATM   14  C13 UNL     1      32.670   9.581  43.361  1.00  0.00     0.086 C 
HETATM   15  N2  UNL     1      33.810   9.116  43.865  1.00  0.00    -0.230 NA
HETATM   16  N3  UNL     1      32.609   9.060  45.883  1.00  0.00    -0.302 NA
HETATM   17  C14 UNL     1      32.899   9.276  47.064  1.00  0.00     0.140 C 
HETATM   18  C15 UNL     1      32.655   7.901  47.681  1.00  0.00     0.085 C 
HETATM   19  C16 UNL     1      31.200   7.776  47.423  1.00  0.00    -0.013 A 
HETATM   20  C17 UNL     1      30.334   7.355  48.410  1.00  0.00     0.033 A 
HETATM   21  C18 UNL     1      28.969   7.284  48.206  1.00  0.00     0.029 A 
HETATM   22  C19 UNL     1      28.411   7.631  46.996  1.00  0.00     0.003 A 
HETATM   23  C20 UNL     1      29.253   8.054  45.993  1.00  0.00     0.011 A 
HETATM   24  C21 UNL     1      30.597   8.130  46.174  1.00  0.00    -0.015 A 
HETATM   25  H7  UNL     1      35.379   7.258  45.670  1.00  0.00     0.162 HD
ENDROOT
BRANCH   3  26
HETATM   26  O1  UNL     1      34.315   3.354  48.249  1.00  0.00    -0.360 OA
HETATM   27  H3  UNL     1      33.363   2.994  48.249  1.00  0.00     0.217 HD
ENDBRANCH   3  26
BRANCH  20  28
HETATM   28  N4  UNL     1      30.917   6.995  49.665  1.00  0.00    -0.399 N 
HETATM   29  H14 UNL     1      30.937   7.725  50.439  1.00  0.00     0.156 HD
HETATM   30  H15 UNL     1      31.360   6.144  50.052  1.00  0.00     0.156 HD
ENDBRANCH  20  28
TORSDOF 2
ENDMDL
