MODEL 1
REMARK VINA RESULT:      -8.1      0.000      0.000
REMARK  5 active torsions:
REMARK  status: ('A' for Active; 'I' for Inactive)
REMARK    1  A    between atoms: C6_7  and  N2_8 
REMARK       I    between atoms: N2_8  and  C7_9 
REMARK    2  A    between atoms: C7_9  and  C8_11 
REMARK    3  A    between atoms: C14_18  and  N3_19 
REMARK    4  A    between atoms: N3_19  and  C15_20 
REMARK    5  A    between atoms: C16_21  and  C17_22 
ROOT
HETATM    1  N1  UNL     1      18.097  -1.635  53.354  1.00  0.00    -0.191 NA
HETATM    2  C1  UNL     1      19.013  -0.933  53.423  1.00  0.00     0.101 C 
HETATM    3  C2  UNL     1      20.141  -0.063  53.527  1.00  0.00     0.062 C 
HETATM    4  C3  UNL     1      21.185  -0.505  54.331  1.00  0.00     0.024 C 
HETATM    5  C4  UNL     1      22.510  -0.886  54.294  1.00  0.00     0.004 C 
HETATM    6  C5  UNL     1      23.682  -0.225  53.980  1.00  0.00     0.029 C 
HETATM    7  C6  UNL     1      24.464   0.292  52.968  1.00  0.00     0.035 C 
HETATM    8  C12 UNL     1      24.149   1.361  52.155  1.00  0.00     0.033 C 
HETATM    9  C13 UNL     1      23.236   1.907  51.297  1.00  0.00     0.052 C 
HETATM   10  C14 UNL     1      22.145   2.293  52.047  1.00  0.00     0.127 C 
HETATM   11  N4  UNL     1      21.374   1.227  52.215  1.00  0.00    -0.242 NA
HETATM   12  C18 UNL     1      20.227   1.168  52.876  1.00  0.00     0.141 C 
ENDROOT
BRANCH  10  13
HETATM   13  N3  UNL     1      22.559   3.660  52.170  1.00  0.00    -0.351 N 
HETATM   14  H10 UNL     1      22.881   4.005  53.124  1.00  0.00     0.166 HD
BRANCH  13  15
HETATM   15  C15 UNL     1      22.568   4.590  51.090  1.00  0.00     0.088 C 
HETATM   16  C16 UNL     1      23.374   5.535  51.578  1.00  0.00     0.027 C 
BRANCH  16  17
HETATM   17  C17 UNL     1      23.946   6.820  51.204  1.00  0.00     0.420 C 
HETATM   18  O3  UNL     1      24.140   8.013  50.864  1.00  0.00    -0.426 OA
ENDBRANCH  16  17
ENDBRANCH  13  15
ENDBRANCH  10  13
BRANCH   7  19
HETATM   19  N2  UNL     1      25.710  -0.381  52.786  1.00  0.00    -0.323 N 
HETATM   20  C7  UNL     1      26.719   0.224  53.563  1.00  0.00     0.258 C 
HETATM   21  O1  UNL     1      26.389   1.213  54.264  1.00  0.00    -0.267 OA
HETATM   22  H4  UNL     1      25.966  -1.214  52.190  1.00  0.00     0.169 HD
BRANCH  20  23
HETATM   23  C8  UNL     1      28.107  -0.226  53.603  1.00  0.00     0.056 A 
HETATM   24  C9  UNL     1      28.479  -1.520  53.293  1.00  0.00     0.043 A 
HETATM   25  C10 UNL     1      29.869  -1.518  53.458  1.00  0.00     0.142 A 
HETATM   26  O2  UNL     1      30.252  -0.323  53.828  1.00  0.00    -0.334 OA
HETATM   27  C11 UNL     1      29.230   0.505  53.934  1.00  0.00     0.158 A 
ENDBRANCH  20  23
ENDBRANCH   7  19
TORSDOF 5
ENDMDL
MODEL 2
REMARK VINA RESULT:      -8.0      3.367      6.987
REMARK  5 active torsions:
REMARK  status: ('A' for Active; 'I' for Inactive)
REMARK    1  A    between atoms: C6_7  and  N2_8 
REMARK       I    between atoms: N2_8  and  C7_9 
REMARK    2  A    between atoms: C7_9  and  C8_11 
REMARK    3  A    between atoms: C14_18  and  N3_19 
REMARK    4  A    between atoms: N3_19  and  C15_20 
REMARK    5  A    between atoms: C16_21  and  C17_22 
ROOT
HETATM    1  N1  UNL     1      28.380  -0.069  55.066  1.00  0.00    -0.191 NA
HETATM    2  C1  UNL     1      27.559   0.234  54.311  1.00  0.00     0.101 C 
HETATM    3  C2  UNL     1      26.550   0.595  53.367  1.00  0.00     0.062 C 
HETATM    4  C3  UNL     1      25.562  -0.354  53.131  1.00  0.00     0.024 C 
HETATM    5  C4  UNL     1      24.209  -0.582  53.262  1.00  0.00     0.004 C 
HETATM    6  C5  UNL     1      23.086   0.007  52.712  1.00  0.00     0.029 C 
HETATM    7  C6  UNL     1      22.254   1.107  52.722  1.00  0.00     0.035 C 
HETATM    8  C12 UNL     1      22.588   2.390  52.337  1.00  0.00     0.033 C 
HETATM    9  C13 UNL     1      23.451   3.437  52.498  1.00  0.00     0.052 C 
HETATM   10  C14 UNL     1      24.656   3.069  51.936  1.00  0.00     0.127 C 
HETATM   11  N4  UNL     1      25.321   2.360  52.838  1.00  0.00    -0.242 NA
HETATM   12  C18 UNL     1      26.523   1.819  52.699  1.00  0.00     0.141 C 
ENDROOT
BRANCH  10  13
HETATM   13  N3  UNL     1      24.407   3.716  50.681  1.00  0.00    -0.351 N 
HETATM   14  H10 UNL     1      23.627   3.337  50.064  1.00  0.00     0.166 HD
BRANCH  13  15
HETATM   15  C15 UNL     1      25.142   4.841  50.206  1.00  0.00     0.088 C 
HETATM   16  C16 UNL     1      26.167   4.235  49.602  1.00  0.00     0.027 C 
BRANCH  16  17
HETATM   17  C17 UNL     1      27.378   4.557  48.862  1.00  0.00     0.420 C 
HETATM   18  O3  UNL     1      28.535   4.890  48.509  1.00  0.00    -0.426 OA
ENDBRANCH  16  17
ENDBRANCH  13  15
ENDBRANCH  10  13
BRANCH   7  19
HETATM   19  N2  UNL     1      20.930   0.839  53.185  1.00  0.00    -0.323 N 
HETATM   20  C7  UNL     1      20.132   0.331  52.140  1.00  0.00     0.258 C 
HETATM   21  O1  UNL     1      20.676   0.197  51.016  1.00  0.00    -0.267 OA
HETATM   22  H4  UNL     1      20.493   0.959  54.138  1.00  0.00     0.169 HD
BRANCH  20  23
HETATM   23  C8  UNL     1      18.729  -0.044  52.285  1.00  0.00     0.056 A 
HETATM   24  C9  UNL     1      18.312  -1.047  53.138  1.00  0.00     0.043 A 
HETATM   25  C10 UNL     1      16.923  -1.076  52.969  1.00  0.00     0.142 A 
HETATM   26  O2  UNL     1      16.583  -0.165  52.093  1.00  0.00    -0.334 OA
HETATM   27  C11 UNL     1      17.633   0.493  51.642  1.00  0.00     0.158 A 
ENDBRANCH  20  23
ENDBRANCH   7  19
TORSDOF 5
ENDMDL
MODEL 3
REMARK VINA RESULT:      -7.9      2.527      6.138
REMARK  5 active torsions:
REMARK  status: ('A' for Active; 'I' for Inactive)
REMARK    1  A    between atoms: C6_7  and  N2_8 
REMARK       I    between atoms: N2_8  and  C7_9 
REMARK    2  A    between atoms: C7_9  and  C8_11 
REMARK    3  A    between atoms: C14_18  and  N3_19 
REMARK    4  A    between atoms: N3_19  and  C15_20 
REMARK    5  A    between atoms: C16_21  and  C17_22 
ROOT
HETATM    1  N1  UNL     1      18.903  -0.285  53.022  1.00  0.00    -0.191 NA
HETATM    2  C1  UNL     1      20.009  -0.164  52.706  1.00  0.00     0.101 C 
HETATM    3  C2  UNL     1      21.371  -0.027  52.302  1.00  0.00     0.062 C 
HETATM    4  C3  UNL     1      21.590   0.604  51.083  1.00  0.00     0.024 C 
HETATM    5  C4  UNL     1      22.159   1.724  50.516  1.00  0.00     0.004 C 
HETATM    6  C5  UNL     1      23.455   2.196  50.434  1.00  0.00     0.029 C 
HETATM    7  C6  UNL     1      24.498   2.792  51.113  1.00  0.00     0.035 C 
HETATM    8  C12 UNL     1      25.221   2.240  52.151  1.00  0.00     0.033 C 
HETATM    9  C13 UNL     1      25.173   1.651  53.383  1.00  0.00     0.052 C 
HETATM   10  C14 UNL     1      24.651   0.385  53.215  1.00  0.00     0.127 C 
HETATM   11  N4  UNL     1      23.330   0.494  53.197  1.00  0.00    -0.242 NA
HETATM   12  C18 UNL     1      22.450  -0.487  53.058  1.00  0.00     0.141 C 
ENDROOT
BRANCH  10  13
HETATM   13  N3  UNL     1      25.927  -0.267  53.165  1.00  0.00    -0.351 N 
HETATM   14  H10 UNL     1      26.137  -0.900  52.336  1.00  0.00     0.166 HD
BRANCH  13  15
HETATM   15  C15 UNL     1      26.936  -0.120  54.160  1.00  0.00     0.088 C 
HETATM   16  C16 UNL     1      28.009  -0.559  53.498  1.00  0.00     0.027 C 
BRANCH  16  17
HETATM   17  C17 UNL     1      29.435  -0.770  53.695  1.00  0.00     0.420 C 
HETATM   18  O3  UNL     1      30.572  -1.239  53.948  1.00  0.00    -0.426 OA
ENDBRANCH  16  17
ENDBRANCH  13  15
ENDBRANCH  10  13
BRANCH   7  19
HETATM   19  N2  UNL     1      24.819   4.107  50.660  1.00  0.00    -0.323 N 
HETATM   20  C7  UNL     1      25.936   4.078  49.801  1.00  0.00     0.258 C 
HETATM   21  O1  UNL     1      26.456   2.956  49.574  1.00  0.00    -0.267 OA
HETATM   22  H4  UNL     1      24.367   5.039  50.864  1.00  0.00     0.169 HD
BRANCH  20  23
HETATM   23  C8  UNL     1      26.517   5.257  49.167  1.00  0.00     0.056 A 
HETATM   24  C9  UNL     1      27.742   5.231  48.529  1.00  0.00     0.043 A 
HETATM   25  C10 UNL     1      27.912   6.544  48.076  1.00  0.00     0.142 A 
HETATM   26  O2  UNL     1      26.869   7.253  48.427  1.00  0.00    -0.334 OA
HETATM   27  C11 UNL     1      25.989   6.529  49.091  1.00  0.00     0.158 A 
ENDBRANCH  20  23
ENDBRANCH   7  19
TORSDOF 5
ENDMDL
MODEL 4
REMARK VINA RESULT:      -7.8      3.006      3.969
REMARK  5 active torsions:
REMARK  status: ('A' for Active; 'I' for Inactive)
REMARK    1  A    between atoms: C6_7  and  N2_8 
REMARK       I    between atoms: N2_8  and  C7_9 
REMARK    2  A    between atoms: C7_9  and  C8_11 
REMARK    3  A    between atoms: C14_18  and  N3_19 
REMARK    4  A    between atoms: N3_19  and  C15_20 
REMARK    5  A    between atoms: C16_21  and  C17_22 
ROOT
HETATM    1  N1  UNL     1      19.496   4.399  50.773  1.00  0.00    -0.191 NA
HETATM    2  C1  UNL     1      20.636   4.456  50.961  1.00  0.00     0.101 C 
HETATM    3  C2  UNL     1      22.040   4.535  51.209  1.00  0.00     0.062 C 
HETATM    4  C3  UNL     1      22.515   3.799  52.288  1.00  0.00     0.024 C 
HETATM    5  C4  UNL     1      23.342   2.746  52.616  1.00  0.00     0.004 C 
HETATM    6  C5  UNL     1      24.702   2.531  52.501  1.00  0.00     0.029 C 
HETATM    7  C6  UNL     1      25.743   2.249  51.642  1.00  0.00     0.035 C 
HETATM    8  C12 UNL     1      26.223   3.067  50.640  1.00  0.00     0.033 C 
HETATM    9  C13 UNL     1      25.920   3.797  49.526  1.00  0.00     0.052 C 
HETATM   10  C14 UNL     1      25.203   4.901  49.938  1.00  0.00     0.127 C 
HETATM   11  N4  UNL     1      23.935   4.534  50.062  1.00  0.00    -0.242 NA
HETATM   12  C18 UNL     1      22.917   5.296  50.436  1.00  0.00     0.141 C 
ENDROOT
BRANCH  10  13
HETATM   13  N3  UNL     1      26.338   5.778  49.969  1.00  0.00    -0.351 N 
HETATM   14  H10 UNL     1      27.024   5.685  50.777  1.00  0.00     0.166 HD
BRANCH  13  15
HETATM   15  C15 UNL     1      26.604   6.771  48.982  1.00  0.00     0.088 C 
HETATM   16  C16 UNL     1      26.600   7.877  49.729  1.00  0.00     0.027 C 
BRANCH  16  17
HETATM   17  C17 UNL     1      26.774   9.316  49.598  1.00  0.00     0.420 C 
HETATM   18  O3  UNL     1      27.061  10.526  49.764  1.00  0.00    -0.426 OA
ENDBRANCH  16  17
ENDBRANCH  13  15
ENDBRANCH  10  13
BRANCH   7  19
HETATM   19  N2  UNL     1      26.349   0.973  51.851  1.00  0.00    -0.323 N 
HETATM   20  C7  UNL     1      27.460   1.085  52.711  1.00  0.00     0.258 C 
HETATM   21  O1  UNL     1      27.738   2.232  53.143  1.00  0.00    -0.267 OA
HETATM   22  H4  UNL     1      26.098   0.018  51.477  1.00  0.00     0.169 HD
BRANCH  20  23
HETATM   23  C8  UNL     1      28.296  -0.037  53.126  1.00  0.00     0.056 A 
HETATM   24  C9  UNL     1      29.549   0.134  53.679  1.00  0.00     0.043 A 
HETATM   25  C10 UNL     1      29.990  -1.172  53.923  1.00  0.00     0.142 A 
HETATM   26  O2  UNL     1      29.062  -2.012  53.539  1.00  0.00    -0.334 OA
HETATM   27  C11 UNL     1      28.011  -1.385  53.047  1.00  0.00     0.158 A 
ENDBRANCH  20  23
ENDBRANCH   7  19
TORSDOF 5
ENDMDL
MODEL 5
REMARK VINA RESULT:      -7.5      3.356      5.658
REMARK  5 active torsions:
REMARK  status: ('A' for Active; 'I' for Inactive)
REMARK    1  A    between atoms: C6_7  and  N2_8 
REMARK       I    between atoms: N2_8  and  C7_9 
REMARK    2  A    between atoms: C7_9  and  C8_11 
REMARK    3  A    between atoms: C14_18  and  N3_19 
REMARK    4  A    between atoms: N3_19  and  C15_20 
REMARK    5  A    between atoms: C16_21  and  C17_22 
ROOT
HETATM    1  N1  UNL     1      26.973   8.690  50.033  1.00  0.00    -0.191 NA
HETATM    2  C1  UNL     1      26.285   7.764  50.105  1.00  0.00     0.101 C 
HETATM    3  C2  UNL     1      25.431   6.621  50.176  1.00  0.00     0.062 C 
HETATM    4  C3  UNL     1      25.853   5.495  49.479  1.00  0.00     0.024 C 
HETATM    5  C4  UNL     1      26.259   4.188  49.652  1.00  0.00     0.004 C 
HETATM    6  C5  UNL     1      25.634   3.053  50.133  1.00  0.00     0.029 C 
HETATM    7  C6  UNL     1      25.178   2.389  51.253  1.00  0.00     0.035 C 
HETATM    8  C12 UNL     1      24.143   2.785  52.075  1.00  0.00     0.033 C 
HETATM    9  C13 UNL     1      23.622   3.786  52.845  1.00  0.00     0.052 C 
HETATM   10  C14 UNL     1      23.182   4.777  51.992  1.00  0.00     0.127 C 
HETATM   11  N4  UNL     1      24.226   5.535  51.684  1.00  0.00    -0.242 NA
HETATM   12  C18 UNL     1      24.234   6.597  50.891  1.00  0.00     0.141 C 
ENDROOT
BRANCH  10  13
HETATM   13  N3  UNL     1      21.819   4.335  51.985  1.00  0.00    -0.351 N 
HETATM   14  H10 UNL     1      21.495   3.686  52.764  1.00  0.00     0.166 HD
BRANCH  13  15
HETATM   15  C15 UNL     1      20.865   4.711  50.995  1.00  0.00     0.088 C 
HETATM   16  C16 UNL     1      21.348   4.075  49.925  1.00  0.00     0.027 C 
BRANCH  16  17
HETATM   17  C17 UNL     1      21.053   3.878  48.514  1.00  0.00     0.420 C 
HETATM   18  O3  UNL     1      20.877   3.413  47.361  1.00  0.00    -0.426 OA
ENDBRANCH  16  17
ENDBRANCH  13  15
ENDBRANCH  10  13
BRANCH   7  19
HETATM   19  N2  UNL     1      25.881   1.181  51.546  1.00  0.00    -0.323 N 
HETATM   20  C7  UNL     1      26.883   1.411  52.510  1.00  0.00     0.258 C 
HETATM   21  O1  UNL     1      27.003   2.584  52.945  1.00  0.00    -0.267 OA
HETATM   22  H4  UNL     1      25.763   0.203  51.168  1.00  0.00     0.169 HD
BRANCH  20  23
HETATM   23  C8  UNL     1      27.778   0.381  53.027  1.00  0.00     0.056 A 
HETATM   24  C9  UNL     1      29.007   0.675  53.584  1.00  0.00     0.043 A 
HETATM   25  C10 UNL     1      29.523  -0.577  53.940  1.00  0.00     0.142 A 
HETATM   26  O2  UNL     1      28.657  -1.502  53.612  1.00  0.00    -0.334 OA
HETATM   27  C11 UNL     1      27.579  -0.984  53.054  1.00  0.00     0.158 A 
ENDBRANCH  20  23
ENDBRANCH   7  19
TORSDOF 5
ENDMDL
MODEL 6
REMARK VINA RESULT:      -7.4      2.295      7.277
REMARK  5 active torsions:
REMARK  status: ('A' for Active; 'I' for Inactive)
REMARK    1  A    between atoms: C6_7  and  N2_8 
REMARK       I    between atoms: N2_8  and  C7_9 
REMARK    2  A    between atoms: C7_9  and  C8_11 
REMARK    3  A    between atoms: C14_18  and  N3_19 
REMARK    4  A    between atoms: N3_19  and  C15_20 
REMARK    5  A    between atoms: C16_21  and  C17_22 
ROOT
HETATM    1  N1  UNL     1      20.983  -1.753  54.919  1.00  0.00    -0.191 NA
HETATM    2  C1  UNL     1      21.721  -1.260  54.179  1.00  0.00     0.101 C 
HETATM    3  C2  UNL     1      22.633  -0.666  53.254  1.00  0.00     0.062 C 
HETATM    4  C3  UNL     1      22.123  -0.363  51.997  1.00  0.00     0.024 C 
HETATM    5  C4  UNL     1      21.850   0.691  51.152  1.00  0.00     0.004 C 
HETATM    6  C5  UNL     1      22.639   1.632  50.517  1.00  0.00     0.029 C 
HETATM    7  C6  UNL     1      23.391   2.779  50.668  1.00  0.00     0.035 C 
HETATM    8  C12 UNL     1      24.568   2.899  51.376  1.00  0.00     0.033 C 
HETATM    9  C13 UNL     1      25.200   2.708  52.573  1.00  0.00     0.052 C 
HETATM   10  C14 UNL     1      25.360   1.348  52.743  1.00  0.00     0.127 C 
HETATM   11  N4  UNL     1      24.230   0.869  53.244  1.00  0.00    -0.242 NA
HETATM   12  C18 UNL     1      23.967  -0.392  53.556  1.00  0.00     0.141 C 
ENDROOT
BRANCH  10  13
HETATM   13  N3  UNL     1      26.706   1.322  52.248  1.00  0.00    -0.351 N 
HETATM   14  H10 UNL     1      26.912   1.810  51.324  1.00  0.00     0.166 HD
BRANCH  13  15
HETATM   15  C15 UNL     1      27.789   0.682  52.917  1.00  0.00     0.088 C 
HETATM   16  C16 UNL     1      27.495  -0.602  52.699  1.00  0.00     0.027 C 
BRANCH  16  17
HETATM   17  C17 UNL     1      28.009  -1.932  52.991  1.00  0.00     0.420 C 
HETATM   18  O3  UNL     1      28.685  -2.918  53.375  1.00  0.00    -0.426 OA
ENDBRANCH  16  17
ENDBRANCH  13  15
ENDBRANCH  10  13
BRANCH   7  19
HETATM   19  N2  UNL     1      22.853   3.925  50.007  1.00  0.00    -0.323 N 
HETATM   20  C7  UNL     1      21.964   4.616  50.854  1.00  0.00     0.258 C 
HETATM   21  O1  UNL     1      21.787   4.146  52.006  1.00  0.00    -0.267 OA
HETATM   22  H4  UNL     1      23.017   4.303  49.035  1.00  0.00     0.169 HD
BRANCH  20  23
HETATM   23  C8  UNL     1      21.248   5.831  50.480  1.00  0.00     0.056 A 
HETATM   24  C9  UNL     1      21.731   7.095  50.755  1.00  0.00     0.043 A 
HETATM   25  C10 UNL     1      20.753   7.949  50.236  1.00  0.00     0.142 A 
HETATM   26  O2  UNL     1      19.795   7.229  49.709  1.00  0.00    -0.334 OA
HETATM   27  C11 UNL     1      20.037   5.938  49.826  1.00  0.00     0.158 A 
ENDBRANCH  20  23
ENDBRANCH   7  19
TORSDOF 5
ENDMDL
MODEL 7
REMARK VINA RESULT:      -7.4      1.614      6.556
REMARK  5 active torsions:
REMARK  status: ('A' for Active; 'I' for Inactive)
REMARK    1  A    between atoms: C6_7  and  N2_8 
REMARK       I    between atoms: N2_8  and  C7_9 
REMARK    2  A    between atoms: C7_9  and  C8_11 
REMARK    3  A    between atoms: C14_18  and  N3_19 
REMARK    4  A    between atoms: N3_19  and  C15_20 
REMARK    5  A    between atoms: C16_21  and  C17_22 
ROOT
HETATM    1  N1  UNL     1      18.905  -0.370  53.220  1.00  0.00    -0.191 NA
HETATM    2  C1  UNL     1      19.997  -0.259  52.858  1.00  0.00     0.101 C 
HETATM    3  C2  UNL     1      21.344  -0.134  52.399  1.00  0.00     0.062 C 
HETATM    4  C3  UNL     1      21.513   0.422  51.136  1.00  0.00     0.024 C 
HETATM    5  C4  UNL     1      22.049   1.511  50.481  1.00  0.00     0.004 C 
HETATM    6  C5  UNL     1      23.336   1.989  50.326  1.00  0.00     0.029 C 
HETATM    7  C6  UNL     1      24.394   2.636  50.930  1.00  0.00     0.035 C 
HETATM    8  C12 UNL     1      25.159   2.157  51.974  1.00  0.00     0.033 C 
HETATM    9  C13 UNL     1      25.160   1.645  53.241  1.00  0.00     0.052 C 
HETATM   10  C14 UNL     1      24.647   0.366  53.170  1.00  0.00     0.127 C 
HETATM   11  N4  UNL     1      23.325   0.461  53.192  1.00  0.00    -0.242 NA
HETATM   12  C18 UNL     1      22.453  -0.536  53.144  1.00  0.00     0.141 C 
ENDROOT
BRANCH  10  13
HETATM   13  N3  UNL     1      25.928  -0.276  53.116  1.00  0.00    -0.351 N 
HETATM   14  H10 UNL     1      26.135  -0.920  52.294  1.00  0.00     0.166 HD
BRANCH  13  15
HETATM   15  C15 UNL     1      26.947  -0.104  54.098  1.00  0.00     0.088 C 
HETATM   16  C16 UNL     1      28.003  -0.608  53.455  1.00  0.00     0.027 C 
BRANCH  16  17
HETATM   17  C17 UNL     1      29.425  -0.848  53.657  1.00  0.00     0.420 C 
HETATM   18  O3  UNL     1      30.545  -1.271  54.032  1.00  0.00    -0.426 OA
ENDBRANCH  16  17
ENDBRANCH  13  15
ENDBRANCH  10  13
BRANCH   7  19
HETATM   19  N2  UNL     1      24.684   3.923  50.385  1.00  0.00    -0.323 N 
HETATM   20  C7  UNL     1      24.005   4.930  51.101  1.00  0.00     0.258 C 
HETATM   21  O1  UNL     1      23.283   4.564  52.062  1.00  0.00    -0.267 OA
HETATM   22  H4  UNL     1      25.296   4.209  49.574  1.00  0.00     0.169 HD
BRANCH  20  23
HETATM   23  C8  UNL     1      24.090   6.355  50.797  1.00  0.00     0.056 A 
HETATM   24  C9  UNL     1      25.276   6.973  50.455  1.00  0.00     0.043 A 
HETATM   25  C10 UNL     1      24.912   8.309  50.252  1.00  0.00     0.142 A 
HETATM   26  O2  UNL     1      23.626   8.436  50.461  1.00  0.00    -0.334 OA
HETATM   27  C11 UNL     1      23.072   7.287  50.794  1.00  0.00     0.158 A 
ENDBRANCH  20  23
ENDBRANCH   7  19
TORSDOF 5
ENDMDL
MODEL 8
REMARK VINA RESULT:      -7.1      3.873      4.959
REMARK  5 active torsions:
REMARK  status: ('A' for Active; 'I' for Inactive)
REMARK    1  A    between atoms: C6_7  and  N2_8 
REMARK       I    between atoms: N2_8  and  C7_9 
REMARK    2  A    between atoms: C7_9  and  C8_11 
REMARK    3  A    between atoms: C14_18  and  N3_19 
REMARK    4  A    between atoms: N3_19  and  C15_20 
REMARK    5  A    between atoms: C16_21  and  C17_22 
ROOT
HETATM    1  N1  UNL     1      20.659   4.004  46.701  1.00  0.00    -0.191 NA
HETATM    2  C1  UNL     1      21.460   4.174  47.517  1.00  0.00     0.101 C 
HETATM    3  C2  UNL     1      22.436   4.388  48.537  1.00  0.00     0.062 C 
HETATM    4  C3  UNL     1      22.477   3.442  49.555  1.00  0.00     0.024 C 
HETATM    5  C4  UNL     1      23.284   2.477  50.121  1.00  0.00     0.004 C 
HETATM    6  C5  UNL     1      24.499   2.517  50.777  1.00  0.00     0.029 C 
HETATM    7  C6  UNL     1      25.864   2.670  50.642  1.00  0.00     0.035 C 
HETATM    8  C12 UNL     1      26.524   3.816  50.251  1.00  0.00     0.033 C 
HETATM    9  C13 UNL     1      26.641   4.794  49.304  1.00  0.00     0.052 C 
HETATM   10  C14 UNL     1      25.525   5.599  49.402  1.00  0.00     0.127 C 
HETATM   11  N4  UNL     1      24.551   5.023  48.711  1.00  0.00    -0.242 NA
HETATM   12  C18 UNL     1      23.314   5.471  48.549  1.00  0.00     0.141 C 
ENDROOT
BRANCH  10  13
HETATM   13  N3  UNL     1      26.160   6.587  50.224  1.00  0.00    -0.351 N 
HETATM   14  H10 UNL     1      26.866   6.261  50.950  1.00  0.00     0.166 HD
BRANCH  13  15
HETATM   15  C15 UNL     1      25.903   7.986  50.130  1.00  0.00     0.088 C 
HETATM   16  C16 UNL     1      27.096   8.435  49.733  1.00  0.00     0.027 C 
BRANCH  16  17
HETATM   17  C17 UNL     1      27.765   9.681  49.392  1.00  0.00     0.420 C 
HETATM   18  O3  UNL     1      28.543  10.564  48.954  1.00  0.00    -0.426 OA
ENDBRANCH  16  17
ENDBRANCH  13  15
ENDBRANCH  10  13
BRANCH   7  19
HETATM   19  N2  UNL     1      26.619   1.498  50.950  1.00  0.00    -0.323 N 
HETATM   20  C7  UNL     1      26.928   1.452  52.324  1.00  0.00     0.258 C 
HETATM   21  O1  UNL     1      26.512   2.399  53.038  1.00  0.00    -0.267 OA
HETATM   22  H4  UNL     1      26.959   0.712  50.332  1.00  0.00     0.169 HD
BRANCH  20  23
HETATM   23  C8  UNL     1      27.689   0.382  52.961  1.00  0.00     0.056 A 
HETATM   24  C9  UNL     1      28.948   0.580  53.493  1.00  0.00     0.043 A 
HETATM   25  C10 UNL     1      29.304  -0.679  53.990  1.00  0.00     0.142 A 
HETATM   26  O2  UNL     1      28.328  -1.519  53.758  1.00  0.00    -0.334 OA
HETATM   27  C11 UNL     1      27.321  -0.936  53.137  1.00  0.00     0.158 A 
ENDBRANCH  20  23
ENDBRANCH   7  19
TORSDOF 5
ENDMDL
MODEL 9
REMARK VINA RESULT:      -7.1      1.696      2.096
REMARK  5 active torsions:
REMARK  status: ('A' for Active; 'I' for Inactive)
REMARK    1  A    between atoms: C6_7  and  N2_8 
REMARK       I    between atoms: N2_8  and  C7_9 
REMARK    2  A    between atoms: C7_9  and  C8_11 
REMARK    3  A    between atoms: C14_18  and  N3_19 
REMARK    4  A    between atoms: N3_19  and  C15_20 
REMARK    5  A    between atoms: C16_21  and  C17_22 
ROOT
HETATM    1  N1  UNL     1      18.398   0.923  50.575  1.00  0.00    -0.191 NA
HETATM    2  C1  UNL     1      19.379   1.338  51.022  1.00  0.00     0.101 C 
HETATM    3  C2  UNL     1      20.585   1.850  51.592  1.00  0.00     0.062 C 
HETATM    4  C3  UNL     1      21.271   0.997  52.448  1.00  0.00     0.024 C 
HETATM    5  C4  UNL     1      22.458   0.309  52.590  1.00  0.00     0.004 C 
HETATM    6  C5  UNL     1      23.776   0.703  52.720  1.00  0.00     0.029 C 
HETATM    7  C6  UNL     1      24.885   1.209  52.073  1.00  0.00     0.035 C 
HETATM    8  C12 UNL     1      25.011   2.471  51.531  1.00  0.00     0.033 C 
HETATM    9  C13 UNL     1      24.483   3.401  50.680  1.00  0.00     0.052 C 
HETATM   10  C14 UNL     1      23.327   3.882  51.259  1.00  0.00     0.127 C 
HETATM   11  N4  UNL     1      22.349   3.035  50.967  1.00  0.00    -0.242 NA
HETATM   12  C18 UNL     1      21.078   3.129  51.330  1.00  0.00     0.141 C 
ENDROOT
BRANCH  10  13
HETATM   13  N3  UNL     1      23.950   5.040  51.830  1.00  0.00    -0.351 N 
HETATM   14  H10 UNL     1      24.108   5.059  52.882  1.00  0.00     0.166 HD
BRANCH  13  15
HETATM   15  C15 UNL     1      24.371   6.172  51.074  1.00  0.00     0.088 C 
HETATM   16  C16 UNL     1      23.194   6.720  50.764  1.00  0.00     0.027 C 
BRANCH  16  17
HETATM   17  C17 UNL     1      22.645   7.859  50.042  1.00  0.00     0.420 C 
HETATM   18  O3  UNL     1      22.035   8.899  49.694  1.00  0.00    -0.426 OA
ENDBRANCH  16  17
ENDBRANCH  13  15
ENDBRANCH  10  13
BRANCH   7  19
HETATM   19  N2  UNL     1      25.980   0.297  51.984  1.00  0.00    -0.323 N 
HETATM   20  C7  UNL     1      26.815   0.412  53.113  1.00  0.00     0.258 C 
HETATM   21  O1  UNL     1      26.488   1.255  53.986  1.00  0.00    -0.267 OA
HETATM   22  H4  UNL     1      26.236  -0.405  51.238  1.00  0.00     0.169 HD
BRANCH  20  23
HETATM   23  C8  UNL     1      28.021  -0.382  53.327  1.00  0.00     0.056 A 
HETATM   24  C9  UNL     1      29.223   0.180  53.710  1.00  0.00     0.043 A 
HETATM   25  C10 UNL     1      30.092  -0.913  53.798  1.00  0.00     0.142 A 
HETATM   26  O2  UNL     1      29.436  -2.004  53.492  1.00  0.00    -0.334 OA
HETATM   27  C11 UNL     1      28.176  -1.747  53.197  1.00  0.00     0.158 A 
ENDBRANCH  20  23
ENDBRANCH   7  19
TORSDOF 5
ENDMDL
