MODEL 1
REMARK VINA RESULT:      -8.6      0.000      0.000
REMARK  5 active torsions:
REMARK  status: ('A' for Active; 'I' for Inactive)
REMARK    1  A    between atoms: O1_2  and  C2_3 
REMARK    2  A    between atoms: C7_8  and  N1_9 
REMARK    3  A    between atoms: C11_15  and  C12_16 
REMARK       I    between atoms: C12_16  and  N3_18 
REMARK    4  A    between atoms: N3_18  and  C13_19 
REMARK    5  A    between atoms: C16_22  and  N4_23 
ROOT
HETATM    1  C12 UNL     1      24.017   2.792  50.868  1.00  0.00     0.254 C 
HETATM    2  O3  UNL     1      24.483   3.357  51.891  1.00  0.00    -0.270 OA
HETATM    3  N3  UNL     1      24.501   3.181  49.588  1.00  0.00    -0.325 N 
HETATM    4  H12 UNL     1      24.249   2.841  48.627  1.00  0.00     0.169 HD
ENDROOT
BRANCH   1   5
HETATM    5  C11 UNL     1      22.984   1.713  50.669  1.00  0.00     0.274 C 
HETATM    6  N1  UNL     1      22.161   1.644  51.863  1.00  0.00    -0.331 N 
HETATM    7  C8  UNL     1      21.463   2.864  52.167  1.00  0.00     0.110 C 
HETATM    8  C9  UNL     1      21.080   3.734  51.219  1.00  0.00     0.108 C 
HETATM    9  N2  UNL     1      21.373   3.442  49.839  1.00  0.00    -0.334 N 
HETATM   10  C10 UNL     1      22.070   2.214  49.587  1.00  0.00     0.254 C 
HETATM   11  H10 UNL     1      21.106   4.072  49.037  1.00  0.00     0.168 HD
HETATM   12  O2  UNL     1      21.894   1.613  48.491  1.00  0.00    -0.270 OA
BRANCH   6  13
HETATM   13  C7  UNL     1      21.930   0.579  52.778  1.00  0.00     0.069 A 
HETATM   14  C2  UNL     1      22.893   0.016  53.610  1.00  0.00     0.095 A 
HETATM   15  C3  UNL     1      22.560  -1.023  54.468  1.00  0.00     0.039 A 
HETATM   16  C4  UNL     1      21.281  -1.534  54.528  1.00  0.00     0.003 A 
HETATM   17  C5  UNL     1      20.296  -1.017  53.732  1.00  0.00     0.002 A 
HETATM   18  C6  UNL     1      20.662   0.012  52.894  1.00  0.00     0.032 A 
BRANCH  14  19
HETATM   19  O1  UNL     1      24.178   0.546  53.534  1.00  0.00    -0.354 OA
HETATM   20  C1  UNL     1      25.218  -0.343  53.150  1.00  0.00     0.210 C 
ENDBRANCH  14  19
ENDBRANCH   6  13
ENDBRANCH   1   5
BRANCH   3  21
HETATM   21  C13 UNL     1      25.477   4.158  49.268  1.00  0.00     0.034 A 
HETATM   22  C14 UNL     1      25.010   5.418  49.042  1.00  0.00     0.032 A 
HETATM   23  C15 UNL     1      25.892   6.423  48.725  1.00  0.00     0.031 A 
HETATM   24  C16 UNL     1      27.257   6.260  48.612  1.00  0.00     0.030 A 
HETATM   25  C21 UNL     1      27.644   4.959  48.855  1.00  0.00     0.031 A 
HETATM   26  C22 UNL     1      26.819   3.919  49.173  1.00  0.00     0.032 A 
BRANCH  24  27
HETATM   27  N4  UNL     1      28.179   7.299  48.286  1.00  0.00    -0.379 N 
HETATM   28  C17 UNL     1      29.207   6.952  47.323  1.00  0.00     0.138 C 
HETATM   29  C18 UNL     1      29.896   8.092  46.673  1.00  0.00     0.160 C 
HETATM   30  S1  UNL     1      30.235   9.425  47.766  1.00  0.00     0.147 S 
HETATM   31  O4  UNL     1      31.489   9.145  48.545  1.00  0.00    -0.228 OA
HETATM   32  O5  UNL     1      30.523  10.636  46.902  1.00  0.00    -0.228 OA
HETATM   33  C19 UNL     1      28.841   9.660  48.805  1.00  0.00     0.160 C 
HETATM   34  C20 UNL     1      27.936   8.536  48.978  1.00  0.00     0.138 C 
ENDBRANCH  24  27
ENDBRANCH   3  21
TORSDOF 5
ENDMDL
MODEL 2
REMARK VINA RESULT:      -8.6      3.286      4.889
REMARK  5 active torsions:
REMARK  status: ('A' for Active; 'I' for Inactive)
REMARK    1  A    between atoms: O1_2  and  C2_3 
REMARK    2  A    between atoms: C7_8  and  N1_9 
REMARK    3  A    between atoms: C11_15  and  C12_16 
REMARK       I    between atoms: C12_16  and  N3_18 
REMARK    4  A    between atoms: N3_18  and  C13_19 
REMARK    5  A    between atoms: C16_22  and  N4_23 
ROOT
HETATM    1  C12 UNL     1      26.744   2.075  52.808  1.00  0.00     0.254 C 
HETATM    2  O3  UNL     1      27.826   2.395  52.253  1.00  0.00    -0.270 OA
HETATM    3  N3  UNL     1      25.531   2.636  52.323  1.00  0.00    -0.325 N 
HETATM    4  H12 UNL     1      24.538   2.503  52.639  1.00  0.00     0.169 HD
ENDROOT
BRANCH   1   5
HETATM    5  C11 UNL     1      26.409   1.163  53.960  1.00  0.00     0.274 C 
HETATM    6  N1  UNL     1      25.540   0.108  53.468  1.00  0.00    -0.331 N 
HETATM    7  C8  UNL     1      26.124  -0.698  52.430  1.00  0.00     0.110 C 
HETATM    8  C9  UNL     1      27.447  -0.913  52.338  1.00  0.00     0.108 C 
HETATM    9  N2  UNL     1      28.323  -0.318  53.314  1.00  0.00    -0.334 N 
HETATM   10  C10 UNL     1      27.694   0.477  54.329  1.00  0.00     0.254 C 
HETATM   11  H10 UNL     1      29.371  -0.438  53.312  1.00  0.00     0.168 HD
HETATM   12  O2  UNL     1      28.229   0.569  55.468  1.00  0.00    -0.270 OA
BRANCH   6  13
HETATM   13  C7  UNL     1      24.217  -0.260  53.838  1.00  0.00     0.069 A 
HETATM   14  C2  UNL     1      23.062   0.115  53.157  1.00  0.00     0.095 A 
HETATM   15  C3  UNL     1      21.816  -0.300  53.604  1.00  0.00     0.039 A 
HETATM   16  C4  UNL     1      21.673  -1.088  54.726  1.00  0.00     0.003 A 
HETATM   17  C5  UNL     1      22.774  -1.486  55.433  1.00  0.00     0.002 A 
HETATM   18  C6  UNL     1      23.994  -1.056  54.960  1.00  0.00     0.032 A 
BRANCH  14  19
HETATM   19  O1  UNL     1      23.229   0.911  52.027  1.00  0.00    -0.354 OA
HETATM   20  C1  UNL     1      22.113   1.032  51.155  1.00  0.00     0.210 C 
ENDBRANCH  14  19
ENDBRANCH   6  13
ENDBRANCH   1   5
BRANCH   3  21
HETATM   21  C13 UNL     1      25.340   3.549  51.254  1.00  0.00     0.034 A 
HETATM   22  C14 UNL     1      24.262   4.376  51.360  1.00  0.00     0.032 A 
HETATM   23  C15 UNL     1      24.008   5.290  50.366  1.00  0.00     0.031 A 
HETATM   24  C16 UNL     1      24.775   5.446  49.230  1.00  0.00     0.030 A 
HETATM   25  C21 UNL     1      25.841   4.572  49.203  1.00  0.00     0.031 A 
HETATM   26  C22 UNL     1      26.147   3.644  50.157  1.00  0.00     0.032 A 
BRANCH  24  27
HETATM   27  N4  UNL     1      24.518   6.394  48.195  1.00  0.00    -0.379 N 
HETATM   28  C17 UNL     1      25.554   7.385  47.975  1.00  0.00     0.138 C 
HETATM   29  C18 UNL     1      25.505   8.095  46.675  1.00  0.00     0.160 C 
HETATM   30  S1  UNL     1      23.876   8.506  46.160  1.00  0.00     0.147 S 
HETATM   31  O4  UNL     1      23.426   9.769  46.838  1.00  0.00    -0.228 OA
HETATM   32  O5  UNL     1      23.950   8.813  44.678  1.00  0.00    -0.228 OA
HETATM   33  C19 UNL     1      22.823   7.148  46.510  1.00  0.00     0.160 C 
HETATM   34  C20 UNL     1      23.254   6.210  47.534  1.00  0.00     0.138 C 
ENDBRANCH  24  27
ENDBRANCH   3  21
TORSDOF 5
ENDMDL
MODEL 3
REMARK VINA RESULT:      -8.4      1.413      2.488
REMARK  5 active torsions:
REMARK  status: ('A' for Active; 'I' for Inactive)
REMARK    1  A    between atoms: O1_2  and  C2_3 
REMARK    2  A    between atoms: C7_8  and  N1_9 
REMARK    3  A    between atoms: C11_15  and  C12_16 
REMARK       I    between atoms: C12_16  and  N3_18 
REMARK    4  A    between atoms: N3_18  and  C13_19 
REMARK    5  A    between atoms: C16_22  and  N4_23 
ROOT
HETATM    1  C12 UNL     1      23.813   3.249  49.713  1.00  0.00     0.254 C 
HETATM    2  O3  UNL     1      23.153   4.059  49.012  1.00  0.00    -0.270 OA
HETATM    3  N3  UNL     1      25.188   3.517  49.962  1.00  0.00    -0.325 N 
HETATM    4  H12 UNL     1      25.903   2.980  50.511  1.00  0.00     0.169 HD
ENDROOT
BRANCH   1   5
HETATM    5  C11 UNL     1      23.457   1.958  50.404  1.00  0.00     0.274 C 
HETATM    6  N1  UNL     1      23.651   2.136  51.832  1.00  0.00    -0.331 N 
HETATM    7  C8  UNL     1      22.843   3.176  52.409  1.00  0.00     0.110 C 
HETATM    8  C9  UNL     1      21.641   3.518  51.916  1.00  0.00     0.108 C 
HETATM    9  N2  UNL     1      21.133   2.819  50.764  1.00  0.00    -0.334 N 
HETATM   10  C10 UNL     1      21.975   1.791  50.224  1.00  0.00     0.254 C 
HETATM   11  H10 UNL     1      20.200   3.026  50.317  1.00  0.00     0.168 HD
HETATM   12  O2  UNL     1      21.452   0.806  49.633  1.00  0.00    -0.270 OA
BRANCH   6  13
HETATM   13  C7  UNL     1      24.501   1.460  52.750  1.00  0.00     0.069 A 
HETATM   14  C2  UNL     1      24.237   0.218  53.320  1.00  0.00     0.095 A 
HETATM   15  C3  UNL     1      25.137  -0.354  54.208  1.00  0.00     0.039 A 
HETATM   16  C4  UNL     1      26.313   0.277  54.558  1.00  0.00     0.003 A 
HETATM   17  C5  UNL     1      26.622   1.500  54.028  1.00  0.00     0.002 A 
HETATM   18  C6  UNL     1      25.706   2.037  53.150  1.00  0.00     0.032 A 
BRANCH  14  19
HETATM   19  O1  UNL     1      23.046  -0.402  52.954  1.00  0.00    -0.354 OA
HETATM   20  C1  UNL     1      21.949  -0.266  53.847  1.00  0.00     0.210 C 
ENDBRANCH  14  19
ENDBRANCH   6  13
ENDBRANCH   1   5
BRANCH   3  21
HETATM   21  C13 UNL     1      25.972   4.613  49.520  1.00  0.00     0.034 A 
HETATM   22  C14 UNL     1      27.165   4.299  48.941  1.00  0.00     0.032 A 
HETATM   23  C15 UNL     1      27.984   5.305  48.486  1.00  0.00     0.031 A 
HETATM   24  C16 UNL     1      27.694   6.651  48.570  1.00  0.00     0.030 A 
HETATM   25  C21 UNL     1      26.472   6.878  49.168  1.00  0.00     0.031 A 
HETATM   26  C22 UNL     1      25.615   5.926  49.639  1.00  0.00     0.032 A 
BRANCH  24  27
HETATM   27  N4  UNL     1      28.538   7.699  48.098  1.00  0.00    -0.379 N 
HETATM   28  C17 UNL     1      29.934   7.606  48.480  1.00  0.00     0.138 C 
HETATM   29  C18 UNL     1      30.879   8.423  47.683  1.00  0.00     0.160 C 
HETATM   30  S1  UNL     1      30.261  10.016  47.277  1.00  0.00     0.147 S 
HETATM   31  O4  UNL     1      30.463  10.956  48.431  1.00  0.00    -0.228 OA
HETATM   32  O5  UNL     1      31.114  10.539  46.139  1.00  0.00    -0.228 OA
HETATM   33  C19 UNL     1      28.572   9.860  46.829  1.00  0.00     0.160 C 
HETATM   34  C20 UNL     1      27.855   8.692  47.312  1.00  0.00     0.138 C 
ENDBRANCH  24  27
ENDBRANCH   3  21
TORSDOF 5
ENDMDL
MODEL 4
REMARK VINA RESULT:      -8.3      1.701      2.111
REMARK  5 active torsions:
REMARK  status: ('A' for Active; 'I' for Inactive)
REMARK    1  A    between atoms: O1_2  and  C2_3 
REMARK    2  A    between atoms: C7_8  and  N1_9 
REMARK    3  A    between atoms: C11_15  and  C12_16 
REMARK       I    between atoms: C12_16  and  N3_18 
REMARK    4  A    between atoms: N3_18  and  C13_19 
REMARK    5  A    between atoms: C16_22  and  N4_23 
ROOT
HETATM    1  C12 UNL     1      25.497   3.440  50.452  1.00  0.00     0.254 C 
HETATM    2  O3  UNL     1      26.537   3.252  51.133  1.00  0.00    -0.270 OA
HETATM    3  N3  UNL     1      25.526   4.406  49.407  1.00  0.00    -0.325 N 
HETATM    4  H12 UNL     1      24.780   4.710  48.733  1.00  0.00     0.169 HD
ENDROOT
BRANCH   1   5
HETATM    5  C11 UNL     1      24.118   2.833  50.488  1.00  0.00     0.274 C 
HETATM    6  N1  UNL     1      23.762   2.593  51.875  1.00  0.00    -0.331 N 
HETATM    7  C8  UNL     1      23.737   3.778  52.689  1.00  0.00     0.110 C 
HETATM    8  C9  UNL     1      23.446   4.992  52.192  1.00  0.00     0.108 C 
HETATM    9  N2  UNL     1      23.144   5.120  50.789  1.00  0.00    -0.334 N 
HETATM   10  C10 UNL     1      23.181   3.911  50.021  1.00  0.00     0.254 C 
HETATM   11  H10 UNL     1      22.905   6.036  50.323  1.00  0.00     0.168 HD
HETATM   12  O2  UNL     1      22.444   3.798  49.003  1.00  0.00    -0.270 OA
BRANCH   6  13
HETATM   13  C7  UNL     1      23.436   1.390  52.561  1.00  0.00     0.069 A 
HETATM   14  C2  UNL     1      24.361   0.492  53.086  1.00  0.00     0.095 A 
HETATM   15  C3  UNL     1      23.935  -0.655  53.739  1.00  0.00     0.039 A 
HETATM   16  C4  UNL     1      22.597  -0.950  53.891  1.00  0.00     0.003 A 
HETATM   17  C5  UNL     1      21.645  -0.102  53.394  1.00  0.00     0.002 A 
HETATM   18  C6  UNL     1      22.104   1.027  52.753  1.00  0.00     0.032 A 
BRANCH  14  19
HETATM   19  O1  UNL     1      25.708   0.808  52.922  1.00  0.00    -0.354 OA
HETATM   20  C1  UNL     1      26.499  -0.113  52.183  1.00  0.00     0.210 C 
ENDBRANCH  14  19
ENDBRANCH   6  13
ENDBRANCH   1   5
BRANCH   3  21
HETATM   21  C13 UNL     1      26.600   5.233  48.993  1.00  0.00     0.034 A 
HETATM   22  C14 UNL     1      26.366   6.575  49.018  1.00  0.00     0.032 A 
HETATM   23  C15 UNL     1      27.356   7.445  48.631  1.00  0.00     0.031 A 
HETATM   24  C16 UNL     1      28.611   7.063  48.203  1.00  0.00     0.030 A 
HETATM   25  C21 UNL     1      28.763   5.693  48.209  1.00  0.00     0.031 A 
HETATM   26  C22 UNL     1      27.820   4.779  48.581  1.00  0.00     0.032 A 
BRANCH  24  27
HETATM   27  N4  UNL     1      29.645   7.961  47.803  1.00  0.00    -0.379 N 
HETATM   28  C17 UNL     1      29.206   9.180  47.152  1.00  0.00     0.138 C 
HETATM   29  C18 UNL     1      30.196  10.282  47.106  1.00  0.00     0.160 C 
HETATM   30  S1  UNL     1      31.835   9.741  46.778  1.00  0.00     0.147 S 
HETATM   31  O4  UNL     1      32.025   9.543  45.300  1.00  0.00    -0.228 OA
HETATM   32  O5  UNL     1      32.759  10.871  47.185  1.00  0.00    -0.228 OA
HETATM   33  C19 UNL     1      32.130   8.273  47.692  1.00  0.00     0.160 C 
HETATM   34  C20 UNL     1      30.973   7.499  48.111  1.00  0.00     0.138 C 
ENDBRANCH  24  27
ENDBRANCH   3  21
TORSDOF 5
ENDMDL
MODEL 5
REMARK VINA RESULT:      -8.1      3.485     10.618
REMARK  5 active torsions:
REMARK  status: ('A' for Active; 'I' for Inactive)
REMARK    1  A    between atoms: O1_2  and  C2_3 
REMARK    2  A    between atoms: C7_8  and  N1_9 
REMARK    3  A    between atoms: C11_15  and  C12_16 
REMARK       I    between atoms: C12_16  and  N3_18 
REMARK    4  A    between atoms: N3_18  and  C13_19 
REMARK    5  A    between atoms: C16_22  and  N4_23 
ROOT
HETATM    1  C12 UNL     1      29.964   5.914  47.727  1.00  0.00     0.254 C 
HETATM    2  O3  UNL     1      30.223   4.740  48.098  1.00  0.00    -0.270 OA
HETATM    3  N3  UNL     1      28.648   6.420  47.918  1.00  0.00    -0.325 N 
HETATM    4  H12 UNL     1      28.232   7.355  47.683  1.00  0.00     0.169 HD
ENDROOT
BRANCH   1   5
HETATM    5  C11 UNL     1      30.790   6.993  47.076  1.00  0.00     0.274 C 
HETATM    6  N1  UNL     1      31.195   7.938  48.102  1.00  0.00    -0.331 N 
HETATM    7  C8  UNL     1      31.985   7.360  49.154  1.00  0.00     0.110 C 
HETATM    8  C9  UNL     1      32.788   6.301  48.959  1.00  0.00     0.108 C 
HETATM    9  N2  UNL     1      32.867   5.715  47.646  1.00  0.00    -0.334 N 
HETATM   10  C10 UNL     1      32.060   6.326  46.630  1.00  0.00     0.254 C 
HETATM   11  H10 UNL     1      33.472   4.883  47.410  1.00  0.00     0.168 HD
HETATM   12  O2  UNL     1      32.437   6.283  45.426  1.00  0.00    -0.270 OA
BRANCH   6  13
HETATM   13  C7  UNL     1      30.942   9.331  48.240  1.00  0.00     0.069 A 
HETATM   14  C2  UNL     1      29.834   9.884  48.876  1.00  0.00     0.095 A 
HETATM   15  C3  UNL     1      29.683  11.261  48.955  1.00  0.00     0.039 A 
HETATM   16  C4  UNL     1      30.611  12.126  48.413  1.00  0.00     0.003 A 
HETATM   17  C5  UNL     1      31.718  11.636  47.777  1.00  0.00     0.002 A 
HETATM   18  C6  UNL     1      31.835  10.265  47.718  1.00  0.00     0.032 A 
BRANCH  14  19
HETATM   19  O1  UNL     1      28.909   8.994  49.416  1.00  0.00    -0.354 OA
HETATM   20  C1  UNL     1      27.761   9.558  50.036  1.00  0.00     0.210 C 
ENDBRANCH  14  19
ENDBRANCH   6  13
ENDBRANCH   1   5
BRANCH   3  21
HETATM   21  C13 UNL     1      27.523   5.774  48.490  1.00  0.00     0.034 A 
HETATM   22  C14 UNL     1      26.410   6.543  48.653  1.00  0.00     0.032 A 
HETATM   23  C15 UNL     1      25.277   5.991  49.201  1.00  0.00     0.031 A 
HETATM   24  C16 UNL     1      25.166   4.680  49.615  1.00  0.00     0.030 A 
HETATM   25  C21 UNL     1      26.333   3.975  49.415  1.00  0.00     0.031 A 
HETATM   26  C22 UNL     1      27.489   4.464  48.877  1.00  0.00     0.032 A 
BRANCH  24  27
HETATM   27  N4  UNL     1      23.992   4.100  50.182  1.00  0.00    -0.379 N 
HETATM   28  C17 UNL     1      23.516   4.710  51.409  1.00  0.00     0.138 C 
HETATM   29  C18 UNL     1      22.113   4.409  51.780  1.00  0.00     0.160 C 
HETATM   30  S1  UNL     1      21.648   2.743  51.477  1.00  0.00     0.147 S 
HETATM   31  O4  UNL     1      22.107   1.867  52.608  1.00  0.00    -0.228 OA
HETATM   32  O5  UNL     1      20.133   2.702  51.485  1.00  0.00    -0.228 OA
HETATM   33  C19 UNL     1      22.321   2.249  49.934  1.00  0.00     0.160 C 
HETATM   34  C20 UNL     1      23.469   2.988  49.435  1.00  0.00     0.138 C 
ENDBRANCH  24  27
ENDBRANCH   3  21
TORSDOF 5
ENDMDL
MODEL 6
REMARK VINA RESULT:      -8.1      5.861      8.248
REMARK  5 active torsions:
REMARK  status: ('A' for Active; 'I' for Inactive)
REMARK    1  A    between atoms: O1_2  and  C2_3 
REMARK    2  A    between atoms: C7_8  and  N1_9 
REMARK    3  A    between atoms: C11_15  and  C12_16 
REMARK       I    between atoms: C12_16  and  N3_18 
REMARK    4  A    between atoms: N3_18  and  C13_19 
REMARK    5  A    between atoms: C16_22  and  N4_23 
ROOT
HETATM    1  C12 UNL     1      18.698   2.028  51.863  1.00  0.00     0.254 C 
HETATM    2  O3  UNL     1      19.174   3.116  52.277  1.00  0.00    -0.270 OA
HETATM    3  N3  UNL     1      19.542   0.885  51.812  1.00  0.00    -0.325 N 
HETATM    4  H12 UNL     1      19.346  -0.100  51.503  1.00  0.00     0.169 HD
ENDROOT
BRANCH   1   5
HETATM    5  C11 UNL     1      17.333   1.624  51.368  1.00  0.00     0.274 C 
HETATM    6  N1  UNL     1      16.552   2.828  51.150  1.00  0.00    -0.331 N 
HETATM    7  C8  UNL     1      17.117   3.728  50.181  1.00  0.00     0.110 C 
HETATM    8  C9  UNL     1      17.873   3.304  49.155  1.00  0.00     0.108 C 
HETATM    9  N2  UNL     1      18.133   1.895  49.011  1.00  0.00    -0.334 N 
HETATM   10  C10 UNL     1      17.548   1.039  50.001  1.00  0.00     0.254 C 
HETATM   11  H10 UNL     1      18.715   1.482  48.234  1.00  0.00     0.168 HD
HETATM   12  O2  UNL     1      17.242  -0.147  49.696  1.00  0.00    -0.270 OA
BRANCH   6  13
HETATM   13  C7  UNL     1      15.329   3.266  51.730  1.00  0.00     0.069 A 
HETATM   14  C2  UNL     1      14.061   3.011  51.214  1.00  0.00     0.095 A 
HETATM   15  C3  UNL     1      12.930   3.486  51.862  1.00  0.00     0.039 A 
HETATM   16  C4  UNL     1      13.014   4.221  53.026  1.00  0.00     0.003 A 
HETATM   17  C5  UNL     1      14.235   4.501  53.576  1.00  0.00     0.002 A 
HETATM   18  C6  UNL     1      15.335   4.013  52.907  1.00  0.00     0.032 A 
BRANCH  14  19
HETATM   19  O1  UNL     1      13.998   2.267  50.039  1.00  0.00    -0.354 OA
HETATM   20  C1  UNL     1      13.672   0.890  50.166  1.00  0.00     0.210 C 
ENDBRANCH  14  19
ENDBRANCH   6  13
ENDBRANCH   1   5
BRANCH   3  21
HETATM   21  C13 UNL     1      20.909   0.774  52.173  1.00  0.00     0.034 A 
HETATM   22  C14 UNL     1      21.806   1.289  51.286  1.00  0.00     0.032 A 
HETATM   23  C15 UNL     1      23.150   1.220  51.563  1.00  0.00     0.031 A 
HETATM   24  C16 UNL     1      23.689   0.655  52.701  1.00  0.00     0.030 A 
HETATM   25  C21 UNL     1      22.714   0.159  53.541  1.00  0.00     0.031 A 
HETATM   26  C22 UNL     1      21.367   0.196  53.324  1.00  0.00     0.032 A 
BRANCH  24  27
HETATM   27  N4  UNL     1      25.082   0.582  52.996  1.00  0.00    -0.379 N 
HETATM   28  C17 UNL     1      25.683  -0.733  52.888  1.00  0.00     0.138 C 
HETATM   29  C18 UNL     1      27.161  -0.764  52.782  1.00  0.00     0.160 C 
HETATM   30  S1  UNL     1      27.964   0.405  53.820  1.00  0.00     0.147 S 
HETATM   31  O4  UNL     1      28.079  -0.140  55.215  1.00  0.00    -0.228 OA
HETATM   32  O5  UNL     1      29.378   0.556  53.296  1.00  0.00    -0.228 OA
HETATM   33  C19 UNL     1      27.065   1.910  53.761  1.00  0.00     0.160 C 
HETATM   34  C20 UNL     1      25.670   1.844  53.359  1.00  0.00     0.138 C 
ENDBRANCH  24  27
ENDBRANCH   3  21
TORSDOF 5
ENDMDL
MODEL 7
REMARK VINA RESULT:      -7.9      1.343      2.092
REMARK  5 active torsions:
REMARK  status: ('A' for Active; 'I' for Inactive)
REMARK    1  A    between atoms: O1_2  and  C2_3 
REMARK    2  A    between atoms: C7_8  and  N1_9 
REMARK    3  A    between atoms: C11_15  and  C12_16 
REMARK       I    between atoms: C12_16  and  N3_18 
REMARK    4  A    between atoms: N3_18  and  C13_19 
REMARK    5  A    between atoms: C16_22  and  N4_23 
ROOT
HETATM    1  C12 UNL     1      24.669   3.333  50.580  1.00  0.00     0.254 C 
HETATM    2  O3  UNL     1      25.480   3.464  51.533  1.00  0.00    -0.270 OA
HETATM    3  N3  UNL     1      24.892   4.070  49.384  1.00  0.00    -0.325 N 
HETATM    4  H12 UNL     1      24.345   4.105  48.487  1.00  0.00     0.169 HD
ENDROOT
BRANCH   1   5
HETATM    5  C11 UNL     1      23.418   2.513  50.398  1.00  0.00     0.274 C 
HETATM    6  N1  UNL     1      22.783   2.356  51.695  1.00  0.00    -0.331 N 
HETATM    7  C8  UNL     1      22.405   3.594  52.318  1.00  0.00     0.110 C 
HETATM    8  C9  UNL     1      22.073   4.689  51.613  1.00  0.00     0.108 C 
HETATM    9  N2  UNL     1      22.094   4.627  50.174  1.00  0.00    -0.334 N 
HETATM   10  C10 UNL     1      22.477   3.371  49.600  1.00  0.00     0.254 C 
HETATM   11  H10 UNL     1      21.847   5.440  49.549  1.00  0.00     0.168 HD
HETATM   12  O2  UNL     1      22.022   3.038  48.471  1.00  0.00    -0.270 OA
BRANCH   6  13
HETATM   13  C7  UNL     1      22.476   1.189  52.448  1.00  0.00     0.069 A 
HETATM   14  C2  UNL     1      21.204   0.641  52.592  1.00  0.00     0.095 A 
HETATM   15  C3  UNL     1      21.014  -0.504  53.352  1.00  0.00     0.039 A 
HETATM   16  C4  UNL     1      22.062  -1.137  53.987  1.00  0.00     0.003 A 
HETATM   17  C5  UNL     1      23.332  -0.641  53.879  1.00  0.00     0.002 A 
HETATM   18  C6  UNL     1      23.484   0.496  53.117  1.00  0.00     0.032 A 
BRANCH  14  19
HETATM   19  O1  UNL     1      20.160   1.295  51.943  1.00  0.00    -0.354 OA
HETATM   20  C1  UNL     1      19.754   0.769  50.688  1.00  0.00     0.210 C 
ENDBRANCH  14  19
ENDBRANCH   6  13
ENDBRANCH   1   5
BRANCH   3  21
HETATM   21  C13 UNL     1      25.939   4.977  49.081  1.00  0.00     0.034 A 
HETATM   22  C14 UNL     1      27.160   4.422  48.839  1.00  0.00     0.032 A 
HETATM   23  C15 UNL     1      28.227   5.233  48.539  1.00  0.00     0.031 A 
HETATM   24  C16 UNL     1      28.168   6.609  48.460  1.00  0.00     0.030 A 
HETATM   25  C21 UNL     1      26.901   7.086  48.718  1.00  0.00     0.031 A 
HETATM   26  C22 UNL     1      25.802   6.335  49.021  1.00  0.00     0.032 A 
BRANCH  24  27
HETATM   27  N4  UNL     1      29.271   7.457  48.147  1.00  0.00    -0.379 N 
HETATM   28  C17 UNL     1      30.133   7.002  47.073  1.00  0.00     0.138 C 
HETATM   29  C18 UNL     1      31.011   8.030  46.466  1.00  0.00     0.160 C 
HETATM   30  S1  UNL     1      31.704   9.142  47.637  1.00  0.00     0.147 S 
HETATM   31  O4  UNL     1      32.914   8.525  48.278  1.00  0.00    -0.228 OA
HETATM   32  O5  UNL     1      32.193  10.347  46.859  1.00  0.00    -0.228 OA
HETATM   33  C19 UNL     1      30.466   9.559  48.808  1.00  0.00     0.160 C 
HETATM   34  C20 UNL     1      29.350   8.640  48.961  1.00  0.00     0.138 C 
ENDBRANCH  24  27
ENDBRANCH   3  21
TORSDOF 5
ENDMDL
MODEL 8
REMARK VINA RESULT:      -7.9      4.702      7.630
REMARK  5 active torsions:
REMARK  status: ('A' for Active; 'I' for Inactive)
REMARK    1  A    between atoms: O1_2  and  C2_3 
REMARK    2  A    between atoms: C7_8  and  N1_9 
REMARK    3  A    between atoms: C11_15  and  C12_16 
REMARK       I    between atoms: C12_16  and  N3_18 
REMARK    4  A    between atoms: N3_18  and  C13_19 
REMARK    5  A    between atoms: C16_22  and  N4_23 
ROOT
HETATM    1  C12 UNL     1      21.641   3.093  48.166  1.00  0.00     0.254 C 
HETATM    2  O3  UNL     1      22.235   2.204  47.504  1.00  0.00    -0.270 OA
HETATM    3  N3  UNL     1      22.075   3.367  49.493  1.00  0.00    -0.325 N 
HETATM    4  H12 UNL     1      21.721   4.056  50.202  1.00  0.00     0.169 HD
ENDROOT
BRANCH   1   5
HETATM    5  C11 UNL     1      20.485   4.008  47.855  1.00  0.00     0.274 C 
HETATM    6  N1  UNL     1      20.991   5.366  47.757  1.00  0.00    -0.331 N 
HETATM    7  C8  UNL     1      21.981   5.551  46.731  1.00  0.00     0.110 C 
HETATM    8  C9  UNL     1      22.006   4.814  45.607  1.00  0.00     0.108 C 
HETATM    9  N2  UNL     1      21.005   3.797  45.414  1.00  0.00    -0.334 N 
HETATM   10  C10 UNL     1      20.040   3.651  46.465  1.00  0.00     0.254 C 
HETATM   11  H10 UNL     1      20.955   3.178  44.562  1.00  0.00     0.168 HD
HETATM   12  O2  UNL     1      18.880   3.238  46.190  1.00  0.00    -0.270 OA
BRANCH   6  13
HETATM   13  C7  UNL     1      20.676   6.537  48.501  1.00  0.00     0.069 A 
HETATM   14  C2  UNL     1      21.375   6.989  49.616  1.00  0.00     0.095 A 
HETATM   15  C3  UNL     1      20.981   8.147  50.270  1.00  0.00     0.039 A 
HETATM   16  C4  UNL     1      19.895   8.886  49.850  1.00  0.00     0.003 A 
HETATM   17  C5  UNL     1      19.173   8.487  48.759  1.00  0.00     0.002 A 
HETATM   18  C6  UNL     1      19.592   7.333  48.134  1.00  0.00     0.032 A 
BRANCH  14  19
HETATM   19  O1  UNL     1      22.467   6.229  50.025  1.00  0.00    -0.354 OA
HETATM   20  C1  UNL     1      23.755   6.794  49.825  1.00  0.00     0.210 C 
ENDBRANCH  14  19
ENDBRANCH   6  13
ENDBRANCH   1   5
BRANCH   3  21
HETATM   21  C13 UNL     1      23.127   2.761  50.225  1.00  0.00     0.034 A 
HETATM   22  C14 UNL     1      24.378   3.244  49.986  1.00  0.00     0.032 A 
HETATM   23  C15 UNL     1      25.452   2.710  50.655  1.00  0.00     0.031 A 
HETATM   24  C16 UNL     1      25.371   1.690  51.581  1.00  0.00     0.030 A 
HETATM   25  C21 UNL     1      24.073   1.262  51.763  1.00  0.00     0.031 A 
HETATM   26  C22 UNL     1      22.966   1.750  51.130  1.00  0.00     0.032 A 
BRANCH  24  27
HETATM   27  N4  UNL     1      26.481   1.132  52.282  1.00  0.00    -0.379 N 
HETATM   28  C17 UNL     1      26.422  -0.297  52.522  1.00  0.00     0.138 C 
HETATM   29  C18 UNL     1      27.709  -0.949  52.863  1.00  0.00     0.160 C 
HETATM   30  S1  UNL     1      28.719   0.007  53.937  1.00  0.00     0.147 S 
HETATM   31  O4  UNL     1      28.277  -0.180  55.361  1.00  0.00    -0.228 OA
HETATM   32  O5  UNL     1      30.120  -0.562  53.840  1.00  0.00    -0.228 OA
HETATM   33  C19 UNL     1      28.641   1.683  53.427  1.00  0.00     0.160 C 
HETATM   34  C20 UNL     1      27.489   2.094  52.642  1.00  0.00     0.138 C 
ENDBRANCH  24  27
ENDBRANCH   3  21
TORSDOF 5
ENDMDL
MODEL 9
REMARK VINA RESULT:      -7.8      3.493     10.101
REMARK  5 active torsions:
REMARK  status: ('A' for Active; 'I' for Inactive)
REMARK    1  A    between atoms: O1_2  and  C2_3 
REMARK    2  A    between atoms: C7_8  and  N1_9 
REMARK    3  A    between atoms: C11_15  and  C12_16 
REMARK       I    between atoms: C12_16  and  N3_18 
REMARK    4  A    between atoms: N3_18  and  C13_19 
REMARK    5  A    between atoms: C16_22  and  N4_23 
ROOT
HETATM    1  C12 UNL     1      26.160   8.375  49.511  1.00  0.00     0.254 C 
HETATM    2  O3  UNL     1      24.996   8.823  49.348  1.00  0.00    -0.270 OA
HETATM    3  N3  UNL     1      26.323   7.027  49.937  1.00  0.00    -0.325 N 
HETATM    4  H12 UNL     1      27.191   6.469  50.130  1.00  0.00     0.169 HD
ENDROOT
BRANCH   1   5
HETATM    5  C11 UNL     1      27.529   8.982  49.348  1.00  0.00     0.274 C 
HETATM    6  N1  UNL     1      28.243   8.231  48.330  1.00  0.00    -0.331 N 
HETATM    7  C8  UNL     1      27.606   8.239  47.040  1.00  0.00     0.110 C 
HETATM    8  C9  UNL     1      26.845   9.261  46.615  1.00  0.00     0.108 C 
HETATM    9  N2  UNL     1      26.653  10.398  47.478  1.00  0.00    -0.334 N 
HETATM   10  C10 UNL     1      27.307  10.343  48.753  1.00  0.00     0.254 C 
HETATM   11  H10 UNL     1      26.071  11.239  47.219  1.00  0.00     0.168 HD
HETATM   12  O2  UNL     1      27.665  11.415  49.315  1.00  0.00    -0.270 OA
BRANCH   6  13
HETATM   13  C7  UNL     1      29.457   7.493  48.393  1.00  0.00     0.069 A 
HETATM   14  C2  UNL     1      30.668   7.984  48.870  1.00  0.00     0.095 A 
HETATM   15  C3  UNL     1      31.797   7.177  48.887  1.00  0.00     0.039 A 
HETATM   16  C4  UNL     1      31.764   5.874  48.437  1.00  0.00     0.003 A 
HETATM   17  C5  UNL     1      30.600   5.340  47.958  1.00  0.00     0.002 A 
HETATM   18  C6  UNL     1      29.500   6.170  47.956  1.00  0.00     0.032 A 
BRANCH  14  19
HETATM   19  O1  UNL     1      30.680   9.302  49.319  1.00  0.00    -0.354 OA
HETATM   20  C1  UNL     1      31.108  10.293  48.395  1.00  0.00     0.210 C 
ENDBRANCH  14  19
ENDBRANCH   6  13
ENDBRANCH   1   5
BRANCH   3  21
HETATM   21  C13 UNL     1      25.326   6.059  50.222  1.00  0.00     0.034 A 
HETATM   22  C14 UNL     1      25.376   4.915  49.485  1.00  0.00     0.032 A 
HETATM   23  C15 UNL     1      24.445   3.928  49.700  1.00  0.00     0.031 A 
HETATM   24  C16 UNL     1      23.428   3.998  50.630  1.00  0.00     0.030 A 
HETATM   25  C21 UNL     1      23.451   5.186  51.330  1.00  0.00     0.031 A 
HETATM   26  C22 UNL     1      24.347   6.203  51.163  1.00  0.00     0.032 A 
BRANCH  24  27
HETATM   27  N4  UNL     1      22.460   2.977  50.861  1.00  0.00    -0.379 N 
HETATM   28  C17 UNL     1      21.706   3.088  52.095  1.00  0.00     0.138 C 
HETATM   29  C18 UNL     1      20.448   2.307  52.158  1.00  0.00     0.160 C 
HETATM   30  S1  UNL     1      20.575   0.711  51.434  1.00  0.00     0.147 S 
HETATM   31  O4  UNL     1      21.190  -0.250  52.412  1.00  0.00    -0.228 OA
HETATM   32  O5  UNL     1      19.160   0.229  51.186  1.00  0.00    -0.228 OA
HETATM   33  C19 UNL     1      21.505   0.844  49.953  1.00  0.00     0.160 C 
HETATM   34  C20 UNL     1      22.392   1.988  49.818  1.00  0.00     0.138 C 
ENDBRANCH  24  27
ENDBRANCH   3  21
TORSDOF 5
ENDMDL
