MODEL 1
REMARK VINA RESULT:     -10.9      0.000      0.000
REMARK  1 active torsions:
REMARK  status: ('A' for Active; 'I' for Inactive)
REMARK    1  A    between atoms: N2_27  and  C24_28 
ROOT
HETATM    1  N1  UNL     1      29.371   0.668  53.833  1.00  0.00    -0.191 NA
HETATM    2  C1  UNL     1      28.230   0.527  53.764  1.00  0.00     0.099 C 
HETATM    3  C2  UNL     1      26.813   0.361  53.660  1.00  0.00     0.045 A 
HETATM    4  C3  UNL     1      26.224  -0.531  54.544  1.00  0.00     0.023 A 
HETATM    5  C4  UNL     1      24.861  -0.705  54.460  1.00  0.00     0.014 A 
HETATM    6  C5  UNL     1      24.017  -0.073  53.575  1.00  0.00    -0.015 A 
HETATM    7  C6  UNL     1      24.644   0.803  52.716  1.00  0.00    -0.042 A 
HETATM    8  C7  UNL     1      26.006   1.032  52.737  1.00  0.00     0.031 A 
HETATM    9  C8  UNL     1      23.586   1.368  51.853  1.00  0.00     0.075 A 
HETATM   10  C9  UNL     1      22.340   0.728  52.334  1.00  0.00    -0.048 A 
HETATM   11  C10 UNL     1      22.573  -0.115  53.329  1.00  0.00     0.029 A 
HETATM   12  C11 UNL     1      21.610  -0.999  54.019  1.00  0.00     0.194 C 
HETATM   13  O1  UNL     1      21.918  -1.759  54.957  1.00  0.00    -0.287 OA
HETATM   14  C12 UNL     1      20.265  -0.812  53.404  1.00  0.00     0.022 A 
HETATM   15  C13 UNL     1      19.250  -1.642  53.903  1.00  0.00     0.018 A 
HETATM   16  C14 UNL     1      17.957  -1.626  53.363  1.00  0.00     0.030 A 
HETATM   17  C15 UNL     1      17.600  -0.787  52.300  1.00  0.00     0.031 A 
HETATM   18  C16 UNL     1      18.787  -0.197  52.133  1.00  0.00     0.038 A 
HETATM   19  C17 UNL     1      20.083   0.088  52.351  1.00  0.00    -0.029 A 
HETATM   20  C18 UNL     1      20.975   1.099  51.737  1.00  0.00     0.075 C 
HETATM   21  P1  UNL     1      20.714   2.824  52.332  1.00  0.00    -0.116 P 
HETATM   22  C19 UNL     1      19.374   3.815  51.506  1.00  0.00     0.032 C 
HETATM   23  C20 UNL     1      18.201   2.921  51.538  1.00  0.00     0.005 C 
HETATM   24  C21 UNL     1      16.818   3.266  51.137  1.00  0.00     0.002 C 
HETATM   25  C22 UNL     1      16.042   1.959  51.589  1.00  0.00     0.020 C 
HETATM   26  C23 UNL     1      16.537   0.751  50.898  1.00  0.00     0.123 C 
HETATM   27  N2  UNL     1      16.370  -0.509  51.641  1.00  0.00    -0.372 N 
HETATM   28  H10 UNL     1      21.955   3.525  52.386  1.00  0.00     0.058 HD
ENDROOT
BRANCH  27  29
HETATM   29  C24 UNL     1      15.387  -1.476  52.015  1.00  0.00     0.132 C 
HETATM   30  C25 UNL     1      14.005  -1.032  52.332  1.00  0.00     0.195 C 
HETATM   31  O2  UNL     1      13.578  -2.266  51.777  1.00  0.00    -0.387 OA
HETATM   32  C26 UNL     1      14.592  -2.031  50.819  1.00  0.00     0.195 C 
ENDBRANCH  27  29
TORSDOF 1
ENDMDL
MODEL 2
REMARK VINA RESULT:     -10.6      6.373      9.625
REMARK  1 active torsions:
REMARK  status: ('A' for Active; 'I' for Inactive)
REMARK    1  A    between atoms: N2_27  and  C24_28 
ROOT
HETATM    1  N1  UNL     1      22.265  -1.988  55.345  1.00  0.00    -0.191 NA
HETATM    2  C1  UNL     1      22.680  -1.199  54.615  1.00  0.00     0.099 C 
HETATM    3  C2  UNL     1      23.177  -0.207  53.713  1.00  0.00     0.045 A 
HETATM    4  C3  UNL     1      24.511  -0.312  53.346  1.00  0.00     0.023 A 
HETATM    5  C4  UNL     1      25.009   0.633  52.477  1.00  0.00     0.014 A 
HETATM    6  C5  UNL     1      24.305   1.683  51.933  1.00  0.00    -0.015 A 
HETATM    7  C6  UNL     1      22.986   1.749  52.325  1.00  0.00    -0.042 A 
HETATM    8  C7  UNL     1      22.413   0.840  53.191  1.00  0.00     0.031 A 
HETATM    9  C8  UNL     1      22.410   2.930  51.648  1.00  0.00     0.075 A 
HETATM   10  C9  UNL     1      23.532   3.480  50.852  1.00  0.00    -0.048 A 
HETATM   11  C10 UNL     1      24.640   2.772  51.010  1.00  0.00     0.029 A 
HETATM   12  C11 UNL     1      25.982   3.043  50.453  1.00  0.00     0.194 C 
HETATM   13  O1  UNL     1      26.973   2.313  50.649  1.00  0.00    -0.287 OA
HETATM   14  C12 UNL     1      25.921   4.297  49.650  1.00  0.00     0.022 A 
HETATM   15  C13 UNL     1      27.142   4.733  49.113  1.00  0.00     0.018 A 
HETATM   16  C14 UNL     1      27.244   5.937  48.403  1.00  0.00     0.030 A 
HETATM   17  C15 UNL     1      26.142   6.773  48.187  1.00  0.00     0.031 A 
HETATM   18  C16 UNL     1      25.229   6.034  48.824  1.00  0.00     0.038 A 
HETATM   19  C17 UNL     1      24.723   5.006  49.526  1.00  0.00    -0.029 A 
HETATM   20  C18 UNL     1      23.332   4.693  49.932  1.00  0.00     0.075 C 
HETATM   21  P1  UNL     1      22.266   4.025  48.585  1.00  0.00    -0.116 P 
HETATM   22  C19 UNL     1      21.436   5.259  47.467  1.00  0.00     0.032 C 
HETATM   23  C20 UNL     1      22.531   6.157  47.057  1.00  0.00     0.005 C 
HETATM   24  C21 UNL     1      22.453   7.239  46.049  1.00  0.00     0.002 C 
HETATM   25  C22 UNL     1      23.977   7.667  45.953  1.00  0.00     0.020 C 
HETATM   26  C23 UNL     1      24.503   8.148  47.247  1.00  0.00     0.123 C 
HETATM   27  N2  UNL     1      25.951   7.970  47.441  1.00  0.00    -0.372 N 
HETATM   28  H10 UNL     1      21.351   3.062  49.106  1.00  0.00     0.058 HD
ENDROOT
BRANCH  27  29
HETATM   29  C24 UNL     1      27.216   8.510  47.054  1.00  0.00     0.132 C 
HETATM   30  C25 UNL     1      27.264   9.700  46.166  1.00  0.00     0.195 C 
HETATM   31  O2  UNL     1      28.435  10.071  46.877  1.00  0.00    -0.387 OA
HETATM   32  C26 UNL     1      27.732   9.601  48.011  1.00  0.00     0.195 C 
ENDBRANCH  27  29
TORSDOF 1
ENDMDL
MODEL 3
REMARK VINA RESULT:     -10.4      2.258      8.804
REMARK  1 active torsions:
REMARK  status: ('A' for Active; 'I' for Inactive)
REMARK    1  A    between atoms: N2_27  and  C24_28 
ROOT
HETATM    1  N1  UNL     1      13.529  -1.135  52.257  1.00  0.00    -0.191 NA
HETATM    2  C1  UNL     1      14.667  -0.983  52.338  1.00  0.00     0.099 C 
HETATM    3  C2  UNL     1      16.079  -0.773  52.433  1.00  0.00     0.045 A 
HETATM    4  C3  UNL     1      16.810  -1.748  53.096  1.00  0.00     0.023 A 
HETATM    5  C4  UNL     1      18.171  -1.565  53.198  1.00  0.00     0.014 A 
HETATM    6  C5  UNL     1      18.884  -0.498  52.701  1.00  0.00    -0.015 A 
HETATM    7  C6  UNL     1      18.119   0.445  52.051  1.00  0.00    -0.042 A 
HETATM    8  C7  UNL     1      16.750   0.335  51.908  1.00  0.00     0.031 A 
HETATM    9  C8  UNL     1      19.052   1.499  51.602  1.00  0.00     0.075 A 
HETATM   10  C9  UNL     1      20.382   1.031  52.057  1.00  0.00    -0.048 A 
HETATM   11  C10 UNL     1      20.301  -0.124  52.700  1.00  0.00     0.029 A 
HETATM   12  C11 UNL     1      21.387  -0.871  53.370  1.00  0.00     0.194 C 
HETATM   13  O1  UNL     1      21.221  -1.962  53.950  1.00  0.00    -0.287 OA
HETATM   14  C12 UNL     1      22.655  -0.103  53.225  1.00  0.00     0.022 A 
HETATM   15  C13 UNL     1      23.772  -0.648  53.876  1.00  0.00     0.018 A 
HETATM   16  C14 UNL     1      25.009   0.009  53.886  1.00  0.00     0.030 A 
HETATM   17  C15 UNL     1      25.207   1.242  53.252  1.00  0.00     0.031 A 
HETATM   18  C16 UNL     1      23.967   1.400  52.780  1.00  0.00     0.038 A 
HETATM   19  C17 UNL     1      22.676   1.115  52.539  1.00  0.00    -0.029 A 
HETATM   20  C18 UNL     1      21.656   1.819  51.726  1.00  0.00     0.075 C 
HETATM   21  P1  UNL     1      21.829   1.590  49.905  1.00  0.00    -0.116 P 
HETATM   22  C19 UNL     1      23.010   2.717  49.014  1.00  0.00     0.032 C 
HETATM   23  C20 UNL     1      24.249   2.630  49.809  1.00  0.00     0.005 C 
HETATM   24  C21 UNL     1      25.562   3.223  49.465  1.00  0.00     0.002 C 
HETATM   25  C22 UNL     1      26.475   2.610  50.607  1.00  0.00     0.020 C 
HETATM   26  C23 UNL     1      26.022   3.007  51.955  1.00  0.00     0.123 C 
HETATM   27  N2  UNL     1      26.351   2.059  53.032  1.00  0.00    -0.372 N 
HETATM   28  H10 UNL     1      20.544   1.549  49.285  1.00  0.00     0.058 HD
ENDROOT
BRANCH  27  29
HETATM   29  C24 UNL     1      27.436   1.607  53.844  1.00  0.00     0.132 C 
HETATM   30  C25 UNL     1      28.440   0.673  53.273  1.00  0.00     0.195 C 
HETATM   31  O2  UNL     1      29.388   1.327  54.102  1.00  0.00    -0.387 OA
HETATM   32  C26 UNL     1      28.686   2.502  53.747  1.00  0.00     0.195 C 
ENDBRANCH  27  29
TORSDOF 1
ENDMDL
MODEL 4
REMARK VINA RESULT:      -9.6      7.422     11.159
REMARK  1 active torsions:
REMARK  status: ('A' for Active; 'I' for Inactive)
REMARK    1  A    between atoms: N2_27  and  C24_28 
ROOT
HETATM    1  N1  UNL     1      20.944   0.031  54.180  1.00  0.00    -0.191 NA
HETATM    2  C1  UNL     1      21.630   0.674  53.515  1.00  0.00     0.099 C 
HETATM    3  C2  UNL     1      22.470   1.491  52.694  1.00  0.00     0.045 A 
HETATM    4  C3  UNL     1      23.705   0.964  52.350  1.00  0.00     0.023 A 
HETATM    5  C4  UNL     1      24.529   1.733  51.559  1.00  0.00     0.014 A 
HETATM    6  C5  UNL     1      24.242   2.988  51.073  1.00  0.00    -0.015 A 
HETATM    7  C6  UNL     1      23.006   3.473  51.440  1.00  0.00    -0.042 A 
HETATM    8  C7  UNL     1      22.124   2.762  52.229  1.00  0.00     0.031 A 
HETATM    9  C8  UNL     1      22.889   4.815  50.833  1.00  0.00     0.075 A 
HETATM   10  C9  UNL     1      24.163   4.999  50.101  1.00  0.00    -0.048 A 
HETATM   11  C10 UNL     1      24.962   3.951  50.234  1.00  0.00     0.029 A 
HETATM   12  C11 UNL     1      26.340   3.785  49.726  1.00  0.00     0.194 C 
HETATM   13  O1  UNL     1      27.020   2.754  49.893  1.00  0.00    -0.287 OA
HETATM   14  C12 UNL     1      26.738   5.030  49.010  1.00  0.00     0.022 A 
HETATM   15  C13 UNL     1      28.056   5.058  48.531  1.00  0.00     0.018 A 
HETATM   16  C14 UNL     1      28.586   6.196  47.907  1.00  0.00     0.030 A 
HETATM   17  C15 UNL     1      27.839   7.366  47.725  1.00  0.00     0.031 A 
HETATM   18  C16 UNL     1      26.705   6.943  48.290  1.00  0.00     0.038 A 
HETATM   19  C17 UNL     1      25.853   6.107  48.908  1.00  0.00    -0.029 A 
HETATM   20  C18 UNL     1      24.422   6.259  49.262  1.00  0.00     0.075 C 
HETATM   21  P1  UNL     1      23.253   6.068  47.850  1.00  0.00    -0.116 P 
HETATM   22  C19 UNL     1      22.934   7.571  46.801  1.00  0.00     0.032 C 
HETATM   23  C20 UNL     1      24.283   8.069  46.477  1.00  0.00     0.005 C 
HETATM   24  C21 UNL     1      24.617   9.170  45.544  1.00  0.00     0.002 C 
HETATM   25  C22 UNL     1      26.198   9.064  45.511  1.00  0.00     0.020 C 
HETATM   26  C23 UNL     1      26.798   9.265  46.846  1.00  0.00     0.123 C 
HETATM   27  N2  UNL     1      28.093   8.597  47.058  1.00  0.00    -0.372 N 
HETATM   28  H10 UNL     1      22.047   5.441  48.284  1.00  0.00     0.058 HD
ENDROOT
BRANCH  27  29
HETATM   29  C24 UNL     1      29.481   8.700  46.737  1.00  0.00     0.132 C 
HETATM   30  C25 UNL     1      29.917   9.625  45.658  1.00  0.00     0.195 C 
HETATM   31  O2  UNL     1      31.094   9.823  46.427  1.00  0.00    -0.387 OA
HETATM   32  C26 UNL     1      30.212   9.798  47.533  1.00  0.00     0.195 C 
ENDBRANCH  27  29
TORSDOF 1
ENDMDL
MODEL 5
REMARK VINA RESULT:      -9.5      5.262      8.166
REMARK  1 active torsions:
REMARK  status: ('A' for Active; 'I' for Inactive)
REMARK    1  A    between atoms: N2_27  and  C24_28 
ROOT
HETATM    1  N1  UNL     1      23.910  10.217  44.816  1.00  0.00    -0.191 NA
HETATM    2  C1  UNL     1      23.774   9.259  45.440  1.00  0.00     0.099 C 
HETATM    3  C2  UNL     1      23.615   8.078  46.233  1.00  0.00     0.045 A 
HETATM    4  C3  UNL     1      22.658   7.169  45.810  1.00  0.00     0.023 A 
HETATM    5  C4  UNL     1      22.490   6.025  46.558  1.00  0.00     0.014 A 
HETATM    6  C5  UNL     1      23.188   5.694  47.698  1.00  0.00    -0.015 A 
HETATM    7  C6  UNL     1      24.128   6.626  48.081  1.00  0.00    -0.042 A 
HETATM    8  C7  UNL     1      24.356   7.796  47.384  1.00  0.00     0.031 A 
HETATM    9  C8  UNL     1      24.758   6.098  49.310  1.00  0.00     0.075 A 
HETATM   10  C9  UNL     1      24.082   4.801  49.541  1.00  0.00    -0.048 A 
HETATM   11  C10 UNL     1      23.165   4.554  48.618  1.00  0.00     0.029 A 
HETATM   12  C11 UNL     1      22.230   3.411  48.546  1.00  0.00     0.194 C 
HETATM   13  O1  UNL     1      21.399   3.254  47.630  1.00  0.00    -0.287 OA
HETATM   14  C12 UNL     1      22.463   2.528  49.723  1.00  0.00     0.022 A 
HETATM   15  C13 UNL     1      21.596   1.431  49.839  1.00  0.00     0.018 A 
HETATM   16  C14 UNL     1      21.653   0.563  50.938  1.00  0.00     0.030 A 
HETATM   17  C15 UNL     1      22.572   0.736  51.981  1.00  0.00     0.031 A 
HETATM   18  C16 UNL     1      23.174   1.831  51.508  1.00  0.00     0.038 A 
HETATM   19  C17 UNL     1      23.442   2.846  50.669  1.00  0.00    -0.029 A 
HETATM   20  C18 UNL     1      24.498   3.885  50.700  1.00  0.00     0.075 C 
HETATM   21  P1  UNL     1      26.171   3.302  50.193  1.00  0.00    -0.116 P 
HETATM   22  C19 UNL     1      27.223   2.496  51.499  1.00  0.00     0.032 C 
HETATM   23  C20 UNL     1      26.329   1.489  52.101  1.00  0.00     0.005 C 
HETATM   24  C21 UNL     1      26.703   0.463  53.101  1.00  0.00     0.002 C 
HETATM   25  C22 UNL     1      25.364  -0.384  53.174  1.00  0.00     0.020 C 
HETATM   26  C23 UNL     1      24.213   0.429  53.615  1.00  0.00     0.123 C 
HETATM   27  N2  UNL     1      22.900  -0.029  53.135  1.00  0.00    -0.372 N 
HETATM   28  H10 UNL     1      26.867   4.333  49.495  1.00  0.00     0.058 HD
ENDROOT
BRANCH  27  29
HETATM   29  C24 UNL     1      21.906  -1.033  53.353  1.00  0.00     0.132 C 
HETATM   30  C25 UNL     1      21.944  -1.842  54.598  1.00  0.00     0.195 C 
HETATM   31  O2  UNL     1      20.526  -1.856  54.525  1.00  0.00    -0.387 OA
HETATM   32  C26 UNL     1      20.670  -0.512  54.109  1.00  0.00     0.195 C 
ENDBRANCH  27  29
TORSDOF 1
ENDMDL
MODEL 6
REMARK VINA RESULT:      -9.4      3.551      9.182
REMARK  1 active torsions:
REMARK  status: ('A' for Active; 'I' for Inactive)
REMARK    1  A    between atoms: N2_27  and  C24_28 
ROOT
HETATM    1  N1  UNL     1      15.036   4.090  47.581  1.00  0.00    -0.191 NA
HETATM    2  C1  UNL     1      15.993   3.887  48.189  1.00  0.00     0.099 C 
HETATM    3  C2  UNL     1      17.180   3.614  48.938  1.00  0.00     0.045 A 
HETATM    4  C3  UNL     1      17.967   4.704  49.277  1.00  0.00     0.023 A 
HETATM    5  C4  UNL     1      19.114   4.463  50.000  1.00  0.00     0.014 A 
HETATM    6  C5  UNL     1      19.561   3.232  50.421  1.00  0.00    -0.015 A 
HETATM    7  C6  UNL     1      18.750   2.178  50.062  1.00  0.00    -0.042 A 
HETATM    8  C7  UNL     1      17.584   2.337  49.339  1.00  0.00     0.031 A 
HETATM    9  C8  UNL     1      19.393   0.958  50.594  1.00  0.00     0.075 A 
HETATM   10  C9  UNL     1      20.610   1.454  51.279  1.00  0.00    -0.048 A 
HETATM   11  C10 UNL     1      20.725   2.770  51.183  1.00  0.00     0.029 A 
HETATM   12  C11 UNL     1      21.832   3.625  51.662  1.00  0.00     0.194 C 
HETATM   13  O1  UNL     1      21.853   4.865  51.535  1.00  0.00    -0.287 OA
HETATM   14  C12 UNL     1      22.866   2.758  52.294  1.00  0.00     0.022 A 
HETATM   15  C13 UNL     1      24.023   3.418  52.734  1.00  0.00     0.018 A 
HETATM   16  C14 UNL     1      25.107   2.715  53.276  1.00  0.00     0.030 A 
HETATM   17  C15 UNL     1      25.103   1.321  53.412  1.00  0.00     0.031 A 
HETATM   18  C16 UNL     1      23.888   1.097  52.904  1.00  0.00     0.038 A 
HETATM   19  C17 UNL     1      22.691   1.373  52.358  1.00  0.00    -0.029 A 
HETATM   20  C18 UNL     1      21.540   0.497  52.037  1.00  0.00     0.075 C 
HETATM   21  P1  UNL     1      20.525  -0.010  53.490  1.00  0.00    -0.116 P 
HETATM   22  C19 UNL     1      21.106  -1.487  54.459  1.00  0.00     0.032 C 
HETATM   23  C20 UNL     1      22.530  -1.203  54.717  1.00  0.00     0.005 C 
HETATM   24  C21 UNL     1      23.445  -1.990  55.576  1.00  0.00     0.002 C 
HETATM   25  C22 UNL     1      24.730  -1.062  55.571  1.00  0.00     0.020 C 
HETATM   26  C23 UNL     1      25.272  -0.869  54.210  1.00  0.00     0.123 C 
HETATM   27  N2  UNL     1      26.005   0.391  54.000  1.00  0.00    -0.372 N 
HETATM   28  H10 UNL     1      19.148  -0.104  53.126  1.00  0.00     0.058 HD
ENDROOT
BRANCH  27  29
HETATM   29  C24 UNL     1      27.253   1.030  54.276  1.00  0.00     0.132 C 
HETATM   30  C25 UNL     1      28.325   0.273  54.973  1.00  0.00     0.195 C 
HETATM   31  O2  UNL     1      29.240   1.026  54.191  1.00  0.00    -0.387 OA
HETATM   32  C26 UNL     1      28.293   0.846  53.155  1.00  0.00     0.195 C 
ENDBRANCH  27  29
TORSDOF 1
ENDMDL
MODEL 7
REMARK VINA RESULT:      -9.4      1.497      2.073
REMARK  1 active torsions:
REMARK  status: ('A' for Active; 'I' for Inactive)
REMARK    1  A    between atoms: N2_27  and  C24_28 
ROOT
HETATM    1  N1  UNL     1      27.550   2.136  52.048  1.00  0.00    -0.191 NA
HETATM    2  C1  UNL     1      26.448   1.808  52.124  1.00  0.00     0.099 C 
HETATM    3  C2  UNL     1      25.076   1.409  52.198  1.00  0.00     0.045 A 
HETATM    4  C3  UNL     1      24.741   0.514  53.202  1.00  0.00     0.023 A 
HETATM    5  C4  UNL     1      23.426   0.118  53.291  1.00  0.00     0.014 A 
HETATM    6  C5  UNL     1      22.400   0.528  52.470  1.00  0.00    -0.015 A 
HETATM    7  C6  UNL     1      22.777   1.416  51.487  1.00  0.00    -0.042 A 
HETATM    8  C7  UNL     1      24.075   1.861  51.333  1.00  0.00     0.031 A 
HETATM    9  C8  UNL     1      21.554   1.729  50.719  1.00  0.00     0.075 A 
HETATM   10  C9  UNL     1      20.491   0.942  51.384  1.00  0.00    -0.048 A 
HETATM   11  C10 UNL     1      20.966   0.235  52.399  1.00  0.00     0.029 A 
HETATM   12  C11 UNL     1      20.243  -0.729  53.255  1.00  0.00     0.194 C 
HETATM   13  O1  UNL     1      20.771  -1.348  54.200  1.00  0.00    -0.287 OA
HETATM   14  C12 UNL     1      18.829  -0.813  52.791  1.00  0.00     0.022 A 
HETATM   15  C13 UNL     1      18.026  -1.749  53.460  1.00  0.00     0.018 A 
HETATM   16  C14 UNL     1      16.700  -1.986  53.075  1.00  0.00     0.030 A 
HETATM   17  C15 UNL     1      16.097  -1.309  52.008  1.00  0.00     0.031 A 
HETATM   18  C16 UNL     1      17.144  -0.553  51.664  1.00  0.00     0.038 A 
HETATM   19  C17 UNL     1      18.388  -0.047  51.708  1.00  0.00    -0.029 A 
HETATM   20  C18 UNL     1      19.029   1.038  50.927  1.00  0.00     0.075 C 
HETATM   21  P1  UNL     1      18.544   2.743  51.432  1.00  0.00    -0.116 P 
HETATM   22  C19 UNL     1      16.978   3.433  50.704  1.00  0.00     0.032 C 
HETATM   23  C20 UNL     1      15.982   2.369  50.934  1.00  0.00     0.005 C 
HETATM   24  C21 UNL     1      14.527   2.453  50.676  1.00  0.00     0.002 C 
HETATM   25  C22 UNL     1      14.033   1.082  51.302  1.00  0.00     0.020 C 
HETATM   26  C23 UNL     1      14.650  -0.086  50.641  1.00  0.00     0.123 C 
HETATM   27  N2  UNL     1      14.776  -1.288  51.481  1.00  0.00    -0.372 N 
HETATM   28  H10 UNL     1      19.648   3.636  51.293  1.00  0.00     0.058 HD
ENDROOT
BRANCH  27  29
HETATM   29  C24 UNL     1      14.014  -2.365  52.031  1.00  0.00     0.132 C 
HETATM   30  C25 UNL     1      12.570  -2.168  52.320  1.00  0.00     0.195 C 
HETATM   31  O2  UNL     1      12.408  -3.536  51.976  1.00  0.00    -0.387 OA
HETATM   32  C26 UNL     1      13.353  -3.253  50.961  1.00  0.00     0.195 C 
ENDBRANCH  27  29
TORSDOF 1
ENDMDL
MODEL 8
REMARK VINA RESULT:      -9.0      4.740      9.457
REMARK  1 active torsions:
REMARK  status: ('A' for Active; 'I' for Inactive)
REMARK    1  A    between atoms: N2_27  and  C24_28 
ROOT
HETATM    1  N1  UNL     1      19.796   7.859  44.036  1.00  0.00    -0.191 NA
HETATM    2  C1  UNL     1      20.416   7.292  44.823  1.00  0.00     0.099 C 
HETATM    3  C2  UNL     1      21.174   6.570  45.798  1.00  0.00     0.045 A 
HETATM    4  C3  UNL     1      22.394   7.116  46.167  1.00  0.00     0.023 A 
HETATM    5  C4  UNL     1      23.140   6.437  47.104  1.00  0.00     0.014 A 
HETATM    6  C5  UNL     1      22.787   5.256  47.717  1.00  0.00    -0.015 A 
HETATM    7  C6  UNL     1      21.569   4.750  47.321  1.00  0.00    -0.042 A 
HETATM    8  C7  UNL     1      20.764   5.371  46.387  1.00  0.00     0.031 A 
HETATM    9  C8  UNL     1      21.376   3.494  48.076  1.00  0.00     0.075 A 
HETATM   10  C9  UNL     1      22.589   3.382  48.918  1.00  0.00    -0.048 A 
HETATM   11  C10 UNL     1      23.421   4.393  48.718  1.00  0.00     0.029 A 
HETATM   12  C11 UNL     1      24.763   4.599  49.304  1.00  0.00     0.194 C 
HETATM   13  O1  UNL     1      25.478   5.591  49.063  1.00  0.00    -0.287 OA
HETATM   14  C12 UNL     1      25.077   3.445  50.193  1.00  0.00     0.022 A 
HETATM   15  C13 UNL     1      26.356   3.456  50.769  1.00  0.00     0.018 A 
HETATM   16  C14 UNL     1      26.812   2.395  51.564  1.00  0.00     0.030 A 
HETATM   17  C15 UNL     1      26.025   1.268  51.832  1.00  0.00     0.031 A 
HETATM   18  C16 UNL     1      24.945   1.636  51.136  1.00  0.00     0.038 A 
HETATM   19  C17 UNL     1      24.160   2.403  50.359  1.00  0.00    -0.029 A 
HETATM   20  C18 UNL     1      22.755   2.231  49.920  1.00  0.00     0.075 C 
HETATM   21  P1  UNL     1      21.493   2.613  51.208  1.00  0.00    -0.116 P 
HETATM   22  C19 UNL     1      21.062   1.256  52.405  1.00  0.00     0.032 C 
HETATM   23  C20 UNL     1      22.372   0.780  52.887  1.00  0.00     0.005 C 
HETATM   24  C21 UNL     1      22.610  -0.202  53.969  1.00  0.00     0.002 C 
HETATM   25  C22 UNL     1      24.187  -0.118  54.107  1.00  0.00     0.020 C 
HETATM   26  C23 UNL     1      24.876  -0.491  52.855  1.00  0.00     0.123 C 
HETATM   27  N2  UNL     1      26.199   0.125  52.660  1.00  0.00    -0.372 N 
HETATM   28  H10 UNL     1      20.337   3.200  50.612  1.00  0.00     0.058 HD
ENDROOT
BRANCH  27  29
HETATM   29  C24 UNL     1      27.558   0.040  53.094  1.00  0.00     0.132 C 
HETATM   30  C25 UNL     1      27.858  -0.071  54.545  1.00  0.00     0.195 C 
HETATM   31  O2  UNL     1      28.966  -0.872  54.163  1.00  0.00    -0.387 OA
HETATM   32  C26 UNL     1      28.075  -1.407  53.203  1.00  0.00     0.195 C 
ENDBRANCH  27  29
TORSDOF 1
ENDMDL
MODEL 9
REMARK VINA RESULT:      -8.9      8.508     12.928
REMARK  1 active torsions:
REMARK  status: ('A' for Active; 'I' for Inactive)
REMARK    1  A    between atoms: N2_27  and  C24_28 
ROOT
HETATM    1  N1  UNL     1      19.872   3.232  52.420  1.00  0.00    -0.191 NA
HETATM    2  C1  UNL     1      20.855   3.567  51.922  1.00  0.00     0.099 C 
HETATM    3  C2  UNL     1      22.072   4.002  51.309  1.00  0.00     0.045 A 
HETATM    4  C3  UNL     1      22.991   3.017  50.981  1.00  0.00     0.023 A 
HETATM    5  C4  UNL     1      24.169   3.415  50.390  1.00  0.00     0.014 A 
HETATM    6  C5  UNL     1      24.527   4.709  50.090  1.00  0.00    -0.015 A 
HETATM    7  C6  UNL     1      23.585   5.655  50.434  1.00  0.00    -0.042 A 
HETATM    8  C7  UNL     1      22.381   5.336  51.029  1.00  0.00     0.031 A 
HETATM    9  C8  UNL     1      24.150   6.964  50.043  1.00  0.00     0.075 A 
HETATM   10  C9  UNL     1      25.467   6.634  49.450  1.00  0.00    -0.048 A 
HETATM   11  C10 UNL     1      25.703   5.331  49.475  1.00  0.00     0.029 A 
HETATM   12  C11 UNL     1      26.929   4.619  49.054  1.00  0.00     0.194 C 
HETATM   13  O1  UNL     1      27.062   3.381  49.106  1.00  0.00    -0.287 OA
HETATM   14  C12 UNL     1      27.924   5.622  48.580  1.00  0.00     0.022 A 
HETATM   15  C13 UNL     1      29.177   5.106  48.214  1.00  0.00     0.018 A 
HETATM   16  C14 UNL     1      30.230   5.944  47.824  1.00  0.00     0.030 A 
HETATM   17  C15 UNL     1      30.098   7.338  47.774  1.00  0.00     0.031 A 
HETATM   18  C16 UNL     1      28.826   7.411  48.175  1.00  0.00     0.038 A 
HETATM   19  C17 UNL     1      27.618   6.986  48.584  1.00  0.00    -0.029 A 
HETATM   20  C18 UNL     1      26.361   7.725  48.846  1.00  0.00     0.075 C 
HETATM   21  P1  UNL     1      25.436   8.236  47.336  1.00  0.00    -0.116 P 
HETATM   22  C19 UNL     1      25.952   9.826  46.520  1.00  0.00     0.032 C 
HETATM   23  C20 UNL     1      27.415   9.696  46.385  1.00  0.00     0.005 C 
HETATM   24  C21 UNL     1      28.320  10.624  45.669  1.00  0.00     0.002 C 
HETATM   25  C22 UNL     1      29.686   9.822  45.741  1.00  0.00     0.020 C 
HETATM   26  C23 UNL     1      30.120   9.585  47.133  1.00  0.00     0.123 C 
HETATM   27  N2  UNL     1      30.952   8.388  47.335  1.00  0.00    -0.372 N 
HETATM   28  H10 UNL     1      24.030   8.176  47.569  1.00  0.00     0.058 HD
ENDROOT
BRANCH  27  29
HETATM   29  C24 UNL     1      32.278   7.890  47.143  1.00  0.00     0.132 C 
HETATM   30  C25 UNL     1      32.785   7.672  45.763  1.00  0.00     0.195 C 
HETATM   31  O2  UNL     1      34.059   8.040  46.271  1.00  0.00    -0.387 OA
HETATM   32  C26 UNL     1      33.335   9.003  47.013  1.00  0.00     0.195 C 
ENDBRANCH  27  29
TORSDOF 1
ENDMDL
